MODEL 1
REMARK VINA RESULT:      -5.2      0.000      0.000
REMARK  Name = 
REMARK  25 active torsions:
REMARK  status: ('A' for Active; 'I' for Inactive)
REMARK    1  A    between atoms: O_1  and  C_2
REMARK    2  A    between atoms: C_2  and  C_4
REMARK    3  A    between atoms: C_4  and  N_5
REMARK    4  A    between atoms: N_5  and  C_6
REMARK    5  A    between atoms: N_5  and  C_20
REMARK    6  A    between atoms: C_6  and  C_7
REMARK    7  A    between atoms: C_7  and  N_8
REMARK    8  A    between atoms: N_8  and  C_9
REMARK    9  A    between atoms: N_8  and  C_13
REMARK   10  A    between atoms: C_9  and  C_10
REMARK   11  A    between atoms: C_10  and  O_11
REMARK   12  A    between atoms: C_13  and  C_14
REMARK   13  A    between atoms: N_16  and  C_17
REMARK   14  A    between atoms: C_17  and  C_18
REMARK   15  A    between atoms: C_18  and  S_19
REMARK   16  A    between atoms: C_20  and  C_21
REMARK   17  A    between atoms: C_21  and  N_22
REMARK   18  A    between atoms: N_22  and  C_23
REMARK   19  A    between atoms: N_22  and  C_27
REMARK   20  A    between atoms: C_23  and  C_24
REMARK   21  A    between atoms: C_24  and  O_25
REMARK   22  A    between atoms: C_27  and  C_28
REMARK   23  A    between atoms: N_30  and  C_31
REMARK   24  A    between atoms: C_31  and  C_32
REMARK   25  A    between atoms: C_32  and  S_33
REMARK                            x       y       z     vdW  Elec       q    Type
REMARK                         _______ _______ _______ _____ _____    ______ ____
ROOT
ATOM      1  N   UNL     1       9.279  -0.679  23.172  0.00  0.00    -0.290 NA
ENDROOT
BRANCH   1   2
ATOM      2  C   UNL     1       9.874  -0.132  21.898  0.00  0.00    +0.205 C 
BRANCH   2   3
ATOM      3  C   UNL     1       9.305   1.237  21.529  0.00  0.00    +0.319 C 
ATOM      4  O   UNL     1       8.154   1.435  21.171  0.00  0.00    -0.250 OA
BRANCH   3   5
ATOM      5  O   UNL     1      10.237   2.220  21.588  0.00  0.00    -0.480 OA
ATOM      6  H   UNL     1      10.657   2.300  20.704  0.00  0.00    +0.295 HD
ENDBRANCH   3   5
ENDBRANCH   2   3
ENDBRANCH   1   2
BRANCH   1   7
ATOM      7  C   UNL     1       9.787   0.147  24.318  0.00  0.00    +0.100 C 
BRANCH   7   8
ATOM      8  C   UNL     1       8.754   0.759  25.305  0.00  0.00    +0.101 C 
BRANCH   8   9
ATOM      9  N   UNL     1       7.843   1.774  24.690  0.00  0.00    -0.283 NA
BRANCH   9  10
ATOM     10  C   UNL     1       6.404   1.419  24.854  0.00  0.00    +0.205 C 
BRANCH  10  11
ATOM     11  C   UNL     1       6.010   0.081  24.246  0.00  0.00    +0.319 C 
ATOM     12  O   UNL     1       5.404  -0.782  24.866  0.00  0.00    -0.250 OA
BRANCH  11  13
ATOM     13  O   UNL     1       6.333  -0.060  22.942  0.00  0.00    -0.480 OA
ATOM     14  H   UNL     1       6.611   0.752  22.468  0.00  0.00    +0.295 HD
ENDBRANCH  11  13
ENDBRANCH  10  11
ENDBRANCH   9  10
BRANCH   9  15
ATOM     15  C   UNL     1       8.168   3.103  25.278  0.00  0.00    +0.181 C 
BRANCH  15  16
ATOM     16  C   UNL     1       8.692   4.099  24.239  0.00  0.00    +0.227 C 
ATOM     17  N   UNL     1       9.705   4.920  24.668  0.00  0.00    -0.313 N 
ATOM     18  H   UNL     1      10.040   4.802  25.620  0.00  0.00    +0.149 HD
ATOM     19  O   UNL     1       8.267   4.110  23.087  0.00  0.00    -0.274 OA
BRANCH  17  20
ATOM     20  C   UNL     1      10.321   5.919  23.809  0.00  0.00    +0.114 C 
BRANCH  20  21
ATOM     21  C   UNL     1      11.805   6.117  24.111  0.00  0.00    +0.084 C 
BRANCH  21  22
ATOM     22  S   UNL     1      12.847   5.317  22.848  0.00  0.00    -0.177 S 
ATOM     23  H   UNL     1      12.751   6.301  21.942  0.00  0.00    +0.102 HD
ENDBRANCH  21  22
ENDBRANCH  20  21
ENDBRANCH  17  20
ENDBRANCH  15  16
ENDBRANCH   9  15
ENDBRANCH   8   9
ENDBRANCH   7   8
ENDBRANCH   1   7
BRANCH   1  24
ATOM     24  C   UNL     1       9.775  -2.087  23.364  0.00  0.00    +0.100 C 
BRANCH  24  25
ATOM     25  C   UNL     1       8.965  -2.925  24.395  0.00  0.00    +0.101 C 
BRANCH  25  26
ATOM     26  N   UNL     1       7.636  -3.444  23.931  0.00  0.00    -0.283 NA
BRANCH  26  27
ATOM     27  C   UNL     1       7.598  -3.414  22.426  0.00  0.00    +0.205 C 
BRANCH  27  28
ATOM     28  C   UNL     1       6.176  -3.556  21.900  0.00  0.00    +0.319 C 
ATOM     29  O   UNL     1       5.848  -4.269  20.963  0.00  0.00    -0.250 OA
BRANCH  28  30
ATOM     30  O   UNL     1       5.300  -2.755  22.563  0.00  0.00    -0.480 OA
ATOM     31  H   UNL     1       5.818  -2.042  22.991  0.00  0.00    +0.295 HD
ENDBRANCH  28  30
ENDBRANCH  27  28
ENDBRANCH  26  27
BRANCH  26  32
ATOM     32  C   UNL     1       7.545  -4.889  24.360  0.00  0.00    +0.181 C 
BRANCH  32  33
ATOM     33  C   UNL     1       6.313  -5.152  25.232  0.00  0.00    +0.227 C 
ATOM     34  N   UNL     1       6.581  -5.806  26.414  0.00  0.00    -0.313 N 
ATOM     35  H   UNL     1       7.500  -6.206  26.547  0.00  0.00    +0.149 HD
ATOM     36  O   UNL     1       5.184  -4.808  24.891  0.00  0.00    -0.274 OA
BRANCH  34  37
ATOM     37  C   UNL     1       5.522  -6.186  27.334  0.00  0.00    +0.114 C 
BRANCH  37  38
ATOM     38  C   UNL     1       5.922  -6.042  28.803  0.00  0.00    +0.084 C 
BRANCH  38  39
ATOM     39  S   UNL     1       4.516  -6.362  29.919  0.00  0.00    -0.177 S 
ATOM     40  H   UNL     1       4.395  -5.110  30.377  0.00  0.00    +0.102 HD
ENDBRANCH  38  39
ENDBRANCH  37  38
ENDBRANCH  34  37
ENDBRANCH  32  33
ENDBRANCH  26  32
ENDBRANCH  25  26
ENDBRANCH  24  25
ENDBRANCH   1  24
TORSDOF 25
ENDMDL
MODEL 2
REMARK VINA RESULT:      -5.1      2.457      3.486
REMARK  Name = 
REMARK  25 active torsions:
REMARK  status: ('A' for Active; 'I' for Inactive)
REMARK    1  A    between atoms: O_1  and  C_2
REMARK    2  A    between atoms: C_2  and  C_4
REMARK    3  A    between atoms: C_4  and  N_5
REMARK    4  A    between atoms: N_5  and  C_6
REMARK    5  A    between atoms: N_5  and  C_20
REMARK    6  A    between atoms: C_6  and  C_7
REMARK    7  A    between atoms: C_7  and  N_8
REMARK    8  A    between atoms: N_8  and  C_9
REMARK    9  A    between atoms: N_8  and  C_13
REMARK   10  A    between atoms: C_9  and  C_10
REMARK   11  A    between atoms: C_10  and  O_11
REMARK   12  A    between atoms: C_13  and  C_14
REMARK   13  A    between atoms: N_16  and  C_17
REMARK   14  A    between atoms: C_17  and  C_18
REMARK   15  A    between atoms: C_18  and  S_19
REMARK   16  A    between atoms: C_20  and  C_21
REMARK   17  A    between atoms: C_21  and  N_22
REMARK   18  A    between atoms: N_22  and  C_23
REMARK   19  A    between atoms: N_22  and  C_27
REMARK   20  A    between atoms: C_23  and  C_24
REMARK   21  A    between atoms: C_24  and  O_25
REMARK   22  A    between atoms: C_27  and  C_28
REMARK   23  A    between atoms: N_30  and  C_31
REMARK   24  A    between atoms: C_31  and  C_32
REMARK   25  A    between atoms: C_32  and  S_33
REMARK                            x       y       z     vdW  Elec       q    Type
REMARK                         _______ _______ _______ _____ _____    ______ ____
ROOT
ATOM      1  N   UNL     1       7.404   0.151  25.303  0.00  0.00    -0.290 NA
ENDROOT
BRANCH   1   2
ATOM      2  C   UNL     1       7.094   1.408  26.078  0.00  0.00    +0.205 C 
BRANCH   2   3
ATOM      3  C   UNL     1       8.027   2.563  25.713  0.00  0.00    +0.319 C 
ATOM      4  O   UNL     1       7.796   3.739  25.946  0.00  0.00    -0.250 OA
BRANCH   3   5
ATOM      5  O   UNL     1       9.132   2.147  25.046  0.00  0.00    -0.480 OA
ATOM      6  H   UNL     1       8.866   1.443  24.417  0.00  0.00    +0.295 HD
ENDBRANCH   3   5
ENDBRANCH   2   3
ENDBRANCH   1   2
BRANCH   1   7
ATOM      7  C   UNL     1       6.515   0.116  24.093  0.00  0.00    +0.100 C 
BRANCH   7   8
ATOM      8  C   UNL     1       7.179   0.067  22.689  0.00  0.00    +0.101 C 
BRANCH   8   9
ATOM      9  N   UNL     1       8.152   1.173  22.429  0.00  0.00    -0.283 NA
BRANCH   9  10
ATOM     10  C   UNL     1       9.405   0.687  21.782  0.00  0.00    +0.205 C 
BRANCH  10  11
ATOM     11  C   UNL     1      10.099  -0.448  22.520  0.00  0.00    +0.319 C 
ATOM     12  O   UNL     1      10.420  -0.382  23.699  0.00  0.00    -0.250 OA
BRANCH  11  13
ATOM     13  O   UNL     1      10.286  -1.564  21.783  0.00  0.00    -0.480 OA
ATOM     14  H   UNL     1      10.796  -2.288  22.203  0.00  0.00    +0.295 HD
ENDBRANCH  11  13
ENDBRANCH  10  11
ENDBRANCH   9  10
BRANCH   9  15
ATOM     15  C   UNL     1       7.464   2.215  21.618  0.00  0.00    +0.181 C 
BRANCH  15  16
ATOM     16  C   UNL     1       7.344   3.554  22.352  0.00  0.00    +0.227 C 
ATOM     17  N   UNL     1       8.533   4.172  22.648  0.00  0.00    -0.313 N 
ATOM     18  H   UNL     1       9.392   3.715  22.350  0.00  0.00    +0.149 HD
ATOM     19  O   UNL     1       6.252   4.055  22.601  0.00  0.00    -0.274 OA
BRANCH  17  20
ATOM     20  C   UNL     1       8.602   5.451  23.337  0.00  0.00    +0.114 C 
BRANCH  20  21
ATOM     21  C   UNL     1      10.019   5.798  23.787  0.00  0.00    +0.084 C 
BRANCH  21  22
ATOM     22  S   UNL     1       9.999   6.782  25.321  0.00  0.00    -0.177 S 
ATOM     23  H   UNL     1       9.706   7.952  24.736  0.00  0.00    +0.102 HD
ENDBRANCH  21  22
ENDBRANCH  20  21
ENDBRANCH  17  20
ENDBRANCH  15  16
ENDBRANCH   9  15
ENDBRANCH   8   9
ENDBRANCH   7   8
ENDBRANCH   1   7
BRANCH   1  24
ATOM     24  C   UNL     1       7.059  -1.035  26.162  0.00  0.00    +0.100 C 
BRANCH  24  25
ATOM     25  C   UNL     1       8.205  -2.076  26.322  0.00  0.00    +0.101 C 
BRANCH  25  26
ATOM     26  N   UNL     1       7.990  -3.405  25.662  0.00  0.00    -0.283 NA
BRANCH  26  27
ATOM     27  C   UNL     1       8.869  -3.494  24.443  0.00  0.00    +0.205 C 
BRANCH  27  28
ATOM     28  C   UNL     1       8.083  -3.942  23.218  0.00  0.00    +0.319 C 
ATOM     29  O   UNL     1       7.791  -3.221  22.275  0.00  0.00    -0.250 OA
BRANCH  28  30
ATOM     30  O   UNL     1       7.691  -5.241  23.306  0.00  0.00    -0.480 OA
ATOM     31  H   UNL     1       8.324  -5.701  23.897  0.00  0.00    +0.295 HD
ENDBRANCH  28  30
ENDBRANCH  27  28
ENDBRANCH  26  27
BRANCH  26  32
ATOM     32  C   UNL     1       8.450  -4.467  26.633  0.00  0.00    +0.181 C 
BRANCH  32  33
ATOM     33  C   UNL     1       7.324  -5.441  26.993  0.00  0.00    +0.227 C 
ATOM     34  N   UNL     1       6.396  -5.633  25.993  0.00  0.00    -0.313 N 
ATOM     35  H   UNL     1       6.418  -5.018  25.190  0.00  0.00    +0.149 HD
ATOM     36  O   UNL     1       7.262  -5.994  28.088  0.00  0.00    -0.274 OA
BRANCH  34  37
ATOM     37  C   UNL     1       5.231  -6.479  26.184  0.00  0.00    +0.114 C 
BRANCH  37  38
ATOM     38  C   UNL     1       4.473  -6.761  24.887  0.00  0.00    +0.084 C 
BRANCH  38  39
ATOM     39  S   UNL     1       4.095  -5.225  23.979  0.00  0.00    -0.177 S 
ATOM     40  H   UNL     1       2.884  -5.598  23.543  0.00  0.00    +0.102 HD
ENDBRANCH  38  39
ENDBRANCH  37  38
ENDBRANCH  34  37
ENDBRANCH  32  33
ENDBRANCH  26  32
ENDBRANCH  25  26
ENDBRANCH  24  25
ENDBRANCH   1  24
TORSDOF 25
ENDMDL
MODEL 3
REMARK VINA RESULT:      -5.0      1.584      1.979
REMARK  Name = 
REMARK  25 active torsions:
REMARK  status: ('A' for Active; 'I' for Inactive)
REMARK    1  A    between atoms: O_1  and  C_2
REMARK    2  A    between atoms: C_2  and  C_4
REMARK    3  A    between atoms: C_4  and  N_5
REMARK    4  A    between atoms: N_5  and  C_6
REMARK    5  A    between atoms: N_5  and  C_20
REMARK    6  A    between atoms: C_6  and  C_7
REMARK    7  A    between atoms: C_7  and  N_8
REMARK    8  A    between atoms: N_8  and  C_9
REMARK    9  A    between atoms: N_8  and  C_13
REMARK   10  A    between atoms: C_9  and  C_10
REMARK   11  A    between atoms: C_10  and  O_11
REMARK   12  A    between atoms: C_13  and  C_14
REMARK   13  A    between atoms: N_16  and  C_17
REMARK   14  A    between atoms: C_17  and  C_18
REMARK   15  A    between atoms: C_18  and  S_19
REMARK   16  A    between atoms: C_20  and  C_21
REMARK   17  A    between atoms: C_21  and  N_22
REMARK   18  A    between atoms: N_22  and  C_23
REMARK   19  A    between atoms: N_22  and  C_27
REMARK   20  A    between atoms: C_23  and  C_24
REMARK   21  A    between atoms: C_24  and  O_25
REMARK   22  A    between atoms: C_27  and  C_28
REMARK   23  A    between atoms: N_30  and  C_31
REMARK   24  A    between atoms: C_31  and  C_32
REMARK   25  A    between atoms: C_32  and  S_33
REMARK                            x       y       z     vdW  Elec       q    Type
REMARK                         _______ _______ _______ _____ _____    ______ ____
ROOT
ATOM      1  N   UNL     1       9.142  -0.606  22.846  0.00  0.00    -0.290 NA
ENDROOT
BRANCH   1   2
ATOM      2  C   UNL     1       9.960   0.136  21.818  0.00  0.00    +0.205 C 
BRANCH   2   3
ATOM      3  C   UNL     1       9.815   1.652  21.940  0.00  0.00    +0.319 C 
ATOM      4  O   UNL     1      10.540   2.365  22.615  0.00  0.00    -0.250 OA
BRANCH   3   5
ATOM      5  O   UNL     1       8.747   2.129  21.252  0.00  0.00    -0.480 OA
ATOM      6  H   UNL     1       8.089   2.464  21.899  0.00  0.00    +0.295 HD
ENDBRANCH   3   5
ENDBRANCH   2   3
ENDBRANCH   1   2
BRANCH   1   7
ATOM      7  C   UNL     1       9.930  -0.655  24.123  0.00  0.00    +0.100 C 
BRANCH   7   8
ATOM      8  C   UNL     1       9.330   0.019  25.389  0.00  0.00    +0.101 C 
BRANCH   8   9
ATOM      9  N   UNL     1       7.968   0.605  25.187  0.00  0.00    -0.283 NA
BRANCH   9  10
ATOM     10  C   UNL     1       6.907  -0.162  25.900  0.00  0.00    +0.205 C 
BRANCH  10  11
ATOM     11  C   UNL     1       5.641  -0.394  25.089  0.00  0.00    +0.319 C 
ATOM     12  O   UNL     1       5.157  -1.503  24.908  0.00  0.00    -0.250 OA
BRANCH  11  13
ATOM     13  O   UNL     1       5.057   0.732  24.627  0.00  0.00    -0.480 OA
ATOM     14  H   UNL     1       5.482   1.581  24.874  0.00  0.00    +0.295 HD
ENDBRANCH  11  13
ENDBRANCH  10  11
ENDBRANCH   9  10
BRANCH   9  15
ATOM     15  C   UNL     1       8.012   2.033  25.607  0.00  0.00    +0.181 C 
BRANCH  15  16
ATOM     16  C   UNL     1       7.717   2.999  24.455  0.00  0.00    +0.227 C 
ATOM     17  N   UNL     1       8.516   4.114  24.402  0.00  0.00    -0.313 N 
ATOM     18  H   UNL     1       9.243   4.211  25.106  0.00  0.00    +0.149 HD
ATOM     19  O   UNL     1       6.861   2.751  23.611  0.00  0.00    -0.274 OA
BRANCH  17  20
ATOM     20  C   UNL     1       8.376   5.130  23.371  0.00  0.00    +0.114 C 
BRANCH  20  21
ATOM     21  C   UNL     1       9.294   6.329  23.601  0.00  0.00    +0.084 C 
BRANCH  21  22
ATOM     22  S   UNL     1      11.028   5.804  23.791  0.00  0.00    -0.177 S 
ATOM     23  H   UNL     1      11.463   6.327  22.635  0.00  0.00    +0.102 HD
ENDBRANCH  21  22
ENDBRANCH  20  21
ENDBRANCH  17  20
ENDBRANCH  15  16
ENDBRANCH   9  15
ENDBRANCH   8   9
ENDBRANCH   7   8
ENDBRANCH   1   7
BRANCH   1  24
ATOM     24  C   UNL     1       8.948  -2.020  22.371  0.00  0.00    +0.100 C 
BRANCH  24  25
ATOM     25  C   UNL     1       7.472  -2.515  22.393  0.00  0.00    +0.101 C 
BRANCH  25  26
ATOM     26  N   UNL     1       7.194  -3.735  23.219  0.00  0.00    -0.283 NA
BRANCH  26  27
ATOM     27  C   UNL     1       7.147  -4.938  22.315  0.00  0.00    +0.205 C 
BRANCH  27  28
ATOM     28  C   UNL     1       5.965  -5.840  22.644  0.00  0.00    +0.319 C 
ATOM     29  O   UNL     1       5.509  -6.010  23.764  0.00  0.00    -0.250 OA
BRANCH  28  30
ATOM     30  O   UNL     1       5.491  -6.487  21.546  0.00  0.00    -0.480 OA
ATOM     31  H   UNL     1       6.247  -6.952  21.128  0.00  0.00    +0.295 HD
ENDBRANCH  28  30
ENDBRANCH  27  28
ENDBRANCH  26  27
BRANCH  26  32
ATOM     32  C   UNL     1       8.362  -3.916  24.159  0.00  0.00    +0.181 C 
BRANCH  32  33
ATOM     33  C   UNL     1       7.945  -3.780  25.626  0.00  0.00    +0.227 C 
ATOM     34  N   UNL     1       6.626  -4.091  25.873  0.00  0.00    -0.313 N 
ATOM     35  H   UNL     1       6.003  -4.216  25.085  0.00  0.00    +0.149 HD
ATOM     36  O   UNL     1       8.728  -3.416  26.499  0.00  0.00    -0.274 OA
BRANCH  34  37
ATOM     37  C   UNL     1       6.046  -3.962  27.199  0.00  0.00    +0.114 C 
BRANCH  37  38
ATOM     38  C   UNL     1       6.130  -5.249  28.021  0.00  0.00    +0.084 C 
BRANCH  38  39
ATOM     39  S   UNL     1       5.073  -5.172  29.504  0.00  0.00    -0.177 S 
ATOM     40  H   UNL     1       4.832  -3.856  29.454  0.00  0.00    +0.102 HD
ENDBRANCH  38  39
ENDBRANCH  37  38
ENDBRANCH  34  37
ENDBRANCH  32  33
ENDBRANCH  26  32
ENDBRANCH  25  26
ENDBRANCH  24  25
ENDBRANCH   1  24
TORSDOF 25
ENDMDL
MODEL 4
REMARK VINA RESULT:      -5.0      3.310      7.771
REMARK  Name = 
REMARK  25 active torsions:
REMARK  status: ('A' for Active; 'I' for Inactive)
REMARK    1  A    between atoms: O_1  and  C_2
REMARK    2  A    between atoms: C_2  and  C_4
REMARK    3  A    between atoms: C_4  and  N_5
REMARK    4  A    between atoms: N_5  and  C_6
REMARK    5  A    between atoms: N_5  and  C_20
REMARK    6  A    between atoms: C_6  and  C_7
REMARK    7  A    between atoms: C_7  and  N_8
REMARK    8  A    between atoms: N_8  and  C_9
REMARK    9  A    between atoms: N_8  and  C_13
REMARK   10  A    between atoms: C_9  and  C_10
REMARK   11  A    between atoms: C_10  and  O_11
REMARK   12  A    between atoms: C_13  and  C_14
REMARK   13  A    between atoms: N_16  and  C_17
REMARK   14  A    between atoms: C_17  and  C_18
REMARK   15  A    between atoms: C_18  and  S_19
REMARK   16  A    between atoms: C_20  and  C_21
REMARK   17  A    between atoms: C_21  and  N_22
REMARK   18  A    between atoms: N_22  and  C_23
REMARK   19  A    between atoms: N_22  and  C_27
REMARK   20  A    between atoms: C_23  and  C_24
REMARK   21  A    between atoms: C_24  and  O_25
REMARK   22  A    between atoms: C_27  and  C_28
REMARK   23  A    between atoms: N_30  and  C_31
REMARK   24  A    between atoms: C_31  and  C_32
REMARK   25  A    between atoms: C_32  and  S_33
REMARK                            x       y       z     vdW  Elec       q    Type
REMARK                         _______ _______ _______ _____ _____    ______ ____
ROOT
ATOM      1  N   UNL     1       8.448  -0.495  25.299  0.00  0.00    -0.290 NA
ENDROOT
BRANCH   1   2
ATOM      2  C   UNL     1       7.494   0.636  25.593  0.00  0.00    +0.205 C 
BRANCH   2   3
ATOM      3  C   UNL     1       6.319   0.678  24.617  0.00  0.00    +0.319 C 
ATOM      4  O   UNL     1       6.388   1.081  23.467  0.00  0.00    -0.250 OA
BRANCH   3   5
ATOM      5  O   UNL     1       5.158   0.265  25.184  0.00  0.00    -0.480 OA
ATOM      6  H   UNL     1       4.837  -0.521  24.692  0.00  0.00    +0.295 HD
ENDBRANCH   3   5
ENDBRANCH   2   3
ENDBRANCH   1   2
BRANCH   1   7
ATOM      7  C   UNL     1       8.410  -1.451  26.455  0.00  0.00    +0.100 C 
BRANCH   7   8
ATOM      8  C   UNL     1       7.160  -2.359  26.624  0.00  0.00    +0.101 C 
BRANCH   8   9
ATOM      9  N   UNL     1       7.420  -3.814  26.387  0.00  0.00    -0.283 NA
BRANCH   9  10
ATOM     10  C   UNL     1       8.840  -4.187  26.647  0.00  0.00    +0.205 C 
BRANCH  10  11
ATOM     11  C   UNL     1       9.544  -4.853  25.473  0.00  0.00    +0.319 C 
ATOM     12  O   UNL     1       9.995  -4.228  24.523  0.00  0.00    -0.250 OA
BRANCH  11  13
ATOM     13  O   UNL     1       9.683  -6.191  25.589  0.00  0.00    -0.480 OA
ATOM     14  H   UNL     1      10.454  -6.594  25.137  0.00  0.00    +0.295 HD
ENDBRANCH  11  13
ENDBRANCH  10  11
ENDBRANCH   9  10
BRANCH   9  15
ATOM     15  C   UNL     1       6.468  -4.596  27.223  0.00  0.00    +0.181 C 
BRANCH  15  16
ATOM     16  C   UNL     1       5.729  -5.676  26.426  0.00  0.00    +0.227 C 
ATOM     17  N   UNL     1       5.289  -5.293  25.184  0.00  0.00    -0.313 N 
ATOM     18  H   UNL     1       5.493  -4.345  24.879  0.00  0.00    +0.149 HD
ATOM     19  O   UNL     1       5.599  -6.818  26.857  0.00  0.00    -0.274 OA
BRANCH  17  20
ATOM     20  C   UNL     1       4.575  -6.195  24.293  0.00  0.00    +0.114 C 
BRANCH  20  21
ATOM     21  C   UNL     1       3.499  -5.482  23.477  0.00  0.00    +0.084 C 
BRANCH  21  22
ATOM     22  S   UNL     1       2.121  -6.606  23.079  0.00  0.00    -0.177 S 
ATOM     23  H   UNL     1       2.177  -7.309  24.220  0.00  0.00    +0.102 HD
ENDBRANCH  21  22
ENDBRANCH  20  21
ENDBRANCH  17  20
ENDBRANCH  15  16
ENDBRANCH   9  15
ENDBRANCH   8   9
ENDBRANCH   7   8
ENDBRANCH   1   7
BRANCH   1  24
ATOM     24  C   UNL     1       9.841   0.067  25.211  0.00  0.00    +0.100 C 
BRANCH  24  25
ATOM     25  C   UNL     1      10.423   0.138  23.770  0.00  0.00    +0.101 C 
BRANCH  25  26
ATOM     26  N   UNL     1       9.532   0.739  22.724  0.00  0.00    -0.283 NA
BRANCH  26  27
ATOM     27  C   UNL     1      10.158   2.011  22.219  0.00  0.00    +0.205 C 
BRANCH  27  28
ATOM     28  C   UNL     1      10.042   3.136  23.239  0.00  0.00    +0.319 C 
ATOM     29  O   UNL     1       9.059   3.348  23.932  0.00  0.00    -0.250 OA
BRANCH  28  30
ATOM     30  O   UNL     1      11.150   3.923  23.263  0.00  0.00    -0.480 OA
ATOM     31  H   UNL     1      11.791   3.551  22.622  0.00  0.00    +0.295 HD
ENDBRANCH  28  30
ENDBRANCH  27  28
ENDBRANCH  26  27
BRANCH  26  32
ATOM     32  C   UNL     1       9.479  -0.233  21.568  0.00  0.00    +0.181 C 
BRANCH  32  33
ATOM     33  C   UNL     1       8.955  -1.607  21.998  0.00  0.00    +0.227 C 
ATOM     34  N   UNL     1       7.640  -1.611  22.409  0.00  0.00    -0.313 N 
ATOM     35  H   UNL     1       7.177  -0.724  22.558  0.00  0.00    +0.149 HD
ATOM     36  O   UNL     1       9.661  -2.612  21.981  0.00  0.00    -0.274 OA
BRANCH  34  37
ATOM     37  C   UNL     1       6.998  -2.817  22.905  0.00  0.00    +0.114 C 
BRANCH  37  38
ATOM     38  C   UNL     1       6.243  -3.586  21.820  0.00  0.00    +0.084 C 
BRANCH  38  39
ATOM     39  S   UNL     1       6.899  -5.273  21.607  0.00  0.00    -0.177 S 
ATOM     40  H   UNL     1       6.011  -5.885  22.402  0.00  0.00    +0.102 HD
ENDBRANCH  38  39
ENDBRANCH  37  38
ENDBRANCH  34  37
ENDBRANCH  32  33
ENDBRANCH  26  32
ENDBRANCH  25  26
ENDBRANCH  24  25
ENDBRANCH   1  24
TORSDOF 25
ENDMDL
MODEL 5
REMARK VINA RESULT:      -5.0      2.847      5.026
REMARK  Name = 
REMARK  25 active torsions:
REMARK  status: ('A' for Active; 'I' for Inactive)
REMARK    1  A    between atoms: O_1  and  C_2
REMARK    2  A    between atoms: C_2  and  C_4
REMARK    3  A    between atoms: C_4  and  N_5
REMARK    4  A    between atoms: N_5  and  C_6
REMARK    5  A    between atoms: N_5  and  C_20
REMARK    6  A    between atoms: C_6  and  C_7
REMARK    7  A    between atoms: C_7  and  N_8
REMARK    8  A    between atoms: N_8  and  C_9
REMARK    9  A    between atoms: N_8  and  C_13
REMARK   10  A    between atoms: C_9  and  C_10
REMARK   11  A    between atoms: C_10  and  O_11
REMARK   12  A    between atoms: C_13  and  C_14
REMARK   13  A    between atoms: N_16  and  C_17
REMARK   14  A    between atoms: C_17  and  C_18
REMARK   15  A    between atoms: C_18  and  S_19
REMARK   16  A    between atoms: C_20  and  C_21
REMARK   17  A    between atoms: C_21  and  N_22
REMARK   18  A    between atoms: N_22  and  C_23
REMARK   19  A    between atoms: N_22  and  C_27
REMARK   20  A    between atoms: C_23  and  C_24
REMARK   21  A    between atoms: C_24  and  O_25
REMARK   22  A    between atoms: C_27  and  C_28
REMARK   23  A    between atoms: N_30  and  C_31
REMARK   24  A    between atoms: C_31  and  C_32
REMARK   25  A    between atoms: C_32  and  S_33
REMARK                            x       y       z     vdW  Elec       q    Type
REMARK                         _______ _______ _______ _____ _____    ______ ____
ROOT
ATOM      1  N   UNL     1       7.603  -2.894  25.580  0.00  0.00    -0.290 NA
ENDROOT
BRANCH   1   2
ATOM      2  C   UNL     1       8.845  -3.402  26.268  0.00  0.00    +0.205 C 
BRANCH   2   3
ATOM      3  C   UNL     1       9.253  -4.793  25.786  0.00  0.00    +0.319 C 
ATOM      4  O   UNL     1      10.187  -5.020  25.034  0.00  0.00    -0.250 OA
BRANCH   3   5
ATOM      5  O   UNL     1       8.423  -5.765  26.243  0.00  0.00    -0.480 OA
ATOM      6  H   UNL     1       8.964  -6.436  26.712  0.00  0.00    +0.295 HD
ENDBRANCH   3   5
ENDBRANCH   2   3
ENDBRANCH   1   2
BRANCH   1   7
ATOM      7  C   UNL     1       8.021  -1.913  24.523  0.00  0.00    +0.100 C 
BRANCH   7   8
ATOM      8  C   UNL     1       7.227  -0.583  24.392  0.00  0.00    +0.101 C 
BRANCH   8   9
ATOM      9  N   UNL     1       8.044   0.576  23.914  0.00  0.00    -0.283 NA
BRANCH   9  10
ATOM     10  C   UNL     1       7.876   0.825  22.453  0.00  0.00    +0.205 C 
BRANCH  10  11
ATOM     11  C   UNL     1       9.167   0.762  21.649  0.00  0.00    +0.319 C 
ATOM     12  O   UNL     1       9.648  -0.286  21.239  0.00  0.00    -0.250 OA
BRANCH  11  13
ATOM     13  O   UNL     1       9.715   1.965  21.372  0.00  0.00    -0.480 OA
ATOM     14  H   UNL     1       9.279   2.496  20.672  0.00  0.00    +0.295 HD
ENDBRANCH  11  13
ENDBRANCH  10  11
ENDBRANCH   9  10
BRANCH   9  15
ATOM     15  C   UNL     1       7.684   1.765  24.735  0.00  0.00    +0.181 C 
BRANCH  15  16
ATOM     16  C   UNL     1       8.737   2.876  24.662  0.00  0.00    +0.227 C 
ATOM     17  N   UNL     1       8.280   4.139  24.943  0.00  0.00    -0.313 N 
ATOM     18  H   UNL     1       7.300   4.245  25.191  0.00  0.00    +0.149 HD
ATOM     19  O   UNL     1       9.915   2.630  24.424  0.00  0.00    -0.274 OA
BRANCH  17  20
ATOM     20  C   UNL     1       9.147   5.308  24.925  0.00  0.00    +0.114 C 
BRANCH  20  21
ATOM     21  C   UNL     1       9.235   5.950  23.543  0.00  0.00    +0.084 C 
BRANCH  21  22
ATOM     22  S   UNL     1       7.603   5.999  22.734  0.00  0.00    -0.177 S 
ATOM     23  H   UNL     1       7.948   6.868  21.772  0.00  0.00    +0.102 HD
ENDBRANCH  21  22
ENDBRANCH  20  21
ENDBRANCH  17  20
ENDBRANCH  15  16
ENDBRANCH   9  15
ENDBRANCH   8   9
ENDBRANCH   7   8
ENDBRANCH   1   7
BRANCH   1  24
ATOM     24  C   UNL     1       6.767  -2.155  26.589  0.00  0.00    +0.100 C 
BRANCH  24  25
ATOM     25  C   UNL     1       5.529  -2.942  27.108  0.00  0.00    +0.101 C 
BRANCH  25  26
ATOM     26  N   UNL     1       5.642  -4.437  27.098  0.00  0.00    -0.283 NA
BRANCH  26  27
ATOM     27  C   UNL     1       5.345  -4.960  28.478  0.00  0.00    +0.205 C 
BRANCH  27  28
ATOM     28  C   UNL     1       5.851  -6.385  28.658  0.00  0.00    +0.319 C 
ATOM     29  O   UNL     1       5.144  -7.348  28.916  0.00  0.00    -0.250 OA
BRANCH  28  30
ATOM     30  O   UNL     1       7.203  -6.468  28.546  0.00  0.00    -0.480 OA
ATOM     31  H   UNL     1       7.402  -7.066  27.796  0.00  0.00    +0.295 HD
ENDBRANCH  28  30
ENDBRANCH  27  28
ENDBRANCH  26  27
BRANCH  26  32
ATOM     32  C   UNL     1       4.569  -4.961  26.172  0.00  0.00    +0.181 C 
BRANCH  32  33
ATOM     33  C   UNL     1       5.157  -5.783  25.021  0.00  0.00    +0.227 C 
ATOM     34  N   UNL     1       6.032  -5.088  24.214  0.00  0.00    -0.313 N 
ATOM     35  H   UNL     1       6.095  -4.084  24.322  0.00  0.00    +0.149 HD
ATOM     36  O   UNL     1       4.861  -6.960  24.838  0.00  0.00    -0.274 OA
BRANCH  34  37
ATOM     37  C   UNL     1       6.638  -5.696  23.042  0.00  0.00    +0.114 C 
BRANCH  37  38
ATOM     38  C   UNL     1       6.557  -4.814  21.796  0.00  0.00    +0.084 C 
BRANCH  38  39
ATOM     39  S   UNL     1       5.654  -3.264  22.125  0.00  0.00    -0.177 S 
ATOM     40  H   UNL     1       6.228  -2.999  23.306  0.00  0.00    +0.102 HD
ENDBRANCH  38  39
ENDBRANCH  37  38
ENDBRANCH  34  37
ENDBRANCH  32  33
ENDBRANCH  26  32
ENDBRANCH  25  26
ENDBRANCH  24  25
ENDBRANCH   1  24
TORSDOF 25
ENDMDL
MODEL 6
REMARK VINA RESULT:      -5.0      3.009      4.439
REMARK  Name = 
REMARK  25 active torsions:
REMARK  status: ('A' for Active; 'I' for Inactive)
REMARK    1  A    between atoms: O_1  and  C_2
REMARK    2  A    between atoms: C_2  and  C_4
REMARK    3  A    between atoms: C_4  and  N_5
REMARK    4  A    between atoms: N_5  and  C_6
REMARK    5  A    between atoms: N_5  and  C_20
REMARK    6  A    between atoms: C_6  and  C_7
REMARK    7  A    between atoms: C_7  and  N_8
REMARK    8  A    between atoms: N_8  and  C_9
REMARK    9  A    between atoms: N_8  and  C_13
REMARK   10  A    between atoms: C_9  and  C_10
REMARK   11  A    between atoms: C_10  and  O_11
REMARK   12  A    between atoms: C_13  and  C_14
REMARK   13  A    between atoms: N_16  and  C_17
REMARK   14  A    between atoms: C_17  and  C_18
REMARK   15  A    between atoms: C_18  and  S_19
REMARK   16  A    between atoms: C_20  and  C_21
REMARK   17  A    between atoms: C_21  and  N_22
REMARK   18  A    between atoms: N_22  and  C_23
REMARK   19  A    between atoms: N_22  and  C_27
REMARK   20  A    between atoms: C_23  and  C_24
REMARK   21  A    between atoms: C_24  and  O_25
REMARK   22  A    between atoms: C_27  and  C_28
REMARK   23  A    between atoms: N_30  and  C_31
REMARK   24  A    between atoms: C_31  and  C_32
REMARK   25  A    between atoms: C_32  and  S_33
REMARK                            x       y       z     vdW  Elec       q    Type
REMARK                         _______ _______ _______ _____ _____    ______ ____
ROOT
ATOM      1  N   UNL     1       8.838  -0.627  24.768  0.00  0.00    -0.290 NA
ENDROOT
BRANCH   1   2
ATOM      2  C   UNL     1       9.913  -1.230  23.897  0.00  0.00    +0.205 C 
BRANCH   2   3
ATOM      3  C   UNL     1       9.361  -1.770  22.578  0.00  0.00    +0.319 C 
ATOM      4  O   UNL     1       8.312  -2.384  22.466  0.00  0.00    -0.250 OA
BRANCH   3   5
ATOM      5  O   UNL     1      10.196  -1.541  21.533  0.00  0.00    -0.480 OA
ATOM      6  H   UNL     1       9.659  -1.501  20.713  0.00  0.00    +0.295 HD
ENDBRANCH   3   5
ENDBRANCH   2   3
ENDBRANCH   1   2
BRANCH   1   7
ATOM      7  C   UNL     1       9.188   0.812  25.014  0.00  0.00    +0.100 C 
BRANCH   7   8
ATOM      8  C   UNL     1      10.486   1.378  24.373  0.00  0.00    +0.101 C 
BRANCH   8   9
ATOM      9  N   UNL     1      10.273   2.591  23.522  0.00  0.00    -0.283 NA
BRANCH   9  10
ATOM     10  C   UNL     1      11.528   3.373  23.324  0.00  0.00    +0.205 C 
BRANCH  10  11
ATOM     11  C   UNL     1      11.397   4.862  23.610  0.00  0.00    +0.319 C 
ATOM     12  O   UNL     1      10.320   5.438  23.672  0.00  0.00    -0.250 OA
BRANCH  11  13
ATOM     13  O   UNL     1      12.568   5.492  23.847  0.00  0.00    -0.480 OA
ATOM     14  H   UNL     1      12.593   6.455  23.667  0.00  0.00    +0.295 HD
ENDBRANCH  11  13
ENDBRANCH  10  11
ENDBRANCH   9  10
BRANCH   9  15
ATOM     15  C   UNL     1       9.670   2.152  22.233  0.00  0.00    +0.181 C 
BRANCH  15  16
ATOM     16  C   UNL     1       8.243   2.674  22.039  0.00  0.00    +0.227 C 
ATOM     17  N   UNL     1       8.046   3.990  22.377  0.00  0.00    -0.313 N 
ATOM     18  H   UNL     1       8.848   4.519  22.709  0.00  0.00    +0.149 HD
ATOM     19  O   UNL     1       7.360   1.969  21.560  0.00  0.00    -0.274 OA
BRANCH  17  20
ATOM     20  C   UNL     1       6.755   4.647  22.250  0.00  0.00    +0.114 C 
BRANCH  20  21
ATOM     21  C   UNL     1       6.241   5.191  23.580  0.00  0.00    +0.084 C 
BRANCH  21  22
ATOM     22  S   UNL     1       5.514   6.850  23.377  0.00  0.00    -0.177 S 
ATOM     23  H   UNL     1       4.497   6.665  24.231  0.00  0.00    +0.102 HD
ENDBRANCH  21  22
ENDBRANCH  20  21
ENDBRANCH  17  20
ENDBRANCH  15  16
ENDBRANCH   9  15
ENDBRANCH   8   9
ENDBRANCH   7   8
ENDBRANCH   1   7
BRANCH   1  24
ATOM     24  C   UNL     1       8.846  -1.336  26.094  0.00  0.00    +0.100 C 
BRANCH  24  25
ATOM     25  C   UNL     1       7.533  -2.102  26.428  0.00  0.00    +0.101 C 
BRANCH  25  26
ATOM     26  N   UNL     1       7.455  -3.523  25.956  0.00  0.00    -0.283 NA
BRANCH  26  27
ATOM     27  C   UNL     1       8.733  -4.230  26.318  0.00  0.00    +0.205 C 
BRANCH  27  28
ATOM     28  C   UNL     1       9.307  -4.993  25.131  0.00  0.00    +0.319 C 
ATOM     29  O   UNL     1       8.721  -5.183  24.076  0.00  0.00    -0.250 OA
BRANCH  28  30
ATOM     30  O   UNL     1      10.545  -5.492  25.391  0.00  0.00    -0.480 OA
ATOM     31  H   UNL     1      10.676  -6.273  24.814  0.00  0.00    +0.295 HD
ENDBRANCH  28  30
ENDBRANCH  27  28
ENDBRANCH  26  27
BRANCH  26  32
ATOM     32  C   UNL     1       6.334  -4.188  26.720  0.00  0.00    +0.181 C 
BRANCH  32  33
ATOM     33  C   UNL     1       5.840  -5.460  26.023  0.00  0.00    +0.227 C 
ATOM     34  N   UNL     1       5.501  -5.288  24.699  0.00  0.00    -0.313 N 
ATOM     35  H   UNL     1       5.436  -4.346  24.335  0.00  0.00    +0.149 HD
ATOM     36  O   UNL     1       5.753  -6.535  26.609  0.00  0.00    -0.274 OA
BRANCH  34  37
ATOM     37  C   UNL     1       4.960  -6.375  23.902  0.00  0.00    +0.114 C 
BRANCH  37  38
ATOM     38  C   UNL     1       3.658  -6.009  23.189  0.00  0.00    +0.084 C 
BRANCH  38  39
ATOM     39  S   UNL     1       2.621  -4.904  24.204  0.00  0.00    -0.177 S 
ATOM     40  H   UNL     1       1.444  -5.284  23.691  0.00  0.00    +0.102 HD
ENDBRANCH  38  39
ENDBRANCH  37  38
ENDBRANCH  34  37
ENDBRANCH  32  33
ENDBRANCH  26  32
ENDBRANCH  25  26
ENDBRANCH  24  25
ENDBRANCH   1  24
TORSDOF 25
ENDMDL
MODEL 7
REMARK VINA RESULT:      -5.0      2.371      8.645
REMARK  Name = 
REMARK  25 active torsions:
REMARK  status: ('A' for Active; 'I' for Inactive)
REMARK    1  A    between atoms: O_1  and  C_2
REMARK    2  A    between atoms: C_2  and  C_4
REMARK    3  A    between atoms: C_4  and  N_5
REMARK    4  A    between atoms: N_5  and  C_6
REMARK    5  A    between atoms: N_5  and  C_20
REMARK    6  A    between atoms: C_6  and  C_7
REMARK    7  A    between atoms: C_7  and  N_8
REMARK    8  A    between atoms: N_8  and  C_9
REMARK    9  A    between atoms: N_8  and  C_13
REMARK   10  A    between atoms: C_9  and  C_10
REMARK   11  A    between atoms: C_10  and  O_11
REMARK   12  A    between atoms: C_13  and  C_14
REMARK   13  A    between atoms: N_16  and  C_17
REMARK   14  A    between atoms: C_17  and  C_18
REMARK   15  A    between atoms: C_18  and  S_19
REMARK   16  A    between atoms: C_20  and  C_21
REMARK   17  A    between atoms: C_21  and  N_22
REMARK   18  A    between atoms: N_22  and  C_23
REMARK   19  A    between atoms: N_22  and  C_27
REMARK   20  A    between atoms: C_23  and  C_24
REMARK   21  A    between atoms: C_24  and  O_25
REMARK   22  A    between atoms: C_27  and  C_28
REMARK   23  A    between atoms: N_30  and  C_31
REMARK   24  A    between atoms: C_31  and  C_32
REMARK   25  A    between atoms: C_32  and  S_33
REMARK                            x       y       z     vdW  Elec       q    Type
REMARK                         _______ _______ _______ _____ _____    ______ ____
ROOT
ATOM      1  N   UNL     1       7.814  -1.876  22.645  0.00  0.00    -0.290 NA
ENDROOT
BRANCH   1   2
ATOM      2  C   UNL     1       7.902  -1.683  24.139  0.00  0.00    +0.205 C 
BRANCH   2   3
ATOM      3  C   UNL     1       6.669  -0.987  24.713  0.00  0.00    +0.319 C 
ATOM      4  O   UNL     1       5.741  -1.562  25.260  0.00  0.00    -0.250 OA
BRANCH   3   5
ATOM      5  O   UNL     1       6.683   0.353  24.501  0.00  0.00    -0.480 OA
ATOM      6  H   UNL     1       7.586   0.686  24.693  0.00  0.00    +0.295 HD
ENDBRANCH   3   5
ENDBRANCH   2   3
ENDBRANCH   1   2
BRANCH   1   7
ATOM      7  C   UNL     1       7.564  -3.331  22.375  0.00  0.00    +0.100 C 
BRANCH   7   8
ATOM      8  C   UNL     1       6.102  -3.855  22.432  0.00  0.00    +0.101 C 
BRANCH   8   9
ATOM      9  N   UNL     1       5.831  -4.804  23.557  0.00  0.00    -0.283 NA
BRANCH   9  10
ATOM     10  C   UNL     1       5.073  -6.009  23.113  0.00  0.00    +0.205 C 
BRANCH  10  11
ATOM     11  C   UNL     1       4.101  -6.560  24.147  0.00  0.00    +0.319 C 
ATOM     12  O   UNL     1       3.596  -5.871  25.022  0.00  0.00    -0.250 OA
BRANCH  11  13
ATOM     13  O   UNL     1       3.794  -7.865  23.987  0.00  0.00    -0.480 OA
ATOM     14  H   UNL     1       3.013  -8.068  23.430  0.00  0.00    +0.295 HD
ENDBRANCH  11  13
ENDBRANCH  10  11
ENDBRANCH   9  10
BRANCH   9  15
ATOM     15  C   UNL     1       7.133  -5.155  24.189  0.00  0.00    +0.181 C 
BRANCH  15  16
ATOM     16  C   UNL     1       7.076  -5.124  25.719  0.00  0.00    +0.227 C 
ATOM     17  N   UNL     1       6.060  -4.373  26.255  0.00  0.00    -0.313 N 
ATOM     18  H   UNL     1       5.420  -3.913  25.613  0.00  0.00    +0.149 HD
ATOM     19  O   UNL     1       7.856  -5.778  26.405  0.00  0.00    -0.274 OA
BRANCH  17  20
ATOM     20  C   UNL     1       5.857  -4.239  27.689  0.00  0.00    +0.114 C 
BRANCH  20  21
ATOM     21  C   UNL     1       4.625  -4.996  28.180  0.00  0.00    +0.084 C 
BRANCH  21  22
ATOM     22  S   UNL     1       4.999  -6.759  28.447  0.00  0.00    -0.177 S 
ATOM     23  H   UNL     1       5.344  -7.026  27.179  0.00  0.00    +0.102 HD
ENDBRANCH  21  22
ENDBRANCH  20  21
ENDBRANCH  17  20
ENDBRANCH  15  16
ENDBRANCH   9  15
ENDBRANCH   8   9
ENDBRANCH   7   8
ENDBRANCH   1   7
BRANCH   1  24
ATOM     24  C   UNL     1       9.142  -1.516  22.038  0.00  0.00    +0.100 C 
BRANCH  24  25
ATOM     25  C   UNL     1       9.229  -0.066  21.479  0.00  0.00    +0.101 C 
BRANCH  25  26
ATOM     26  N   UNL     1       8.726   1.023  22.379  0.00  0.00    -0.283 NA
BRANCH  26  27
ATOM     27  C   UNL     1       9.903   1.752  22.970  0.00  0.00    +0.205 C 
BRANCH  27  28
ATOM     28  C   UNL     1      10.197   1.283  24.389  0.00  0.00    +0.319 C 
ATOM     29  O   UNL     1      11.185   0.645  24.721  0.00  0.00    -0.250 OA
BRANCH  28  30
ATOM     30  O   UNL     1       9.203   1.614  25.255  0.00  0.00    -0.480 OA
ATOM     31  H   UNL     1       8.632   2.275  24.811  0.00  0.00    +0.295 HD
ENDBRANCH  28  30
ENDBRANCH  27  28
ENDBRANCH  26  27
BRANCH  26  32
ATOM     32  C   UNL     1       7.969   2.005  21.515  0.00  0.00    +0.181 C 
BRANCH  32  33
ATOM     33  C   UNL     1       7.393   3.164  22.333  0.00  0.00    +0.227 C 
ATOM     34  N   UNL     1       7.486   4.394  21.720  0.00  0.00    -0.313 N 
ATOM     35  H   UNL     1       8.055   4.478  20.888  0.00  0.00    +0.149 HD
ATOM     36  O   UNL     1       6.899   2.999  23.445  0.00  0.00    -0.274 OA
BRANCH  34  37
ATOM     37  C   UNL     1       7.042   5.611  22.379  0.00  0.00    +0.114 C 
BRANCH  37  38
ATOM     38  C   UNL     1       8.196   6.467  22.902  0.00  0.00    +0.084 C 
BRANCH  38  39
ATOM     39  S   UNL     1       8.409   6.282  24.703  0.00  0.00    -0.177 S 
ATOM     40  H   UNL     1       7.344   7.011  25.061  0.00  0.00    +0.102 HD
ENDBRANCH  38  39
ENDBRANCH  37  38
ENDBRANCH  34  37
ENDBRANCH  32  33
ENDBRANCH  26  32
ENDBRANCH  25  26
ENDBRANCH  24  25
ENDBRANCH   1  24
TORSDOF 25
ENDMDL
MODEL 8
REMARK VINA RESULT:      -4.9      2.846      8.412
REMARK  Name = 
REMARK  25 active torsions:
REMARK  status: ('A' for Active; 'I' for Inactive)
REMARK    1  A    between atoms: O_1  and  C_2
REMARK    2  A    between atoms: C_2  and  C_4
REMARK    3  A    between atoms: C_4  and  N_5
REMARK    4  A    between atoms: N_5  and  C_6
REMARK    5  A    between atoms: N_5  and  C_20
REMARK    6  A    between atoms: C_6  and  C_7
REMARK    7  A    between atoms: C_7  and  N_8
REMARK    8  A    between atoms: N_8  and  C_9
REMARK    9  A    between atoms: N_8  and  C_13
REMARK   10  A    between atoms: C_9  and  C_10
REMARK   11  A    between atoms: C_10  and  O_11
REMARK   12  A    between atoms: C_13  and  C_14
REMARK   13  A    between atoms: N_16  and  C_17
REMARK   14  A    between atoms: C_17  and  C_18
REMARK   15  A    between atoms: C_18  and  S_19
REMARK   16  A    between atoms: C_20  and  C_21
REMARK   17  A    between atoms: C_21  and  N_22
REMARK   18  A    between atoms: N_22  and  C_23
REMARK   19  A    between atoms: N_22  and  C_27
REMARK   20  A    between atoms: C_23  and  C_24
REMARK   21  A    between atoms: C_24  and  O_25
REMARK   22  A    between atoms: C_27  and  C_28
REMARK   23  A    between atoms: N_30  and  C_31
REMARK   24  A    between atoms: C_31  and  C_32
REMARK   25  A    between atoms: C_32  and  S_33
REMARK                            x       y       z     vdW  Elec       q    Type
REMARK                         _______ _______ _______ _____ _____    ______ ____
ROOT
ATOM      1  N   UNL     1       6.499  -4.592  26.211  0.00  0.00    -0.290 NA
ENDROOT
BRANCH   1   2
ATOM      2  C   UNL     1       6.430  -5.527  27.393  0.00  0.00    +0.205 C 
BRANCH   2   3
ATOM      3  C   UNL     1       5.319  -6.566  27.251  0.00  0.00    +0.319 C 
ATOM      4  O   UNL     1       4.448  -6.537  26.395  0.00  0.00    -0.250 OA
BRANCH   3   5
ATOM      5  O   UNL     1       5.365  -7.513  28.222  0.00  0.00    -0.480 OA
ATOM      6  H   UNL     1       4.461  -7.624  28.587  0.00  0.00    +0.295 HD
ENDBRANCH   3   5
ENDBRANCH   2   3
ENDBRANCH   1   2
BRANCH   1   7
ATOM      7  C   UNL     1       7.667  -4.999  25.360  0.00  0.00    +0.100 C 
BRANCH   7   8
ATOM      8  C   UNL     1       7.408  -5.350  23.868  0.00  0.00    +0.101 C 
BRANCH   8   9
ATOM      9  N   UNL     1       6.350  -4.518  23.215  0.00  0.00    -0.283 NA
BRANCH   9  10
ATOM     10  C   UNL     1       6.867  -3.761  22.039  0.00  0.00    +0.205 C 
BRANCH  10  11
ATOM     11  C   UNL     1       7.604  -2.476  22.388  0.00  0.00    +0.319 C 
ATOM     12  O   UNL     1       8.820  -2.363  22.320  0.00  0.00    -0.250 OA
BRANCH  11  13
ATOM     13  O   UNL     1       6.801  -1.445  22.728  0.00  0.00    -0.480 OA
ATOM     14  H   UNL     1       5.934  -1.675  23.123  0.00  0.00    +0.295 HD
ENDBRANCH  11  13
ENDBRANCH  10  11
ENDBRANCH   9  10
BRANCH   9  15
ATOM     15  C   UNL     1       5.214  -5.412  22.856  0.00  0.00    +0.181 C 
BRANCH  15  16
ATOM     16  C   UNL     1       3.878  -4.931  23.431  0.00  0.00    +0.227 C 
ATOM     17  N   UNL     1       3.969  -4.125  24.538  0.00  0.00    -0.313 N 
ATOM     18  H   UNL     1       4.898  -3.895  24.882  0.00  0.00    +0.149 HD
ATOM     19  O   UNL     1       2.810  -5.208  22.894  0.00  0.00    -0.274 OA
BRANCH  17  20
ATOM     20  C   UNL     1       2.800  -3.576  25.207  0.00  0.00    +0.114 C 
BRANCH  20  21
ATOM     21  C   UNL     1       3.057  -3.269  26.680  0.00  0.00    +0.084 C 
BRANCH  21  22
ATOM     22  S   UNL     1       1.829  -4.088  27.748  0.00  0.00    -0.177 S 
ATOM     23  H   UNL     1       1.635  -5.150  26.953  0.00  0.00    +0.102 HD
ENDBRANCH  21  22
ENDBRANCH  20  21
ENDBRANCH  17  20
ENDBRANCH  15  16
ENDBRANCH   9  15
ENDBRANCH   8   9
ENDBRANCH   7   8
ENDBRANCH   1   7
BRANCH   1  24
ATOM     24  C   UNL     1       6.764  -3.201  26.719  0.00  0.00    +0.100 C 
BRANCH  24  25
ATOM     25  C   UNL     1       7.914  -2.450  25.988  0.00  0.00    +0.101 C 
BRANCH  25  26
ATOM     26  N   UNL     1       7.660  -1.011  25.652  0.00  0.00    -0.283 NA
BRANCH  26  27
ATOM     27  C   UNL     1       6.518  -0.506  26.494  0.00  0.00    +0.205 C 
BRANCH  27  28
ATOM     28  C   UNL     1       5.380   0.024  25.633  0.00  0.00    +0.319 C 
ATOM     29  O   UNL     1       4.206   0.052  25.970  0.00  0.00    -0.250 OA
BRANCH  28  30
ATOM     30  O   UNL     1       5.808   0.427  24.407  0.00  0.00    -0.480 OA
ATOM     31  H   UNL     1       6.711   0.793  24.515  0.00  0.00    +0.295 HD
ENDBRANCH  28  30
ENDBRANCH  27  28
ENDBRANCH  26  27
BRANCH  26  32
ATOM     32  C   UNL     1       8.895  -0.234  26.046  0.00  0.00    +0.181 C 
BRANCH  32  33
ATOM     33  C   UNL     1       9.637   0.320  24.826  0.00  0.00    +0.227 C 
ATOM     34  N   UNL     1       8.832   0.570  23.736  0.00  0.00    -0.313 N 
ATOM     35  H   UNL     1       7.881   0.228  23.749  0.00  0.00    +0.149 HD
ATOM     36  O   UNL     1      10.849   0.514  24.830  0.00  0.00    -0.274 OA
BRANCH  34  37
ATOM     37  C   UNL     1       9.379   1.044  22.476  0.00  0.00    +0.114 C 
BRANCH  37  38
ATOM     38  C   UNL     1       8.316   1.613  21.536  0.00  0.00    +0.084 C 
BRANCH  38  39
ATOM     39  S   UNL     1       7.385   2.973  22.315  0.00  0.00    -0.177 S 
ATOM     40  H   UNL     1       8.344   3.901  22.201  0.00  0.00    +0.102 HD
ENDBRANCH  38  39
ENDBRANCH  37  38
ENDBRANCH  34  37
ENDBRANCH  32  33
ENDBRANCH  26  32
ENDBRANCH  25  26
ENDBRANCH  24  25
ENDBRANCH   1  24
TORSDOF 25
ENDMDL
MODEL 9
REMARK VINA RESULT:      -4.9      2.678      7.453
REMARK  Name = 
REMARK  25 active torsions:
REMARK  status: ('A' for Active; 'I' for Inactive)
REMARK    1  A    between atoms: O_1  and  C_2
REMARK    2  A    between atoms: C_2  and  C_4
REMARK    3  A    between atoms: C_4  and  N_5
REMARK    4  A    between atoms: N_5  and  C_6
REMARK    5  A    between atoms: N_5  and  C_20
REMARK    6  A    between atoms: C_6  and  C_7
REMARK    7  A    between atoms: C_7  and  N_8
REMARK    8  A    between atoms: N_8  and  C_9
REMARK    9  A    between atoms: N_8  and  C_13
REMARK   10  A    between atoms: C_9  and  C_10
REMARK   11  A    between atoms: C_10  and  O_11
REMARK   12  A    between atoms: C_13  and  C_14
REMARK   13  A    between atoms: N_16  and  C_17
REMARK   14  A    between atoms: C_17  and  C_18
REMARK   15  A    between atoms: C_18  and  S_19
REMARK   16  A    between atoms: C_20  and  C_21
REMARK   17  A    between atoms: C_21  and  N_22
REMARK   18  A    between atoms: N_22  and  C_23
REMARK   19  A    between atoms: N_22  and  C_27
REMARK   20  A    between atoms: C_23  and  C_24
REMARK   21  A    between atoms: C_24  and  O_25
REMARK   22  A    between atoms: C_27  and  C_28
REMARK   23  A    between atoms: N_30  and  C_31
REMARK   24  A    between atoms: C_31  and  C_32
REMARK   25  A    between atoms: C_32  and  S_33
REMARK                            x       y       z     vdW  Elec       q    Type
REMARK                         _______ _______ _______ _____ _____    ______ ____
ROOT
ATOM      1  N   UNL     1       8.707  -0.357  23.009  0.00  0.00    -0.290 NA
ENDROOT
BRANCH   1   2
ATOM      2  C   UNL     1      10.004  -0.624  23.733  0.00  0.00    +0.205 C 
BRANCH   2   3
ATOM      3  C   UNL     1      10.555   0.624  24.422  0.00  0.00    +0.319 C 
ATOM      4  O   UNL     1      11.723   0.978  24.381  0.00  0.00    -0.250 OA
BRANCH   3   5
ATOM      5  O   UNL     1       9.611   1.282  25.140  0.00  0.00    -0.480 OA
ATOM      6  H   UNL     1       9.721   1.043  26.085  0.00  0.00    +0.295 HD
ENDBRANCH   3   5
ENDBRANCH   2   3
ENDBRANCH   1   2
BRANCH   1   7
ATOM      7  C   UNL     1       8.127  -1.677  22.588  0.00  0.00    +0.100 C 
BRANCH   7   8
ATOM      8  C   UNL     1       6.710  -2.059  23.099  0.00  0.00    +0.101 C 
BRANCH   8   9
ATOM      9  N   UNL     1       6.500  -3.528  23.290  0.00  0.00    -0.283 NA
BRANCH   9  10
ATOM     10  C   UNL     1       5.481  -4.083  22.353  0.00  0.00    +0.205 C 
BRANCH  10  11
ATOM     11  C   UNL     1       5.723  -5.528  21.940  0.00  0.00    +0.319 C 
ATOM     12  O   UNL     1       6.201  -5.843  20.859  0.00  0.00    -0.250 OA
BRANCH  11  13
ATOM     13  O   UNL     1       5.420  -6.441  22.888  0.00  0.00    -0.480 OA
ATOM     14  H   UNL     1       4.497  -6.771  22.901  0.00  0.00    +0.295 HD
ENDBRANCH  11  13
ENDBRANCH  10  11
ENDBRANCH   9  10
BRANCH   9  15
ATOM     15  C   UNL     1       7.820  -4.205  23.155  0.00  0.00    +0.181 C 
BRANCH  15  16
ATOM     16  C   UNL     1       8.331  -4.775  24.482  0.00  0.00    +0.227 C 
ATOM     17  N   UNL     1       7.426  -4.769  25.514  0.00  0.00    -0.313 N 
ATOM     18  H   UNL     1       6.493  -4.410  25.324  0.00  0.00    +0.149 HD
ATOM     19  O   UNL     1       9.457  -5.253  24.586  0.00  0.00    -0.274 OA
BRANCH  17  20
ATOM     20  C   UNL     1       7.743  -5.278  26.839  0.00  0.00    +0.114 C 
BRANCH  20  21
ATOM     21  C   UNL     1       6.497  -5.648  27.639  0.00  0.00    +0.084 C 
BRANCH  21  22
ATOM     22  S   UNL     1       5.158  -6.223  26.544  0.00  0.00    -0.177 S 
ATOM     23  H   UNL     1       4.154  -5.688  27.254  0.00  0.00    +0.102 HD
ENDBRANCH  21  22
ENDBRANCH  20  21
ENDBRANCH  17  20
ENDBRANCH  15  16
ENDBRANCH   9  15
ENDBRANCH   8   9
ENDBRANCH   7   8
ENDBRANCH   1   7
BRANCH   1  24
ATOM     24  C   UNL     1       9.009   0.431  21.764  0.00  0.00    +0.100 C 
BRANCH  24  25
ATOM     25  C   UNL     1       8.139   1.707  21.577  0.00  0.00    +0.101 C 
BRANCH  25  26
ATOM     26  N   UNL     1       7.674   2.384  22.832  0.00  0.00    -0.283 NA
BRANCH  26  27
ATOM     27  C   UNL     1       7.978   3.855  22.737  0.00  0.00    +0.205 C 
BRANCH  27  28
ATOM     28  C   UNL     1       8.835   4.326  23.904  0.00  0.00    +0.319 C 
ATOM     29  O   UNL     1       8.646   4.026  25.073  0.00  0.00    -0.250 OA
BRANCH  28  30
ATOM     30  O   UNL     1       9.824   5.171  23.507  0.00  0.00    -0.480 OA
ATOM     31  H   UNL     1       9.408   5.886  22.981  0.00  0.00    +0.295 HD
ENDBRANCH  28  30
ENDBRANCH  27  28
ENDBRANCH  26  27
BRANCH  26  32
ATOM     32  C   UNL     1       6.172   2.231  22.893  0.00  0.00    +0.181 C 
BRANCH  32  33
ATOM     33  C   UNL     1       5.698   1.774  24.276  0.00  0.00    +0.227 C 
ATOM     34  N   UNL     1       6.706   1.335  25.106  0.00  0.00    -0.313 N 
ATOM     35  H   UNL     1       7.626   1.187  24.713  0.00  0.00    +0.149 HD
ATOM     36  O   UNL     1       4.515   1.794  24.602  0.00  0.00    -0.274 OA
BRANCH  34  37
ATOM     37  C   UNL     1       6.429   0.811  26.433  0.00  0.00    +0.114 C 
BRANCH  37  38
ATOM     38  C   UNL     1       6.393  -0.717  26.481  0.00  0.00    +0.084 C 
BRANCH  38  39
ATOM     39  S   UNL     1       8.055  -1.423  26.728  0.00  0.00    -0.177 S 
ATOM     40  H   UNL     1       8.740  -0.381  26.239  0.00  0.00    +0.102 HD
ENDBRANCH  38  39
ENDBRANCH  37  38
ENDBRANCH  34  37
ENDBRANCH  32  33
ENDBRANCH  26  32
ENDBRANCH  25  26
ENDBRANCH  24  25
ENDBRANCH   1  24
TORSDOF 25
ENDMDL
