MODEL 1
REMARK VINA RESULT:      -5.8      0.000      0.000
REMARK  Name = 
REMARK  33 active torsions:
REMARK  status: ('A' for Active; 'I' for Inactive)
REMARK    1  A    between atoms: C_1  and  C_2
REMARK    2  A    between atoms: C_2  and  C_3
REMARK    3  A    between atoms: C_4  and  C_5
REMARK    4  A    between atoms: C_5  and  C_6
REMARK    5  A    between atoms: C_6  and  C_7
REMARK    6  A    between atoms: C_7  and  C_8
REMARK    7  A    between atoms: C_9  and  C_10
REMARK    8  A    between atoms: C_10  and  C_11
REMARK    9  A    between atoms: C_11  and  C_12
REMARK   10  A    between atoms: C_12  and  C_13
REMARK   11  A    between atoms: C_14  and  C_15
REMARK   12  A    between atoms: C_15  and  C_16
REMARK   13  A    between atoms: C_16  and  C_17
REMARK   14  A    between atoms: C_17  and  C_18
REMARK   15  A    between atoms: C_19  and  C_20
REMARK   16  A    between atoms: C_20  and  C_21
REMARK   17  A    between atoms: C_21  and  C_22
REMARK   18  A    between atoms: C_22  and  C_23
REMARK   19  A    between atoms: C_24  and  C_25
REMARK   20  A    between atoms: C_25  and  C_26
REMARK   21  A    between atoms: C_26  and  C_27
REMARK   22  A    between atoms: C_27  and  C_28
REMARK   23  A    between atoms: C_29  and  C_30
REMARK   24  A    between atoms: C_30  and  C_31
REMARK   25  A    between atoms: C_31  and  C_32
REMARK   26  A    between atoms: C_32  and  C_33
REMARK   27  A    between atoms: C_34  and  C_35
REMARK   28  A    between atoms: C_35  and  C_36
REMARK   29  A    between atoms: C_36  and  C_37
REMARK   30  A    between atoms: C_37  and  C_38
REMARK   31  A    between atoms: C_39  and  C_40
REMARK   32  A    between atoms: C_40  and  C_41
REMARK   33  A    between atoms: C_46  and  O_47
REMARK                            x       y       z     vdW  Elec       q    Type
REMARK                         _______ _______ _______ _____ _____    ______ ____
ROOT
ATOM      1  C   UNL     1       6.598   0.147  25.260  0.00  0.00    -0.076 C 
ATOM      2  C   UNL     1       7.275   0.870  26.173  0.00  0.00    -0.028 C 
ATOM      3  C   UNL     1       6.289   0.746  23.904  0.00  0.00    +0.039 C 
ENDROOT
BRANCH   1   4
ATOM      4  C   UNL     1       6.161  -1.258  25.620  0.00  0.00    +0.034 C 
BRANCH   4   5
ATOM      5  C   UNL     1       5.315  -1.915  24.542  0.00  0.00    +0.031 C 
BRANCH   5   7
ATOM      6  C   UNL     1       6.247  -3.849  23.316  0.00  0.00    -0.076 C 
ATOM      7  C   UNL     1       5.531  -3.382  24.358  0.00  0.00    -0.028 C 
ATOM      8  C   UNL     1       6.843  -2.879  22.313  0.00  0.00    +0.039 C 
BRANCH   6   9
ATOM      9  C   UNL     1       6.436  -5.341  23.178  0.00  0.00    +0.034 C 
BRANCH   9  10
ATOM     10  C   UNL     1       5.176  -6.057  22.724  0.00  0.00    +0.031 C 
BRANCH  10  12
ATOM     11  C   UNL     1       3.194  -6.612  24.087  0.00  0.00    -0.076 C 
ATOM     12  C   UNL     1       4.481  -6.856  23.775  0.00  0.00    -0.028 C 
ATOM     13  C   UNL     1       2.436  -5.514  23.366  0.00  0.00    +0.039 C 
BRANCH  11  14
ATOM     14  C   UNL     1       2.532  -7.452  25.157  0.00  0.00    +0.034 C 
BRANCH  14  15
ATOM     15  C   UNL     1       2.463  -6.756  26.505  0.00  0.00    +0.031 C 
BRANCH  15  17
ATOM     16  C   UNL     1       4.215  -5.358  27.565  0.00  0.00    -0.076 C 
ATOM     17  C   UNL     1       3.769  -6.583  27.214  0.00  0.00    -0.028 C 
ATOM     18  C   UNL     1       3.387  -4.131  27.238  0.00  0.00    +0.039 C 
BRANCH  16  19
ATOM     19  C   UNL     1       5.542  -5.237  28.273  0.00  0.00    +0.034 C 
BRANCH  19  20
ATOM     20  C   UNL     1       6.582  -4.368  27.566  0.00  0.00    +0.031 C 
BRANCH  20  23
ATOM     21  C   UNL     1       9.557  -5.554  25.363  0.00  0.00    +0.038 C 
ATOM     22  C   UNL     1       8.601  -4.647  26.082  0.00  0.00    -0.080 C 
ATOM     23  C   UNL     1       7.556  -5.169  26.755  0.00  0.00    -0.028 C 
ATOM     24  C   UNL     1       8.859  -3.165  26.003  0.00  0.00    +0.038 C 
ENDBRANCH  20  23
ENDBRANCH  19  20
ENDBRANCH  16  19
ENDBRANCH  15  17
ENDBRANCH  14  15
ENDBRANCH  11  14
ENDBRANCH  10  12
ENDBRANCH   9  10
ENDBRANCH   6   9
ENDBRANCH   5   7
ENDBRANCH   4   5
ENDBRANCH   1   4
BRANCH   2  25
ATOM     25  C   UNL     1       7.737   2.270  25.903  0.00  0.00    +0.031 C 
BRANCH  25  26
ATOM     26  C   UNL     1       7.179   3.293  26.887  0.00  0.00    +0.034 C 
BRANCH  26  27
ATOM     27  C   UNL     1       6.338   4.316  26.161  0.00  0.00    -0.076 C 
ATOM     28  C   UNL     1       5.358   3.937  25.318  0.00  0.00    -0.028 C 
ATOM     29  C   UNL     1       6.620   5.769  26.447  0.00  0.00    +0.039 C 
BRANCH  28  30
ATOM     30  C   UNL     1       4.491   4.923  24.591  0.00  0.00    +0.031 C 
BRANCH  30  31
ATOM     31  C   UNL     1       4.677   4.886  23.073  0.00  0.00    +0.034 C 
BRANCH  31  32
ATOM     32  C   UNL     1       6.134   5.035  22.701  0.00  0.00    -0.076 C 
ATOM     33  C   UNL     1       6.806   6.180  22.934  0.00  0.00    -0.028 C 
ATOM     34  C   UNL     1       6.808   3.840  22.076  0.00  0.00    +0.039 C 
BRANCH  33  35
ATOM     35  C   UNL     1       8.257   6.357  22.584  0.00  0.00    +0.031 C 
BRANCH  35  36
ATOM     36  C   UNL     1       9.159   6.575  23.802  0.00  0.00    +0.034 C 
BRANCH  36  37
ATOM     37  C   UNL     1      10.250   5.527  23.866  0.00  0.00    -0.076 C 
ATOM     38  C   UNL     1       9.961   4.219  23.720  0.00  0.00    -0.023 C 
ATOM     39  C   UNL     1      11.662   6.018  24.044  0.00  0.00    +0.039 C 
BRANCH  38  40
ATOM     40  C   UNL     1      10.958   3.089  23.727  0.00  0.00    +0.066 C 
BRANCH  40  41
ATOM     41  C   UNL     1      10.386   1.790  23.205  0.00  0.00    -0.002 A 
ATOM     42  C   UNL     1      10.376   0.622  23.977  0.00  0.00    +0.120 A 
ATOM     43  C   UNL     1       9.816  -0.560  23.490  0.00  0.00    +0.046 A 
ATOM     44  C   UNL     1       9.252  -0.587  22.216  0.00  0.00    +0.004 A 
ATOM     45  C   UNL     1       9.263   0.561  21.427  0.00  0.00    +0.001 A 
ATOM     46  C   UNL     1       9.825   1.740  21.919  0.00  0.00    +0.007 A 
BRANCH  42  47
ATOM     47  O   UNL     1      10.923   0.644  25.231  0.00  0.00    -0.506 OA
ATOM     48  H   UNL     1      11.158  -0.263  25.484  0.00  0.00    +0.292 HD
ENDBRANCH  42  47
ENDBRANCH  40  41
ENDBRANCH  38  40
ENDBRANCH  36  37
ENDBRANCH  35  36
ENDBRANCH  33  35
ENDBRANCH  31  32
ENDBRANCH  30  31
ENDBRANCH  28  30
ENDBRANCH  26  27
ENDBRANCH  25  26
ENDBRANCH   2  25
TORSDOF 24
ENDMDL
MODEL 2
REMARK VINA RESULT:      -5.7      2.556      8.111
REMARK  Name = 
REMARK  33 active torsions:
REMARK  status: ('A' for Active; 'I' for Inactive)
REMARK    1  A    between atoms: C_1  and  C_2
REMARK    2  A    between atoms: C_2  and  C_3
REMARK    3  A    between atoms: C_4  and  C_5
REMARK    4  A    between atoms: C_5  and  C_6
REMARK    5  A    between atoms: C_6  and  C_7
REMARK    6  A    between atoms: C_7  and  C_8
REMARK    7  A    between atoms: C_9  and  C_10
REMARK    8  A    between atoms: C_10  and  C_11
REMARK    9  A    between atoms: C_11  and  C_12
REMARK   10  A    between atoms: C_12  and  C_13
REMARK   11  A    between atoms: C_14  and  C_15
REMARK   12  A    between atoms: C_15  and  C_16
REMARK   13  A    between atoms: C_16  and  C_17
REMARK   14  A    between atoms: C_17  and  C_18
REMARK   15  A    between atoms: C_19  and  C_20
REMARK   16  A    between atoms: C_20  and  C_21
REMARK   17  A    between atoms: C_21  and  C_22
REMARK   18  A    between atoms: C_22  and  C_23
REMARK   19  A    between atoms: C_24  and  C_25
REMARK   20  A    between atoms: C_25  and  C_26
REMARK   21  A    between atoms: C_26  and  C_27
REMARK   22  A    between atoms: C_27  and  C_28
REMARK   23  A    between atoms: C_29  and  C_30
REMARK   24  A    between atoms: C_30  and  C_31
REMARK   25  A    between atoms: C_31  and  C_32
REMARK   26  A    between atoms: C_32  and  C_33
REMARK   27  A    between atoms: C_34  and  C_35
REMARK   28  A    between atoms: C_35  and  C_36
REMARK   29  A    between atoms: C_36  and  C_37
REMARK   30  A    between atoms: C_37  and  C_38
REMARK   31  A    between atoms: C_39  and  C_40
REMARK   32  A    between atoms: C_40  and  C_41
REMARK   33  A    between atoms: C_46  and  O_47
REMARK                            x       y       z     vdW  Elec       q    Type
REMARK                         _______ _______ _______ _____ _____    ______ ____
ROOT
ATOM      1  C   UNL     1       5.736   3.477  23.658  0.00  0.00    -0.076 C 
ATOM      2  C   UNL     1       6.649   3.784  24.599  0.00  0.00    -0.028 C 
ATOM      3  C   UNL     1       4.340   3.058  24.072  0.00  0.00    +0.039 C 
ENDROOT
BRANCH   1   4
ATOM      4  C   UNL     1       6.135   3.560  22.199  0.00  0.00    +0.034 C 
BRANCH   4   5
ATOM      5  C   UNL     1       7.606   3.262  21.963  0.00  0.00    +0.031 C 
BRANCH   5   7
ATOM      6  C   UNL     1       9.122   1.310  21.924  0.00  0.00    -0.076 C 
ATOM      7  C   UNL     1       7.928   1.849  21.604  0.00  0.00    -0.028 C 
ATOM      8  C   UNL     1      10.156   2.144  22.657  0.00  0.00    +0.039 C 
BRANCH   6   9
ATOM      9  C   UNL     1       9.394  -0.125  21.539  0.00  0.00    +0.034 C 
BRANCH   9  10
ATOM     10  C   UNL     1       8.484  -1.111  22.250  0.00  0.00    +0.031 C 
BRANCH  10  12
ATOM     11  C   UNL     1       7.723  -0.826  24.582  0.00  0.00    -0.076 C 
ATOM     12  C   UNL     1       8.686  -1.216  23.726  0.00  0.00    -0.028 C 
ATOM     13  C   UNL     1       6.416  -0.273  24.049  0.00  0.00    +0.039 C 
BRANCH  11  14
ATOM     14  C   UNL     1       7.974  -0.958  26.068  0.00  0.00    +0.034 C 
BRANCH  14  15
ATOM     15  C   UNL     1       8.554  -2.307  26.457  0.00  0.00    +0.031 C 
BRANCH  15  17
ATOM     16  C   UNL     1       7.770  -4.575  25.834  0.00  0.00    -0.076 C 
ATOM     17  C   UNL     1       7.576  -3.437  26.534  0.00  0.00    -0.028 C 
ATOM     18  C   UNL     1       8.994  -4.720  24.953  0.00  0.00    +0.039 C 
BRANCH  16  19
ATOM     19  C   UNL     1       6.750  -5.682  25.940  0.00  0.00    +0.034 C 
BRANCH  19  20
ATOM     20  C   UNL     1       5.497  -5.500  25.084  0.00  0.00    +0.031 C 
BRANCH  20  23
ATOM     21  C   UNL     1       6.074  -5.740  21.247  0.00  0.00    +0.038 C 
ATOM     22  C   UNL     1       5.818  -5.157  22.607  0.00  0.00    -0.080 C 
ATOM     23  C   UNL     1       5.682  -5.971  23.672  0.00  0.00    -0.028 C 
ATOM     24  C   UNL     1       5.711  -3.658  22.710  0.00  0.00    +0.038 C 
ENDBRANCH  20  23
ENDBRANCH  19  20
ENDBRANCH  16  19
ENDBRANCH  15  17
ENDBRANCH  14  15
ENDBRANCH  11  14
ENDBRANCH  10  12
ENDBRANCH   9  10
ENDBRANCH   6   9
ENDBRANCH   5   7
ENDBRANCH   4   5
ENDBRANCH   1   4
BRANCH   2  25
ATOM     25  C   UNL     1       6.342   3.720  26.064  0.00  0.00    +0.031 C 
BRANCH  25  26
ATOM     26  C   UNL     1       7.156   2.668  26.809  0.00  0.00    +0.034 C 
BRANCH  26  27
ATOM     27  C   UNL     1       6.247   1.785  27.631  0.00  0.00    -0.076 C 
ATOM     28  C   UNL     1       4.977   1.550  27.251  0.00  0.00    -0.028 C 
ATOM     29  C   UNL     1       6.833   1.155  28.869  0.00  0.00    +0.039 C 
BRANCH  28  30
ATOM     30  C   UNL     1       4.048   0.667  28.032  0.00  0.00    +0.031 C 
BRANCH  30  31
ATOM     31  C   UNL     1       3.275  -0.320  27.157  0.00  0.00    +0.034 C 
BRANCH  31  32
ATOM     32  C   UNL     1       3.886  -1.700  27.225  0.00  0.00    -0.076 C 
ATOM     33  C   UNL     1       4.302  -2.229  28.393  0.00  0.00    -0.028 C 
ATOM     34  C   UNL     1       3.993  -2.467  25.931  0.00  0.00    +0.039 C 
BRANCH  33  35
ATOM     35  C   UNL     1       4.905  -3.602  28.495  0.00  0.00    +0.031 C 
BRANCH  35  36
ATOM     36  C   UNL     1       4.117  -4.553  29.400  0.00  0.00    +0.034 C 
BRANCH  36  37
ATOM     37  C   UNL     1       3.643  -5.768  28.632  0.00  0.00    -0.076 C 
ATOM     38  C   UNL     1       2.457  -5.761  27.991  0.00  0.00    -0.023 C 
ATOM     39  C   UNL     1       4.575  -6.949  28.574  0.00  0.00    +0.039 C 
BRANCH  38  40
ATOM     40  C   UNL     1       1.894  -6.890  27.167  0.00  0.00    +0.066 C 
BRANCH  40  41
ATOM     41  C   UNL     1       2.001  -6.647  25.678  0.00  0.00    -0.002 A 
ATOM     42  C   UNL     1       2.317  -7.675  24.781  0.00  0.00    +0.120 A 
ATOM     43  C   UNL     1       2.380  -7.439  23.407  0.00  0.00    +0.046 A 
ATOM     44  C   UNL     1       2.123  -6.162  22.910  0.00  0.00    +0.004 A 
ATOM     45  C   UNL     1       1.819  -5.123  23.786  0.00  0.00    +0.001 A 
ATOM     46  C   UNL     1       1.758  -5.364  25.160  0.00  0.00    +0.007 A 
BRANCH  42  47
ATOM     47  O   UNL     1       2.563  -8.931  25.263  0.00  0.00    -0.506 OA
ATOM     48  H   UNL     1       3.077  -8.854  26.083  0.00  0.00    +0.292 HD
ENDBRANCH  42  47
ENDBRANCH  40  41
ENDBRANCH  38  40
ENDBRANCH  36  37
ENDBRANCH  35  36
ENDBRANCH  33  35
ENDBRANCH  31  32
ENDBRANCH  30  31
ENDBRANCH  28  30
ENDBRANCH  26  27
ENDBRANCH  25  26
ENDBRANCH   2  25
TORSDOF 24
ENDMDL
MODEL 3
REMARK VINA RESULT:      -5.7      1.961      9.985
REMARK  Name = 
REMARK  33 active torsions:
REMARK  status: ('A' for Active; 'I' for Inactive)
REMARK    1  A    between atoms: C_1  and  C_2
REMARK    2  A    between atoms: C_2  and  C_3
REMARK    3  A    between atoms: C_4  and  C_5
REMARK    4  A    between atoms: C_5  and  C_6
REMARK    5  A    between atoms: C_6  and  C_7
REMARK    6  A    between atoms: C_7  and  C_8
REMARK    7  A    between atoms: C_9  and  C_10
REMARK    8  A    between atoms: C_10  and  C_11
REMARK    9  A    between atoms: C_11  and  C_12
REMARK   10  A    between atoms: C_12  and  C_13
REMARK   11  A    between atoms: C_14  and  C_15
REMARK   12  A    between atoms: C_15  and  C_16
REMARK   13  A    between atoms: C_16  and  C_17
REMARK   14  A    between atoms: C_17  and  C_18
REMARK   15  A    between atoms: C_19  and  C_20
REMARK   16  A    between atoms: C_20  and  C_21
REMARK   17  A    between atoms: C_21  and  C_22
REMARK   18  A    between atoms: C_22  and  C_23
REMARK   19  A    between atoms: C_24  and  C_25
REMARK   20  A    between atoms: C_25  and  C_26
REMARK   21  A    between atoms: C_26  and  C_27
REMARK   22  A    between atoms: C_27  and  C_28
REMARK   23  A    between atoms: C_29  and  C_30
REMARK   24  A    between atoms: C_30  and  C_31
REMARK   25  A    between atoms: C_31  and  C_32
REMARK   26  A    between atoms: C_32  and  C_33
REMARK   27  A    between atoms: C_34  and  C_35
REMARK   28  A    between atoms: C_35  and  C_36
REMARK   29  A    between atoms: C_36  and  C_37
REMARK   30  A    between atoms: C_37  and  C_38
REMARK   31  A    between atoms: C_39  and  C_40
REMARK   32  A    between atoms: C_40  and  C_41
REMARK   33  A    between atoms: C_46  and  O_47
REMARK                            x       y       z     vdW  Elec       q    Type
REMARK                         _______ _______ _______ _____ _____    ______ ____
ROOT
ATOM      1  C   UNL     1       9.305  -2.966  24.976  0.00  0.00    -0.076 C 
ATOM      2  C   UNL     1       9.238  -4.297  25.165  0.00  0.00    -0.028 C 
ATOM      3  C   UNL     1       8.693  -2.028  25.997  0.00  0.00    +0.039 C 
ENDROOT
BRANCH   1   4
ATOM      4  C   UNL     1       9.998  -2.439  23.736  0.00  0.00    +0.034 C 
BRANCH   4   5
ATOM      5  C   UNL     1       9.254  -1.288  23.080  0.00  0.00    +0.031 C 
BRANCH   5   7
ATOM      6  C   UNL     1       9.820   0.909  22.100  0.00  0.00    -0.076 C 
ATOM      7  C   UNL     1       9.948   0.034  23.117  0.00  0.00    -0.028 C 
ATOM      8  C   UNL     1       8.964   0.555  20.899  0.00  0.00    +0.039 C 
BRANCH   6   9
ATOM      9  C   UNL     1      10.543   2.233  22.190  0.00  0.00    +0.034 C 
BRANCH   9  10
ATOM     10  C   UNL     1      10.621   2.768  23.609  0.00  0.00    +0.031 C 
BRANCH  10  12
ATOM     11  C   UNL     1      10.264   5.205  23.778  0.00  0.00    -0.076 C 
ATOM     12  C   UNL     1       9.767   3.959  23.891  0.00  0.00    -0.028 C 
ATOM     13  C   UNL     1      11.707   5.409  23.359  0.00  0.00    +0.039 C 
BRANCH  11  14
ATOM     14  C   UNL     1       9.356   6.380  24.070  0.00  0.00    +0.034 C 
BRANCH  14  15
ATOM     15  C   UNL     1       8.319   6.616  22.985  0.00  0.00    +0.031 C 
BRANCH  15  17
ATOM     16  C   UNL     1       6.446   4.997  23.118  0.00  0.00    -0.076 C 
ATOM     17  C   UNL     1       7.584   5.401  22.514  0.00  0.00    -0.028 C 
ATOM     18  C   UNL     1       5.897   5.780  24.293  0.00  0.00    +0.039 C 
BRANCH  16  19
ATOM     19  C   UNL     1       5.747   3.761  22.609  0.00  0.00    +0.034 C 
BRANCH  19  20
ATOM     20  C   UNL     1       6.639   2.533  22.428  0.00  0.00    +0.031 C 
BRANCH  20  23
ATOM     21  C   UNL     1       5.697  -0.324  24.888  0.00  0.00    +0.038 C 
ATOM     22  C   UNL     1       6.381   0.883  24.317  0.00  0.00    -0.080 C 
ATOM     23  C   UNL     1       6.075   1.303  23.073  0.00  0.00    -0.028 C 
ATOM     24  C   UNL     1       7.405   1.573  25.178  0.00  0.00    +0.038 C 
ENDBRANCH  20  23
ENDBRANCH  19  20
ENDBRANCH  16  19
ENDBRANCH  15  17
ENDBRANCH  14  15
ENDBRANCH  11  14
ENDBRANCH  10  12
ENDBRANCH   9  10
ENDBRANCH   6   9
ENDBRANCH   5   7
ENDBRANCH   4   5
ENDBRANCH   1   4
BRANCH   2  25
ATOM     25  C   UNL     1       8.564  -4.903  26.360  0.00  0.00    +0.031 C 
BRANCH  25  26
ATOM     26  C   UNL     1       7.104  -5.267  26.113  0.00  0.00    +0.034 C 
BRANCH  26  27
ATOM     27  C   UNL     1       6.267  -4.932  27.325  0.00  0.00    -0.076 C 
ATOM     28  C   UNL     1       6.066  -5.837  28.301  0.00  0.00    -0.028 C 
ATOM     29  C   UNL     1       5.701  -3.538  27.408  0.00  0.00    +0.039 C 
BRANCH  28  30
ATOM     30  C   UNL     1       5.254  -5.537  29.527  0.00  0.00    +0.031 C 
BRANCH  30  31
ATOM     31  C   UNL     1       3.975  -6.371  29.624  0.00  0.00    +0.034 C 
BRANCH  31  32
ATOM     32  C   UNL     1       2.870  -5.770  28.785  0.00  0.00    -0.076 C 
ATOM     33  C   UNL     1       2.506  -4.480  28.922  0.00  0.00    -0.028 C 
ATOM     34  C   UNL     1       2.207  -6.674  27.776  0.00  0.00    +0.039 C 
BRANCH  33  35
ATOM     35  C   UNL     1       1.419  -3.851  28.098  0.00  0.00    +0.031 C 
BRANCH  35  36
ATOM     36  C   UNL     1       1.941  -2.899  27.017  0.00  0.00    +0.034 C 
BRANCH  36  37
ATOM     37  C   UNL     1       1.973  -3.578  25.664  0.00  0.00    -0.076 C 
ATOM     38  C   UNL     1       3.103  -4.150  25.204  0.00  0.00    -0.023 C 
ATOM     39  C   UNL     1       0.681  -3.629  24.892  0.00  0.00    +0.039 C 
BRANCH  38  40
ATOM     40  C   UNL     1       3.252  -4.884  23.897  0.00  0.00    +0.066 C 
BRANCH  40  41
ATOM     41  C   UNL     1       4.640  -4.772  23.308  0.00  0.00    -0.002 A 
ATOM     42  C   UNL     1       5.428  -5.901  23.049  0.00  0.00    +0.120 A 
ATOM     43  C   UNL     1       6.695  -5.779  22.476  0.00  0.00    +0.046 A 
ATOM     44  C   UNL     1       7.192  -4.518  22.151  0.00  0.00    +0.004 A 
ATOM     45  C   UNL     1       6.430  -3.383  22.412  0.00  0.00    +0.001 A 
ATOM     46  C   UNL     1       5.163  -3.509  22.986  0.00  0.00    +0.007 A 
BRANCH  42  47
ATOM     47  O   UNL     1       4.942  -7.141  23.359  0.00  0.00    -0.506 OA
ATOM     48  H   UNL     1       4.393  -7.454  22.623  0.00  0.00    +0.292 HD
ENDBRANCH  42  47
ENDBRANCH  40  41
ENDBRANCH  38  40
ENDBRANCH  36  37
ENDBRANCH  35  36
ENDBRANCH  33  35
ENDBRANCH  31  32
ENDBRANCH  30  31
ENDBRANCH  28  30
ENDBRANCH  26  27
ENDBRANCH  25  26
ENDBRANCH   2  25
TORSDOF 24
ENDMDL
MODEL 4
REMARK VINA RESULT:      -5.5      1.228      2.859
REMARK  Name = 
REMARK  33 active torsions:
REMARK  status: ('A' for Active; 'I' for Inactive)
REMARK    1  A    between atoms: C_1  and  C_2
REMARK    2  A    between atoms: C_2  and  C_3
REMARK    3  A    between atoms: C_4  and  C_5
REMARK    4  A    between atoms: C_5  and  C_6
REMARK    5  A    between atoms: C_6  and  C_7
REMARK    6  A    between atoms: C_7  and  C_8
REMARK    7  A    between atoms: C_9  and  C_10
REMARK    8  A    between atoms: C_10  and  C_11
REMARK    9  A    between atoms: C_11  and  C_12
REMARK   10  A    between atoms: C_12  and  C_13
REMARK   11  A    between atoms: C_14  and  C_15
REMARK   12  A    between atoms: C_15  and  C_16
REMARK   13  A    between atoms: C_16  and  C_17
REMARK   14  A    between atoms: C_17  and  C_18
REMARK   15  A    between atoms: C_19  and  C_20
REMARK   16  A    between atoms: C_20  and  C_21
REMARK   17  A    between atoms: C_21  and  C_22
REMARK   18  A    between atoms: C_22  and  C_23
REMARK   19  A    between atoms: C_24  and  C_25
REMARK   20  A    between atoms: C_25  and  C_26
REMARK   21  A    between atoms: C_26  and  C_27
REMARK   22  A    between atoms: C_27  and  C_28
REMARK   23  A    between atoms: C_29  and  C_30
REMARK   24  A    between atoms: C_30  and  C_31
REMARK   25  A    between atoms: C_31  and  C_32
REMARK   26  A    between atoms: C_32  and  C_33
REMARK   27  A    between atoms: C_34  and  C_35
REMARK   28  A    between atoms: C_35  and  C_36
REMARK   29  A    between atoms: C_36  and  C_37
REMARK   30  A    between atoms: C_37  and  C_38
REMARK   31  A    between atoms: C_39  and  C_40
REMARK   32  A    between atoms: C_40  and  C_41
REMARK   33  A    between atoms: C_46  and  O_47
REMARK                            x       y       z     vdW  Elec       q    Type
REMARK                         _______ _______ _______ _____ _____    ______ ____
ROOT
ATOM      1  C   UNL     1       7.484  -0.717  25.329  0.00  0.00    -0.076 C 
ATOM      2  C   UNL     1       7.170   0.552  25.005  0.00  0.00    -0.028 C 
ATOM      3  C   UNL     1       8.445  -0.989  26.467  0.00  0.00    +0.039 C 
ENDROOT
BRANCH   1   4
ATOM      4  C   UNL     1       6.858  -1.848  24.538  0.00  0.00    +0.034 C 
BRANCH   4   5
ATOM      5  C   UNL     1       5.401  -2.091  24.894  0.00  0.00    +0.031 C 
BRANCH   5   7
ATOM      6  C   UNL     1       4.548  -1.886  27.205  0.00  0.00    -0.076 C 
ATOM      7  C   UNL     1       5.154  -2.636  26.263  0.00  0.00    -0.028 C 
ATOM      8  C   UNL     1       4.111  -0.470  26.879  0.00  0.00    +0.039 C 
BRANCH   6   9
ATOM      9  C   UNL     1       4.321  -2.487  28.572  0.00  0.00    +0.034 C 
BRANCH   9  10
ATOM     10  C   UNL     1       4.567  -3.985  28.607  0.00  0.00    +0.031 C 
BRANCH  10  12
ATOM     11  C   UNL     1       3.508  -6.058  27.782  0.00  0.00    -0.076 C 
ATOM     12  C   UNL     1       3.371  -4.835  28.328  0.00  0.00    -0.028 C 
ATOM     13  C   UNL     1       4.889  -6.585  27.444  0.00  0.00    +0.039 C 
BRANCH  11  14
ATOM     14  C   UNL     1       2.267  -6.883  27.524  0.00  0.00    +0.034 C 
BRANCH  14  15
ATOM     15  C   UNL     1       1.511  -6.448  26.280  0.00  0.00    +0.031 C 
BRANCH  15  17
ATOM     16  C   UNL     1       2.505  -4.973  24.553  0.00  0.00    -0.076 C 
ATOM     17  C   UNL     1       2.346  -6.214  25.061  0.00  0.00    -0.028 C 
ATOM     18  C   UNL     1       1.827  -3.793  25.220  0.00  0.00    +0.039 C 
BRANCH  16  19
ATOM     19  C   UNL     1       3.352  -4.791  23.319  0.00  0.00    +0.034 C 
BRANCH  19  20
ATOM     20  C   UNL     1       4.407  -5.872  23.086  0.00  0.00    +0.031 C 
BRANCH  20  23
ATOM     21  C   UNL     1       8.132  -5.089  23.878  0.00  0.00    +0.038 C 
ATOM     22  C   UNL     1       6.898  -5.477  23.116  0.00  0.00    -0.080 C 
ATOM     23  C   UNL     1       5.714  -5.565  23.755  0.00  0.00    -0.028 C 
ATOM     24  C   UNL     1       7.052  -5.766  21.646  0.00  0.00    +0.038 C 
ENDBRANCH  20  23
ENDBRANCH  19  20
ENDBRANCH  16  19
ENDBRANCH  15  17
ENDBRANCH  14  15
ENDBRANCH  11  14
ENDBRANCH  10  12
ENDBRANCH   9  10
ENDBRANCH   6   9
ENDBRANCH   5   7
ENDBRANCH   4   5
ENDBRANCH   1   4
BRANCH   2  25
ATOM     25  C   UNL     1       7.749   1.729  25.730  0.00  0.00    +0.031 C 
BRANCH  25  26
ATOM     26  C   UNL     1       6.803   2.329  26.765  0.00  0.00    +0.034 C 
BRANCH  26  27
ATOM     27  C   UNL     1       5.943   3.397  26.134  0.00  0.00    -0.076 C 
ATOM     28  C   UNL     1       4.912   3.075  25.330  0.00  0.00    -0.028 C 
ATOM     29  C   UNL     1       6.267   4.831  26.469  0.00  0.00    +0.039 C 
BRANCH  28  30
ATOM     30  C   UNL     1       4.025   4.107  24.696  0.00  0.00    +0.031 C 
BRANCH  30  31
ATOM     31  C   UNL     1       4.134   4.143  23.171  0.00  0.00    +0.034 C 
BRANCH  31  32
ATOM     32  C   UNL     1       5.562   4.380  22.735  0.00  0.00    -0.076 C 
ATOM     33  C   UNL     1       6.155   5.580  22.891  0.00  0.00    -0.028 C 
ATOM     34  C   UNL     1       6.298   3.209  22.134  0.00  0.00    +0.039 C 
BRANCH  33  35
ATOM     35  C   UNL     1       7.575   5.845  22.475  0.00  0.00    +0.031 C 
BRANCH  35  36
ATOM     36  C   UNL     1       8.488   6.251  23.636  0.00  0.00    +0.034 C 
BRANCH  36  37
ATOM     37  C   UNL     1       9.688   5.332  23.731  0.00  0.00    -0.076 C 
ATOM     38  C   UNL     1       9.542   3.994  23.663  0.00  0.00    -0.023 C 
ATOM     39  C   UNL     1      11.041   5.983  23.847  0.00  0.00    +0.039 C 
BRANCH  38  40
ATOM     40  C   UNL     1      10.656   2.982  23.709  0.00  0.00    +0.066 C 
BRANCH  40  41
ATOM     41  C   UNL     1      10.277   1.655  23.090  0.00  0.00    -0.002 A 
ATOM     42  C   UNL     1      10.622   0.435  23.685  0.00  0.00    +0.120 A 
ATOM     43  C   UNL     1      10.237  -0.780  23.116  0.00  0.00    +0.046 A 
ATOM     44  C   UNL     1       9.494  -0.789  21.936  0.00  0.00    +0.004 A 
ATOM     45  C   UNL     1       9.151   0.414  21.323  0.00  0.00    +0.001 A 
ATOM     46  C   UNL     1       9.540   1.626  21.895  0.00  0.00    +0.007 A 
BRANCH  42  47
ATOM     47  O   UNL     1      11.346   0.438  24.846  0.00  0.00    -0.506 OA
ATOM     48  H   UNL     1      11.018   1.153  25.415  0.00  0.00    +0.292 HD
ENDBRANCH  42  47
ENDBRANCH  40  41
ENDBRANCH  38  40
ENDBRANCH  36  37
ENDBRANCH  35  36
ENDBRANCH  33  35
ENDBRANCH  31  32
ENDBRANCH  30  31
ENDBRANCH  28  30
ENDBRANCH  26  27
ENDBRANCH  25  26
ENDBRANCH   2  25
TORSDOF 24
ENDMDL
MODEL 5
REMARK VINA RESULT:      -5.5      1.908      9.220
REMARK  Name = 
REMARK  33 active torsions:
REMARK  status: ('A' for Active; 'I' for Inactive)
REMARK    1  A    between atoms: C_1  and  C_2
REMARK    2  A    between atoms: C_2  and  C_3
REMARK    3  A    between atoms: C_4  and  C_5
REMARK    4  A    between atoms: C_5  and  C_6
REMARK    5  A    between atoms: C_6  and  C_7
REMARK    6  A    between atoms: C_7  and  C_8
REMARK    7  A    between atoms: C_9  and  C_10
REMARK    8  A    between atoms: C_10  and  C_11
REMARK    9  A    between atoms: C_11  and  C_12
REMARK   10  A    between atoms: C_12  and  C_13
REMARK   11  A    between atoms: C_14  and  C_15
REMARK   12  A    between atoms: C_15  and  C_16
REMARK   13  A    between atoms: C_16  and  C_17
REMARK   14  A    between atoms: C_17  and  C_18
REMARK   15  A    between atoms: C_19  and  C_20
REMARK   16  A    between atoms: C_20  and  C_21
REMARK   17  A    between atoms: C_21  and  C_22
REMARK   18  A    between atoms: C_22  and  C_23
REMARK   19  A    between atoms: C_24  and  C_25
REMARK   20  A    between atoms: C_25  and  C_26
REMARK   21  A    between atoms: C_26  and  C_27
REMARK   22  A    between atoms: C_27  and  C_28
REMARK   23  A    between atoms: C_29  and  C_30
REMARK   24  A    between atoms: C_30  and  C_31
REMARK   25  A    between atoms: C_31  and  C_32
REMARK   26  A    between atoms: C_32  and  C_33
REMARK   27  A    between atoms: C_34  and  C_35
REMARK   28  A    between atoms: C_35  and  C_36
REMARK   29  A    between atoms: C_36  and  C_37
REMARK   30  A    between atoms: C_37  and  C_38
REMARK   31  A    between atoms: C_39  and  C_40
REMARK   32  A    between atoms: C_40  and  C_41
REMARK   33  A    between atoms: C_46  and  O_47
REMARK                            x       y       z     vdW  Elec       q    Type
REMARK                         _______ _______ _______ _____ _____    ______ ____
ROOT
ATOM      1  C   UNL     1       8.325  -1.540  23.307  0.00  0.00    -0.076 C 
ATOM      2  C   UNL     1       8.941  -1.971  24.425  0.00  0.00    -0.028 C 
ATOM      3  C   UNL     1       6.872  -1.114  23.364  0.00  0.00    +0.039 C 
ENDROOT
BRANCH   1   4
ATOM      4  C   UNL     1       9.110  -1.493  22.013  0.00  0.00    +0.034 C 
BRANCH   4   5
ATOM      5  C   UNL     1      10.160  -0.395  21.991  0.00  0.00    +0.031 C 
BRANCH   5   7
ATOM      6  C   UNL     1      10.119   1.484  23.596  0.00  0.00    -0.076 C 
ATOM      7  C   UNL     1       9.693   0.953  22.433  0.00  0.00    -0.028 C 
ATOM      8  C   UNL     1      11.083   0.708  24.474  0.00  0.00    +0.039 C 
BRANCH   6   9
ATOM      9  C   UNL     1       9.616   2.852  23.994  0.00  0.00    +0.034 C 
BRANCH   9  10
ATOM     10  C   UNL     1       8.543   2.798  25.067  0.00  0.00    +0.031 C 
BRANCH  10  12
ATOM     11  C   UNL     1       6.087   3.047  25.109  0.00  0.00    -0.076 C 
ATOM     12  C   UNL     1       7.174   2.452  24.583  0.00  0.00    -0.028 C 
ATOM     13  C   UNL     1       6.247   4.081  26.207  0.00  0.00    +0.039 C 
BRANCH  11  14
ATOM     14  C   UNL     1       4.721   2.666  24.581  0.00  0.00    +0.034 C 
BRANCH  14  15
ATOM     15  C   UNL     1       4.271   3.528  23.415  0.00  0.00    +0.031 C 
BRANCH  15  17
ATOM     16  C   UNL     1       5.409   5.672  22.909  0.00  0.00    -0.076 C 
ATOM     17  C   UNL     1       5.343   4.333  22.751  0.00  0.00    -0.028 C 
ATOM     18  C   UNL     1       4.383   6.381  23.769  0.00  0.00    +0.039 C 
BRANCH  16  19
ATOM     19  C   UNL     1       6.506   6.438  22.212  0.00  0.00    +0.034 C 
BRANCH  19  20
ATOM     20  C   UNL     1       7.923   6.138  22.700  0.00  0.00    +0.031 C 
BRANCH  20  23
ATOM     21  C   UNL     1       9.403   6.940  26.204  0.00  0.00    +0.038 C 
ATOM     22  C   UNL     1       9.320   6.531  24.762  0.00  0.00    -0.080 C 
ATOM     23  C   UNL     1       8.121   6.463  24.150  0.00  0.00    -0.028 C 
ATOM     24  C   UNL     1      10.610   6.197  24.061  0.00  0.00    +0.038 C 
ENDBRANCH  20  23
ENDBRANCH  19  20
ENDBRANCH  16  19
ENDBRANCH  15  17
ENDBRANCH  14  15
ENDBRANCH  11  14
ENDBRANCH  10  12
ENDBRANCH   9  10
ENDBRANCH   6   9
ENDBRANCH   5   7
ENDBRANCH   4   5
ENDBRANCH   1   4
BRANCH   2  25
ATOM     25  C   UNL     1       8.236  -2.057  25.745  0.00  0.00    +0.031 C 
BRANCH  25  26
ATOM     26  C   UNL     1       8.427  -0.819  26.615  0.00  0.00    +0.034 C 
BRANCH  26  27
ATOM     27  C   UNL     1       7.095  -0.325  27.126  0.00  0.00    -0.076 C 
ATOM     28  C   UNL     1       5.949  -0.951  26.796  0.00  0.00    -0.028 C 
ATOM     29  C   UNL     1       7.108   0.872  28.043  0.00  0.00    +0.039 C 
BRANCH  28  30
ATOM     30  C   UNL     1       4.607  -0.499  27.295  0.00  0.00    +0.031 C 
BRANCH  30  31
ATOM     31  C   UNL     1       4.073  -1.352  28.447  0.00  0.00    +0.034 C 
BRANCH  31  32
ATOM     32  C   UNL     1       3.467  -2.639  27.935  0.00  0.00    -0.076 C 
ATOM     33  C   UNL     1       3.471  -3.763  28.678  0.00  0.00    -0.028 C 
ATOM     34  C   UNL     1       2.841  -2.602  26.564  0.00  0.00    +0.039 C 
BRANCH  33  35
ATOM     35  C   UNL     1       2.870  -5.055  28.200  0.00  0.00    +0.031 C 
BRANCH  35  36
ATOM     36  C   UNL     1       3.774  -6.271  28.422  0.00  0.00    +0.034 C 
BRANCH  36  37
ATOM     37  C   UNL     1       5.155  -6.035  27.848  0.00  0.00    -0.076 C 
ATOM     38  C   UNL     1       5.313  -5.623  26.574  0.00  0.00    -0.023 C 
ATOM     39  C   UNL     1       6.325  -6.226  28.776  0.00  0.00    +0.039 C 
BRANCH  38  40
ATOM     40  C   UNL     1       6.627  -5.320  25.902  0.00  0.00    +0.066 C 
BRANCH  40  41
ATOM     41  C   UNL     1       6.479  -4.987  24.434  0.00  0.00    -0.002 A 
ATOM     42  C   UNL     1       7.527  -5.171  23.524  0.00  0.00    +0.120 A 
ATOM     43  C   UNL     1       7.362  -4.888  22.167  0.00  0.00    +0.046 A 
ATOM     44  C   UNL     1       6.136  -4.417  21.700  0.00  0.00    +0.004 A 
ATOM     45  C   UNL     1       5.085  -4.217  22.591  0.00  0.00    +0.001 A 
ATOM     46  C   UNL     1       5.255  -4.500  23.948  0.00  0.00    +0.007 A 
BRANCH  42  47
ATOM     47  O   UNL     1       8.730  -5.639  23.975  0.00  0.00    -0.506 OA
ATOM     48  H   UNL     1       9.141  -4.958  24.532  0.00  0.00    +0.292 HD
ENDBRANCH  42  47
ENDBRANCH  40  41
ENDBRANCH  38  40
ENDBRANCH  36  37
ENDBRANCH  35  36
ENDBRANCH  33  35
ENDBRANCH  31  32
ENDBRANCH  30  31
ENDBRANCH  28  30
ENDBRANCH  26  27
ENDBRANCH  25  26
ENDBRANCH   2  25
TORSDOF 24
ENDMDL
MODEL 6
REMARK VINA RESULT:      -5.5      2.102     10.319
REMARK  Name = 
REMARK  33 active torsions:
REMARK  status: ('A' for Active; 'I' for Inactive)
REMARK    1  A    between atoms: C_1  and  C_2
REMARK    2  A    between atoms: C_2  and  C_3
REMARK    3  A    between atoms: C_4  and  C_5
REMARK    4  A    between atoms: C_5  and  C_6
REMARK    5  A    between atoms: C_6  and  C_7
REMARK    6  A    between atoms: C_7  and  C_8
REMARK    7  A    between atoms: C_9  and  C_10
REMARK    8  A    between atoms: C_10  and  C_11
REMARK    9  A    between atoms: C_11  and  C_12
REMARK   10  A    between atoms: C_12  and  C_13
REMARK   11  A    between atoms: C_14  and  C_15
REMARK   12  A    between atoms: C_15  and  C_16
REMARK   13  A    between atoms: C_16  and  C_17
REMARK   14  A    between atoms: C_17  and  C_18
REMARK   15  A    between atoms: C_19  and  C_20
REMARK   16  A    between atoms: C_20  and  C_21
REMARK   17  A    between atoms: C_21  and  C_22
REMARK   18  A    between atoms: C_22  and  C_23
REMARK   19  A    between atoms: C_24  and  C_25
REMARK   20  A    between atoms: C_25  and  C_26
REMARK   21  A    between atoms: C_26  and  C_27
REMARK   22  A    between atoms: C_27  and  C_28
REMARK   23  A    between atoms: C_29  and  C_30
REMARK   24  A    between atoms: C_30  and  C_31
REMARK   25  A    between atoms: C_31  and  C_32
REMARK   26  A    between atoms: C_32  and  C_33
REMARK   27  A    between atoms: C_34  and  C_35
REMARK   28  A    between atoms: C_35  and  C_36
REMARK   29  A    between atoms: C_36  and  C_37
REMARK   30  A    between atoms: C_37  and  C_38
REMARK   31  A    between atoms: C_39  and  C_40
REMARK   32  A    between atoms: C_40  and  C_41
REMARK   33  A    between atoms: C_46  and  O_47
REMARK                            x       y       z     vdW  Elec       q    Type
REMARK                         _______ _______ _______ _____ _____    ______ ____
ROOT
ATOM      1  C   UNL     1       6.799  -0.477  25.404  0.00  0.00    -0.076 C 
ATOM      2  C   UNL     1       8.045  -0.933  25.633  0.00  0.00    -0.028 C 
ATOM      3  C   UNL     1       5.663  -1.459  25.201  0.00  0.00    +0.039 C 
ENDROOT
BRANCH   1   4
ATOM      4  C   UNL     1       6.566   1.019  25.355  0.00  0.00    +0.034 C 
BRANCH   4   5
ATOM      5  C   UNL     1       7.601   1.810  26.136  0.00  0.00    +0.031 C 
BRANCH   5   7
ATOM      6  C   UNL     1       7.059   3.922  27.302  0.00  0.00    -0.076 C 
ATOM      7  C   UNL     1       7.398   3.290  26.160  0.00  0.00    -0.028 C 
ATOM      8  C   UNL     1       6.877   3.127  28.581  0.00  0.00    +0.039 C 
BRANCH   6   9
ATOM      9  C   UNL     1       6.869   5.420  27.271  0.00  0.00    +0.034 C 
BRANCH   9  10
ATOM     10  C   UNL     1       7.893   6.128  26.402  0.00  0.00    +0.031 C 
BRANCH  10  12
ATOM     11  C   UNL     1       8.447   6.426  24.014  0.00  0.00    -0.076 C 
ATOM     12  C   UNL     1       7.507   6.298  24.969  0.00  0.00    -0.028 C 
ATOM     13  C   UNL     1       9.916   6.399  24.388  0.00  0.00    +0.039 C 
BRANCH  11  14
ATOM     14  C   UNL     1       8.005   6.591  22.576  0.00  0.00    +0.034 C 
BRANCH  14  15
ATOM     15  C   UNL     1       6.927   5.602  22.167  0.00  0.00    +0.031 C 
BRANCH  15  17
ATOM     16  C   UNL     1       6.572   3.153  22.329  0.00  0.00    -0.076 C 
ATOM     17  C   UNL     1       7.376   4.186  21.995  0.00  0.00    -0.028 C 
ATOM     18  C   UNL     1       5.191   3.425  22.890  0.00  0.00    +0.039 C 
BRANCH  16  19
ATOM     19  C   UNL     1       7.075   1.744  22.142  0.00  0.00    +0.034 C 
BRANCH  19  20
ATOM     20  C   UNL     1       8.512   1.625  21.633  0.00  0.00    +0.031 C 
BRANCH  20  23
ATOM     21  C   UNL     1      11.006   0.602  24.434  0.00  0.00    +0.038 C 
ATOM     22  C   UNL     1      10.211   1.455  23.488  0.00  0.00    -0.080 C 
ATOM     23  C   UNL     1       9.404   0.876  22.577  0.00  0.00    -0.028 C 
ATOM     24  C   UNL     1      10.370   2.948  23.601  0.00  0.00    +0.038 C 
ENDBRANCH  20  23
ENDBRANCH  19  20
ENDBRANCH  16  19
ENDBRANCH  15  17
ENDBRANCH  14  15
ENDBRANCH  11  14
ENDBRANCH  10  12
ENDBRANCH   9  10
ENDBRANCH   6   9
ENDBRANCH   5   7
ENDBRANCH   4   5
ENDBRANCH   1   4
BRANCH   2  25
ATOM     25  C   UNL     1       8.365  -2.396  25.690  0.00  0.00    +0.031 C 
BRANCH  25  26
ATOM     26  C   UNL     1       9.109  -2.902  24.459  0.00  0.00    +0.034 C 
BRANCH  26  27
ATOM     27  C   UNL     1       8.138  -3.495  23.466  0.00  0.00    -0.076 C 
ATOM     28  C   UNL     1       7.634  -4.732  23.640  0.00  0.00    -0.028 C 
ATOM     29  C   UNL     1       7.735  -2.633  22.297  0.00  0.00    +0.039 C 
BRANCH  28  30
ATOM     30  C   UNL     1       6.656  -5.349  22.684  0.00  0.00    +0.031 C 
BRANCH  30  31
ATOM     31  C   UNL     1       5.591  -6.202  23.376  0.00  0.00    +0.034 C 
BRANCH  31  32
ATOM     32  C   UNL     1       4.226  -5.563  23.262  0.00  0.00    -0.076 C 
ATOM     33  C   UNL     1       3.115  -6.304  23.082  0.00  0.00    -0.028 C 
ATOM     34  C   UNL     1       4.160  -4.061  23.377  0.00  0.00    +0.039 C 
BRANCH  33  35
ATOM     35  C   UNL     1       1.743  -5.700  22.974  0.00  0.00    +0.031 C 
BRANCH  35  36
ATOM     36  C   UNL     1       0.799  -6.114  24.107  0.00  0.00    +0.034 C 
BRANCH  36  37
ATOM     37  C   UNL     1       1.258  -5.545  25.433  0.00  0.00    -0.076 C 
ATOM     38  C   UNL     1       1.820  -6.336  26.368  0.00  0.00    -0.023 C 
ATOM     39  C   UNL     1       1.107  -4.060  25.630  0.00  0.00    +0.039 C 
BRANCH  38  40
ATOM     40  C   UNL     1       2.347  -5.885  27.705  0.00  0.00    +0.066 C 
BRANCH  40  41
ATOM     41  C   UNL     1       3.852  -5.748  27.733  0.00  0.00    -0.002 A 
ATOM     42  C   UNL     1       4.658  -6.585  28.515  0.00  0.00    +0.120 A 
ATOM     43  C   UNL     1       6.049  -6.464  28.504  0.00  0.00    +0.046 A 
ATOM     44  C   UNL     1       6.655  -5.498  27.703  0.00  0.00    +0.004 A 
ATOM     45  C   UNL     1       5.871  -4.648  26.926  0.00  0.00    +0.001 A 
ATOM     46  C   UNL     1       4.481  -4.772  26.941  0.00  0.00    +0.007 A 
BRANCH  42  47
ATOM     47  O   UNL     1       4.068  -7.538  29.298  0.00  0.00    -0.506 OA
ATOM     48  H   UNL     1       4.006  -7.200  30.206  0.00  0.00    +0.292 HD
ENDBRANCH  42  47
ENDBRANCH  40  41
ENDBRANCH  38  40
ENDBRANCH  36  37
ENDBRANCH  35  36
ENDBRANCH  33  35
ENDBRANCH  31  32
ENDBRANCH  30  31
ENDBRANCH  28  30
ENDBRANCH  26  27
ENDBRANCH  25  26
ENDBRANCH   2  25
TORSDOF 24
ENDMDL
MODEL 7
REMARK VINA RESULT:      -5.4      2.342      8.675
REMARK  Name = 
REMARK  33 active torsions:
REMARK  status: ('A' for Active; 'I' for Inactive)
REMARK    1  A    between atoms: C_1  and  C_2
REMARK    2  A    between atoms: C_2  and  C_3
REMARK    3  A    between atoms: C_4  and  C_5
REMARK    4  A    between atoms: C_5  and  C_6
REMARK    5  A    between atoms: C_6  and  C_7
REMARK    6  A    between atoms: C_7  and  C_8
REMARK    7  A    between atoms: C_9  and  C_10
REMARK    8  A    between atoms: C_10  and  C_11
REMARK    9  A    between atoms: C_11  and  C_12
REMARK   10  A    between atoms: C_12  and  C_13
REMARK   11  A    between atoms: C_14  and  C_15
REMARK   12  A    between atoms: C_15  and  C_16
REMARK   13  A    between atoms: C_16  and  C_17
REMARK   14  A    between atoms: C_17  and  C_18
REMARK   15  A    between atoms: C_19  and  C_20
REMARK   16  A    between atoms: C_20  and  C_21
REMARK   17  A    between atoms: C_21  and  C_22
REMARK   18  A    between atoms: C_22  and  C_23
REMARK   19  A    between atoms: C_24  and  C_25
REMARK   20  A    between atoms: C_25  and  C_26
REMARK   21  A    between atoms: C_26  and  C_27
REMARK   22  A    between atoms: C_27  and  C_28
REMARK   23  A    between atoms: C_29  and  C_30
REMARK   24  A    between atoms: C_30  and  C_31
REMARK   25  A    between atoms: C_31  and  C_32
REMARK   26  A    between atoms: C_32  and  C_33
REMARK   27  A    between atoms: C_34  and  C_35
REMARK   28  A    between atoms: C_35  and  C_36
REMARK   29  A    between atoms: C_36  and  C_37
REMARK   30  A    between atoms: C_37  and  C_38
REMARK   31  A    between atoms: C_39  and  C_40
REMARK   32  A    between atoms: C_40  and  C_41
REMARK   33  A    between atoms: C_46  and  O_47
REMARK                            x       y       z     vdW  Elec       q    Type
REMARK                         _______ _______ _______ _____ _____    ______ ____
ROOT
ATOM      1  C   UNL     1       6.736   0.694  25.925  0.00  0.00    -0.076 C 
ATOM      2  C   UNL     1       7.550   1.729  26.204  0.00  0.00    -0.028 C 
ATOM      3  C   UNL     1       5.525   0.906  25.039  0.00  0.00    +0.039 C 
ENDROOT
BRANCH   1   4
ATOM      4  C   UNL     1       7.057  -0.666  26.510  0.00  0.00    +0.034 C 
BRANCH   4   5
ATOM      5  C   UNL     1       6.900  -1.799  25.509  0.00  0.00    +0.031 C 
BRANCH   5   7
ATOM      6  C   UNL     1       7.713  -2.016  23.185  0.00  0.00    -0.076 C 
ATOM      7  C   UNL     1       7.994  -1.924  24.500  0.00  0.00    -0.028 C 
ATOM      8  C   UNL     1       6.270  -1.996  22.717  0.00  0.00    +0.039 C 
BRANCH   6   9
ATOM      9  C   UNL     1       8.858  -2.139  22.207  0.00  0.00    +0.034 C 
BRANCH   9  10
ATOM     10  C   UNL     1       9.299  -0.800  21.644  0.00  0.00    +0.031 C 
BRANCH  10  12
ATOM     11  C   UNL     1       9.636   1.244  22.989  0.00  0.00    -0.076 C 
ATOM     12  C   UNL     1      10.101   0.051  22.572  0.00  0.00    -0.028 C 
ATOM     13  C   UNL     1       8.282   1.736  22.513  0.00  0.00    +0.039 C 
BRANCH  11  14
ATOM     14  C   UNL     1      10.484   2.067  23.934  0.00  0.00    +0.034 C 
BRANCH  14  15
ATOM     15  C   UNL     1      10.855   3.427  23.370  0.00  0.00    +0.031 C 
BRANCH  15  17
ATOM     16  C   UNL     1      10.423   5.763  24.081  0.00  0.00    -0.076 C 
ATOM     17  C   UNL     1       9.938   4.552  23.731  0.00  0.00    -0.028 C 
ATOM     18  C   UNL     1      11.920   5.995  24.112  0.00  0.00    +0.039 C 
BRANCH  16  19
ATOM     19  C   UNL     1       9.456   6.863  24.443  0.00  0.00    +0.034 C 
BRANCH  19  20
ATOM     20  C   UNL     1       8.307   7.072  23.457  0.00  0.00    +0.031 C 
BRANCH  20  23
ATOM     21  C   UNL     1       4.775   5.849  24.523  0.00  0.00    +0.038 C 
ATOM     22  C   UNL     1       6.067   5.957  23.767  0.00  0.00    -0.080 C 
ATOM     23  C   UNL     1       6.958   6.915  24.092  0.00  0.00    -0.028 C 
ATOM     24  C   UNL     1       6.301   4.975  22.649  0.00  0.00    +0.038 C 
ENDBRANCH  20  23
ENDBRANCH  19  20
ENDBRANCH  16  19
ENDBRANCH  15  17
ENDBRANCH  14  15
ENDBRANCH  11  14
ENDBRANCH  10  12
ENDBRANCH   9  10
ENDBRANCH   6   9
ENDBRANCH   5   7
ENDBRANCH   4   5
ENDBRANCH   1   4
BRANCH   2  25
ATOM     25  C   UNL     1       7.303   3.109  25.673  0.00  0.00    +0.031 C 
BRANCH  25  26
ATOM     26  C   UNL     1       7.340   4.188  26.749  0.00  0.00    +0.034 C 
BRANCH  26  27
ATOM     27  C   UNL     1       6.355   3.869  27.848  0.00  0.00    -0.076 C 
ATOM     28  C   UNL     1       5.032   3.822  27.603  0.00  0.00    -0.028 C 
ATOM     29  C   UNL     1       6.918   3.574  29.215  0.00  0.00    +0.039 C 
BRANCH  28  30
ATOM     30  C   UNL     1       4.023   3.493  28.664  0.00  0.00    +0.031 C 
BRANCH  30  31
ATOM     31  C   UNL     1       2.984   2.465  28.213  0.00  0.00    +0.034 C 
BRANCH  31  32
ATOM     32  C   UNL     1       3.529   1.059  28.320  0.00  0.00    -0.076 C 
ATOM     33  C   UNL     1       3.084   0.070  27.521  0.00  0.00    -0.028 C 
ATOM     34  C   UNL     1       4.605   0.819  29.348  0.00  0.00    +0.039 C 
BRANCH  33  35
ATOM     35  C   UNL     1       3.611  -1.336  27.598  0.00  0.00    +0.031 C 
BRANCH  35  36
ATOM     36  C   UNL     1       3.112  -2.240  26.466  0.00  0.00    +0.034 C 
BRANCH  36  37
ATOM     37  C   UNL     1       3.860  -3.556  26.451  0.00  0.00    -0.076 C 
ATOM     38  C   UNL     1       3.824  -4.360  25.371  0.00  0.00    -0.023 C 
ATOM     39  C   UNL     1       4.682  -3.891  27.668  0.00  0.00    +0.039 C 
BRANCH  38  40
ATOM     40  C   UNL     1       4.552  -5.670  25.221  0.00  0.00    +0.066 C 
BRANCH  40  41
ATOM     41  C   UNL     1       5.507  -5.687  24.049  0.00  0.00    -0.002 A 
ATOM     42  C   UNL     1       5.068  -5.911  22.738  0.00  0.00    +0.120 A 
ATOM     43  C   UNL     1       5.960  -5.892  21.664  0.00  0.00    +0.046 A 
ATOM     44  C   UNL     1       7.313  -5.644  21.891  0.00  0.00    +0.004 A 
ATOM     45  C   UNL     1       7.772  -5.430  23.189  0.00  0.00    +0.001 A 
ATOM     46  C   UNL     1       6.876  -5.452  24.259  0.00  0.00    +0.007 A 
BRANCH  42  47
ATOM     47  O   UNL     1       3.741  -6.148  22.509  0.00  0.00    -0.506 OA
ATOM     48  H   UNL     1       3.588  -7.107  22.527  0.00  0.00    +0.292 HD
ENDBRANCH  42  47
ENDBRANCH  40  41
ENDBRANCH  38  40
ENDBRANCH  36  37
ENDBRANCH  35  36
ENDBRANCH  33  35
ENDBRANCH  31  32
ENDBRANCH  30  31
ENDBRANCH  28  30
ENDBRANCH  26  27
ENDBRANCH  25  26
ENDBRANCH   2  25
TORSDOF 24
ENDMDL
MODEL 8
REMARK VINA RESULT:      -5.4      2.109      9.793
REMARK  Name = 
REMARK  33 active torsions:
REMARK  status: ('A' for Active; 'I' for Inactive)
REMARK    1  A    between atoms: C_1  and  C_2
REMARK    2  A    between atoms: C_2  and  C_3
REMARK    3  A    between atoms: C_4  and  C_5
REMARK    4  A    between atoms: C_5  and  C_6
REMARK    5  A    between atoms: C_6  and  C_7
REMARK    6  A    between atoms: C_7  and  C_8
REMARK    7  A    between atoms: C_9  and  C_10
REMARK    8  A    between atoms: C_10  and  C_11
REMARK    9  A    between atoms: C_11  and  C_12
REMARK   10  A    between atoms: C_12  and  C_13
REMARK   11  A    between atoms: C_14  and  C_15
REMARK   12  A    between atoms: C_15  and  C_16
REMARK   13  A    between atoms: C_16  and  C_17
REMARK   14  A    between atoms: C_17  and  C_18
REMARK   15  A    between atoms: C_19  and  C_20
REMARK   16  A    between atoms: C_20  and  C_21
REMARK   17  A    between atoms: C_21  and  C_22
REMARK   18  A    between atoms: C_22  and  C_23
REMARK   19  A    between atoms: C_24  and  C_25
REMARK   20  A    between atoms: C_25  and  C_26
REMARK   21  A    between atoms: C_26  and  C_27
REMARK   22  A    between atoms: C_27  and  C_28
REMARK   23  A    between atoms: C_29  and  C_30
REMARK   24  A    between atoms: C_30  and  C_31
REMARK   25  A    between atoms: C_31  and  C_32
REMARK   26  A    between atoms: C_32  and  C_33
REMARK   27  A    between atoms: C_34  and  C_35
REMARK   28  A    between atoms: C_35  and  C_36
REMARK   29  A    between atoms: C_36  and  C_37
REMARK   30  A    between atoms: C_37  and  C_38
REMARK   31  A    between atoms: C_39  and  C_40
REMARK   32  A    between atoms: C_40  and  C_41
REMARK   33  A    between atoms: C_46  and  O_47
REMARK                            x       y       z     vdW  Elec       q    Type
REMARK                         _______ _______ _______ _____ _____    ______ ____
ROOT
ATOM      1  C   UNL     1       6.536  -0.272  24.855  0.00  0.00    -0.076 C 
ATOM      2  C   UNL     1       7.827  -0.638  24.966  0.00  0.00    -0.028 C 
ATOM      3  C   UNL     1       5.481  -0.971  25.687  0.00  0.00    +0.039 C 
ENDROOT
BRANCH   1   4
ATOM      4  C   UNL     1       6.173   0.839  23.892  0.00  0.00    +0.034 C 
BRANCH   4   5
ATOM      5  C   UNL     1       5.562   2.049  24.580  0.00  0.00    +0.031 C 
BRANCH   5   7
ATOM      6  C   UNL     1       3.556   3.473  24.342  0.00  0.00    -0.076 C 
ATOM      7  C   UNL     1       4.590   2.834  23.761  0.00  0.00    -0.028 C 
ATOM      8  C   UNL     1       3.368   3.397  25.846  0.00  0.00    +0.039 C 
BRANCH   6   9
ATOM      9  C   UNL     1       2.604   4.255  23.467  0.00  0.00    +0.034 C 
BRANCH   9  10
ATOM     10  C   UNL     1       2.960   5.728  23.376  0.00  0.00    +0.031 C 
BRANCH  10  12
ATOM     11  C   UNL     1       5.291   6.510  23.146  0.00  0.00    -0.076 C 
ATOM     12  C   UNL     1       4.171   6.043  22.562  0.00  0.00    -0.028 C 
ATOM     13  C   UNL     1       5.329   6.721  24.647  0.00  0.00    +0.039 C 
BRANCH  11  14
ATOM     14  C   UNL     1       6.494   6.809  22.279  0.00  0.00    +0.034 C 
BRANCH  14  15
ATOM     15  C   UNL     1       7.815   6.521  22.971  0.00  0.00    +0.031 C 
BRANCH  15  17
ATOM     16  C   UNL     1       8.700   4.578  24.232  0.00  0.00    -0.076 C 
ATOM     17  C   UNL     1       8.185   5.076  23.087  0.00  0.00    -0.028 C 
ATOM     18  C   UNL     1       8.911   5.490  25.424  0.00  0.00    +0.039 C 
BRANCH  16  19
ATOM     19  C   UNL     1       9.063   3.115  24.295  0.00  0.00    +0.034 C 
BRANCH  19  20
ATOM     20  C   UNL     1      10.247   2.698  23.423  0.00  0.00    +0.031 C 
BRANCH  20  23
ATOM     21  C   UNL     1       9.756  -0.836  21.879  0.00  0.00    +0.038 C 
ATOM     22  C   UNL     1       9.601   0.638  22.120  0.00  0.00    -0.080 C 
ATOM     23  C   UNL     1      10.268   1.227  23.133  0.00  0.00    -0.028 C 
ATOM     24  C   UNL     1       8.678   1.398  21.204  0.00  0.00    +0.038 C 
ENDBRANCH  20  23
ENDBRANCH  19  20
ENDBRANCH  16  19
ENDBRANCH  15  17
ENDBRANCH  14  15
ENDBRANCH  11  14
ENDBRANCH  10  12
ENDBRANCH   9  10
ENDBRANCH   6   9
ENDBRANCH   5   7
ENDBRANCH   4   5
ENDBRANCH   1   4
BRANCH   2  25
ATOM     25  C   UNL     1       8.273  -1.733  25.888  0.00  0.00    +0.031 C 
BRANCH  25  26
ATOM     26  C   UNL     1       8.990  -2.873  25.174  0.00  0.00    +0.034 C 
BRANCH  26  27
ATOM     27  C   UNL     1       8.404  -4.202  25.585  0.00  0.00    -0.076 C 
ATOM     28  C   UNL     1       7.175  -4.282  26.128  0.00  0.00    -0.028 C 
ATOM     29  C   UNL     1       9.239  -5.432  25.331  0.00  0.00    +0.039 C 
BRANCH  28  30
ATOM     30  C   UNL     1       6.552  -5.585  26.535  0.00  0.00    +0.031 C 
BRANCH  30  31
ATOM     31  C   UNL     1       6.094  -5.606  27.994  0.00  0.00    +0.034 C 
BRANCH  31  32
ATOM     32  C   UNL     1       4.618  -5.299  28.104  0.00  0.00    -0.076 C 
ATOM     33  C   UNL     1       4.170  -4.036  28.241  0.00  0.00    -0.028 C 
ATOM     34  C   UNL     1       3.668  -6.469  28.035  0.00  0.00    +0.039 C 
BRANCH  33  35
ATOM     35  C   UNL     1       2.709  -3.698  28.344  0.00  0.00    +0.031 C 
BRANCH  35  36
ATOM     36  C   UNL     1       2.162  -2.962  27.117  0.00  0.00    +0.034 C 
BRANCH  36  37
ATOM     37  C   UNL     1       2.205  -3.846  25.888  0.00  0.00    -0.076 C 
ATOM     38  C   UNL     1       3.177  -3.701  24.966  0.00  0.00    -0.023 C 
ATOM     39  C   UNL     1       1.153  -4.918  25.778  0.00  0.00    +0.039 C 
BRANCH  38  40
ATOM     40  C   UNL     1       3.348  -4.539  23.726  0.00  0.00    +0.066 C 
BRANCH  40  41
ATOM     41  C   UNL     1       4.763  -4.528  23.193  0.00  0.00    -0.002 A 
ATOM     42  C   UNL     1       5.497  -5.707  23.016  0.00  0.00    +0.120 A 
ATOM     43  C   UNL     1       6.792  -5.679  22.493  0.00  0.00    +0.046 A 
ATOM     44  C   UNL     1       7.370  -4.462  22.136  0.00  0.00    +0.004 A 
ATOM     45  C   UNL     1       6.661  -3.277  22.316  0.00  0.00    +0.001 A 
ATOM     46  C   UNL     1       5.367  -3.310  22.840  0.00  0.00    +0.007 A 
BRANCH  42  47
ATOM     47  O   UNL     1       4.932  -6.904  23.358  0.00  0.00    -0.506 OA
ATOM     48  H   UNL     1       3.975  -6.851  23.208  0.00  0.00    +0.292 HD
ENDBRANCH  42  47
ENDBRANCH  40  41
ENDBRANCH  38  40
ENDBRANCH  36  37
ENDBRANCH  35  36
ENDBRANCH  33  35
ENDBRANCH  31  32
ENDBRANCH  30  31
ENDBRANCH  28  30
ENDBRANCH  26  27
ENDBRANCH  25  26
ENDBRANCH   2  25
TORSDOF 24
ENDMDL
MODEL 9
REMARK VINA RESULT:      -5.4      1.603      8.933
REMARK  Name = 
REMARK  33 active torsions:
REMARK  status: ('A' for Active; 'I' for Inactive)
REMARK    1  A    between atoms: C_1  and  C_2
REMARK    2  A    between atoms: C_2  and  C_3
REMARK    3  A    between atoms: C_4  and  C_5
REMARK    4  A    between atoms: C_5  and  C_6
REMARK    5  A    between atoms: C_6  and  C_7
REMARK    6  A    between atoms: C_7  and  C_8
REMARK    7  A    between atoms: C_9  and  C_10
REMARK    8  A    between atoms: C_10  and  C_11
REMARK    9  A    between atoms: C_11  and  C_12
REMARK   10  A    between atoms: C_12  and  C_13
REMARK   11  A    between atoms: C_14  and  C_15
REMARK   12  A    between atoms: C_15  and  C_16
REMARK   13  A    between atoms: C_16  and  C_17
REMARK   14  A    between atoms: C_17  and  C_18
REMARK   15  A    between atoms: C_19  and  C_20
REMARK   16  A    between atoms: C_20  and  C_21
REMARK   17  A    between atoms: C_21  and  C_22
REMARK   18  A    between atoms: C_22  and  C_23
REMARK   19  A    between atoms: C_24  and  C_25
REMARK   20  A    between atoms: C_25  and  C_26
REMARK   21  A    between atoms: C_26  and  C_27
REMARK   22  A    between atoms: C_27  and  C_28
REMARK   23  A    between atoms: C_29  and  C_30
REMARK   24  A    between atoms: C_30  and  C_31
REMARK   25  A    between atoms: C_31  and  C_32
REMARK   26  A    between atoms: C_32  and  C_33
REMARK   27  A    between atoms: C_34  and  C_35
REMARK   28  A    between atoms: C_35  and  C_36
REMARK   29  A    between atoms: C_36  and  C_37
REMARK   30  A    between atoms: C_37  and  C_38
REMARK   31  A    between atoms: C_39  and  C_40
REMARK   32  A    between atoms: C_40  and  C_41
REMARK   33  A    between atoms: C_46  and  O_47
REMARK                            x       y       z     vdW  Elec       q    Type
REMARK                         _______ _______ _______ _____ _____    ______ ____
ROOT
ATOM      1  C   UNL     1       6.335  -4.769  22.424  0.00  0.00    -0.076 C 
ATOM      2  C   UNL     1       5.050  -4.760  22.826  0.00  0.00    -0.028 C 
ATOM      3  C   UNL     1       7.027  -6.086  22.141  0.00  0.00    +0.039 C 
ENDROOT
BRANCH   1   4
ATOM      4  C   UNL     1       7.059  -3.447  22.262  0.00  0.00    +0.034 C 
BRANCH   4   5
ATOM      5  C   UNL     1       6.165  -2.243  22.506  0.00  0.00    +0.031 C 
BRANCH   5   7
ATOM      6  C   UNL     1       6.259  -0.453  24.208  0.00  0.00    -0.076 C 
ATOM      7  C   UNL     1       6.105  -1.761  23.918  0.00  0.00    -0.028 C 
ATOM      8  C   UNL     1       6.500   0.546  23.092  0.00  0.00    +0.039 C 
BRANCH   6   9
ATOM      9  C   UNL     1       6.187  -0.019  25.654  0.00  0.00    +0.034 C 
BRANCH   9  10
ATOM     10  C   UNL     1       7.440   0.702  26.117  0.00  0.00    +0.031 C 
BRANCH  10  12
ATOM     11  C   UNL     1       7.102   2.867  27.255  0.00  0.00    -0.076 C 
ATOM     12  C   UNL     1       7.356   2.192  26.118  0.00  0.00    -0.028 C 
ATOM     13  C   UNL     1       6.899   2.111  28.554  0.00  0.00    +0.039 C 
BRANCH  11  14
ATOM     14  C   UNL     1       7.032   4.377  27.205  0.00  0.00    +0.034 C 
BRANCH  14  15
ATOM     15  C   UNL     1       7.392   4.946  25.843  0.00  0.00    +0.031 C 
BRANCH  15  17
ATOM     16  C   UNL     1       6.188   4.893  23.677  0.00  0.00    -0.076 C 
ATOM     17  C   UNL     1       6.237   5.303  24.963  0.00  0.00    -0.028 C 
ATOM     18  C   UNL     1       7.318   4.060  23.107  0.00  0.00    +0.039 C 
BRANCH  16  19
ATOM     19  C   UNL     1       5.004   5.285  22.829  0.00  0.00    +0.034 C 
BRANCH  19  20
ATOM     20  C   UNL     1       3.840   4.294  22.834  0.00  0.00    +0.031 C 
BRANCH  20  23
ATOM     21  C   UNL     1       3.496   2.208  26.096  0.00  0.00    +0.038 C 
ATOM     22  C   UNL     1       3.367   3.341  25.120  0.00  0.00    -0.080 C 
ATOM     23  C   UNL     1       3.960   3.259  23.912  0.00  0.00    -0.028 C 
ATOM     24  C   UNL     1       2.574   4.545  25.556  0.00  0.00    +0.038 C 
ENDBRANCH  20  23
ENDBRANCH  19  20
ENDBRANCH  16  19
ENDBRANCH  15  17
ENDBRANCH  14  15
ENDBRANCH  11  14
ENDBRANCH  10  12
ENDBRANCH   9  10
ENDBRANCH   6   9
ENDBRANCH   5   7
ENDBRANCH   4   5
ENDBRANCH   1   4
BRANCH   2  25
ATOM     25  C   UNL     1       4.263  -6.020  23.019  0.00  0.00    +0.031 C 
BRANCH  25  26
ATOM     26  C   UNL     1       2.788  -5.774  23.319  0.00  0.00    +0.034 C 
BRANCH  26  27
ATOM     27  C   UNL     1       2.575  -5.607  24.805  0.00  0.00    -0.076 C 
ATOM     28  C   UNL     1       2.897  -6.589  25.668  0.00  0.00    -0.028 C 
ATOM     29  C   UNL     1       2.021  -4.287  25.278  0.00  0.00    +0.039 C 
BRANCH  28  30
ATOM     30  C   UNL     1       2.714  -6.455  27.151  0.00  0.00    +0.031 C 
BRANCH  30  31
ATOM     31  C   UNL     1       4.036  -6.390  27.919  0.00  0.00    +0.034 C 
BRANCH  31  32
ATOM     32  C   UNL     1       4.785  -5.116  27.603  0.00  0.00    -0.076 C 
ATOM     33  C   UNL     1       5.826  -5.106  26.748  0.00  0.00    -0.028 C 
ATOM     34  C   UNL     1       4.302  -3.854  28.273  0.00  0.00    +0.039 C 
BRANCH  33  35
ATOM     35  C   UNL     1       6.586  -3.854  26.408  0.00  0.00    +0.031 C 
BRANCH  35  36
ATOM     36  C   UNL     1       8.082  -3.940  26.724  0.00  0.00    +0.034 C 
BRANCH  36  37
ATOM     37  C   UNL     1       8.913  -3.785  25.468  0.00  0.00    -0.076 C 
ATOM     38  C   UNL     1       9.205  -2.563  24.979  0.00  0.00    -0.023 C 
ATOM     39  C   UNL     1       9.438  -5.045  24.833  0.00  0.00    +0.039 C 
BRANCH  38  40
ATOM     40  C   UNL     1      10.050  -2.278  23.764  0.00  0.00    +0.066 C 
BRANCH  40  41
ATOM     41  C   UNL     1      10.136  -0.805  23.434  0.00  0.00    -0.002 A 
ATOM     42  C   UNL     1       9.836  -0.314  22.158  0.00  0.00    +0.120 A 
ATOM     43  C   UNL     1       9.891   1.054  21.880  0.00  0.00    +0.046 A 
ATOM     44  C   UNL     1      10.246   1.952  22.885  0.00  0.00    +0.004 A 
ATOM     45  C   UNL     1      10.558   1.482  24.158  0.00  0.00    +0.001 A 
ATOM     46  C   UNL     1      10.504   0.114  24.430  0.00  0.00    +0.007 A 
BRANCH  42  47
ATOM     47  O   UNL     1       9.481  -1.190  21.170  0.00  0.00    -0.506 OA
ATOM     48  H   UNL     1      10.283  -1.472  20.700  0.00  0.00    +0.292 HD
ENDBRANCH  42  47
ENDBRANCH  40  41
ENDBRANCH  38  40
ENDBRANCH  36  37
ENDBRANCH  35  36
ENDBRANCH  33  35
ENDBRANCH  31  32
ENDBRANCH  30  31
ENDBRANCH  28  30
ENDBRANCH  26  27
ENDBRANCH  25  26
ENDBRANCH   2  25
TORSDOF 24
ENDMDL
