MODEL 1
REMARK VINA RESULT:      -3.7      0.000      0.000
REMARK  Name = 
REMARK  7 active torsions:
REMARK  status: ('A' for Active; 'I' for Inactive)
REMARK    1  A    between atoms: N_1  and  CA_2
REMARK    2  A    between atoms: CA_2  and  C_4
REMARK    3  A    between atoms: CA_2  and  C_9
REMARK    4  A    between atoms: C_4  and  C_5
REMARK    5  A    between atoms: C_5  and  C_6
REMARK    6  A    between atoms: C_6  and  C_7
REMARK    7  A    between atoms: C_9  and  O_10
REMARK                            x       y       z     vdW  Elec       q    Type
REMARK                         _______ _______ _______ _____ _____    ______ ____
ROOT
ATOM      1  CA  UNL     1       9.911   1.789  24.103  0.00  0.00    +0.161 C 
ENDROOT
BRANCH   1   2
ATOM      2  N   UNL     1       8.505   1.519  23.675  0.00  0.00    -0.318 NA
ATOM      3  H1  UNL     1       8.412   0.534  23.410  0.00  0.00    +0.119 HD
ATOM      4  H2  UNL     1       7.910   1.604  24.505  0.00  0.00    +0.119 HD
ENDBRANCH   1   2
BRANCH   1   5
ATOM      5  C   UNL     1      10.594   2.695  23.062  0.00  0.00    +0.322 C 
ATOM      6  OXT UNL     1      11.338   3.626  23.321  0.00  0.00    -0.249 OA
BRANCH   5   7
ATOM      7  O   UNL     1      10.261   2.328  21.797  0.00  0.00    -0.480 OA
ATOM      8  H   UNL     1      10.478   3.107  21.227  0.00  0.00    +0.295 HD
ENDBRANCH   5   7
ENDBRANCH   1   5
BRANCH   1   9
ATOM      9  C   UNL     1      10.718   0.505  24.347  0.00  0.00    +0.030 C 
BRANCH   9  10
ATOM     10  C   UNL     1       9.915  -0.788  24.157  0.00  0.00    +0.009 C 
BRANCH  10  11
ATOM     11  C   UNL     1      10.353  -1.557  22.915  0.00  0.00    +0.071 C 
BRANCH  11  12
ATOM     12  C   UNL     1       9.426  -1.307  21.748  0.00  0.00    +0.223 C 
ATOM     13  O   UNL     1       9.312  -0.231  21.169  0.00  0.00    -0.301 OA
ENDBRANCH  11  12
ENDBRANCH  10  11
ENDBRANCH   9  10
ENDBRANCH   1   9
TORSDOF 7
ENDMDL
MODEL 2
REMARK VINA RESULT:      -3.7      6.326      7.038
REMARK  Name = 
REMARK  7 active torsions:
REMARK  status: ('A' for Active; 'I' for Inactive)
REMARK    1  A    between atoms: N_1  and  CA_2
REMARK    2  A    between atoms: CA_2  and  C_4
REMARK    3  A    between atoms: CA_2  and  C_9
REMARK    4  A    between atoms: C_4  and  C_5
REMARK    5  A    between atoms: C_5  and  C_6
REMARK    6  A    between atoms: C_6  and  C_7
REMARK    7  A    between atoms: C_9  and  O_10
REMARK                            x       y       z     vdW  Elec       q    Type
REMARK                         _______ _______ _______ _____ _____    ______ ____
ROOT
ATOM      1  CA  UNL     1       9.113  -4.524  25.270  0.00  0.00    +0.161 C 
ENDROOT
BRANCH   1   2
ATOM      2  N   UNL     1       9.958  -5.753  25.192  0.00  0.00    -0.318 NA
ATOM      3  H1  UNL     1      10.491  -5.746  24.317  0.00  0.00    +0.119 HD
ATOM      4  H2  UNL     1      10.679  -5.676  25.916  0.00  0.00    +0.119 HD
ENDBRANCH   1   2
BRANCH   1   5
ATOM      5  C   UNL     1       8.136  -4.654  26.454  0.00  0.00    +0.322 C 
ATOM      6  OXT UNL     1       7.414  -3.763  26.870  0.00  0.00    -0.249 OA
BRANCH   5   7
ATOM      7  O   UNL     1       8.179  -5.901  26.992  0.00  0.00    -0.480 OA
ATOM      8  H   UNL     1       7.810  -5.810  27.906  0.00  0.00    +0.295 HD
ENDBRANCH   5   7
ENDBRANCH   1   5
BRANCH   1   9
ATOM      9  C   UNL     1       8.369  -4.226  23.960  0.00  0.00    +0.030 C 
BRANCH   9  10
ATOM     10  C   UNL     1       7.251  -5.223  23.631  0.00  0.00    +0.009 C 
BRANCH  10  11
ATOM     11  C   UNL     1       7.412  -5.827  22.239  0.00  0.00    +0.071 C 
BRANCH  11  12
ATOM     12  C   UNL     1       6.169  -5.634  21.401  0.00  0.00    +0.223 C 
ATOM     13  O   UNL     1       5.801  -4.558  20.941  0.00  0.00    -0.301 OA
ENDBRANCH  11  12
ENDBRANCH  10  11
ENDBRANCH   9  10
ENDBRANCH   1   9
TORSDOF 7
ENDMDL
MODEL 3
REMARK VINA RESULT:      -3.6      5.763      6.899
REMARK  Name = 
REMARK  7 active torsions:
REMARK  status: ('A' for Active; 'I' for Inactive)
REMARK    1  A    between atoms: N_1  and  CA_2
REMARK    2  A    between atoms: CA_2  and  C_4
REMARK    3  A    between atoms: CA_2  and  C_9
REMARK    4  A    between atoms: C_4  and  C_5
REMARK    5  A    between atoms: C_5  and  C_6
REMARK    6  A    between atoms: C_6  and  C_7
REMARK    7  A    between atoms: C_9  and  O_10
REMARK                            x       y       z     vdW  Elec       q    Type
REMARK                         _______ _______ _______ _____ _____    ______ ____
ROOT
ATOM      1  CA  UNL     1       9.030  -4.722  26.234  0.00  0.00    +0.161 C 
ENDROOT
BRANCH   1   2
ATOM      2  N   UNL     1       9.792  -5.648  25.344  0.00  0.00    -0.318 NA
ATOM      3  H1  UNL     1       9.308  -6.549  25.292  0.00  0.00    +0.119 HD
ATOM      4  H2  UNL     1       9.725  -5.281  24.390  0.00  0.00    +0.119 HD
ENDBRANCH   1   2
BRANCH   1   5
ATOM      5  C   UNL     1       7.718  -5.403  26.671  0.00  0.00    +0.322 C 
ATOM      6  OXT UNL     1       7.487  -5.830  27.790  0.00  0.00    -0.249 OA
BRANCH   5   7
ATOM      7  O   UNL     1       6.836  -5.475  25.640  0.00  0.00    -0.480 OA
ATOM      8  H   UNL     1       7.384  -5.453  24.817  0.00  0.00    +0.295 HD
ENDBRANCH   5   7
ENDBRANCH   1   5
BRANCH   1   9
ATOM      9  C   UNL     1       8.764  -3.355  25.588  0.00  0.00    +0.030 C 
BRANCH   9  10
ATOM     10  C   UNL     1       9.330  -3.209  24.169  0.00  0.00    +0.009 C 
BRANCH  10  11
ATOM     11  C   UNL     1       8.260  -2.792  23.166  0.00  0.00    +0.071 C 
BRANCH  11  12
ATOM     12  C   UNL     1       7.478  -3.981  22.658  0.00  0.00    +0.223 C 
ATOM     13  O   UNL     1       7.745  -5.150  22.916  0.00  0.00    -0.301 OA
ENDBRANCH  11  12
ENDBRANCH  10  11
ENDBRANCH   9  10
ENDBRANCH   1   9
TORSDOF 7
ENDMDL
MODEL 4
REMARK VINA RESULT:      -3.6      2.295      4.118
REMARK  Name = 
REMARK  7 active torsions:
REMARK  status: ('A' for Active; 'I' for Inactive)
REMARK    1  A    between atoms: N_1  and  CA_2
REMARK    2  A    between atoms: CA_2  and  C_4
REMARK    3  A    between atoms: CA_2  and  C_9
REMARK    4  A    between atoms: C_4  and  C_5
REMARK    5  A    between atoms: C_5  and  C_6
REMARK    6  A    between atoms: C_6  and  C_7
REMARK    7  A    between atoms: C_9  and  O_10
REMARK                            x       y       z     vdW  Elec       q    Type
REMARK                         _______ _______ _______ _____ _____    ______ ____
ROOT
ATOM      1  CA  UNL     1       8.816  -1.426  22.610  0.00  0.00    +0.161 C 
ENDROOT
BRANCH   1   2
ATOM      2  N   UNL     1       7.674  -0.702  23.245  0.00  0.00    -0.318 NA
ATOM      3  H1  UNL     1       7.306  -1.259  24.021  0.00  0.00    +0.119 HD
ATOM      4  H2  UNL     1       8.056   0.131  23.705  0.00  0.00    +0.119 HD
ENDBRANCH   1   2
BRANCH   1   5
ATOM      5  C   UNL     1       9.793  -1.893  23.705  0.00  0.00    +0.322 C 
ATOM      6  OXT UNL     1      10.193  -3.037  23.848  0.00  0.00    -0.249 OA
BRANCH   5   7
ATOM      7  O   UNL     1      10.160  -0.862  24.510  0.00  0.00    -0.480 OA
ATOM      8  H   UNL     1       9.316  -0.486  24.863  0.00  0.00    +0.295 HD
ENDBRANCH   5   7
ENDBRANCH   1   5
BRANCH   1   9
ATOM      9  C   UNL     1       9.532  -0.590  21.539  0.00  0.00    +0.030 C 
BRANCH   9  10
ATOM     10  C   UNL     1       9.074   0.873  21.473  0.00  0.00    +0.009 C 
BRANCH  10  11
ATOM     11  C   UNL     1      10.085   1.820  22.109  0.00  0.00    +0.071 C 
BRANCH  11  12
ATOM     12  C   UNL     1       9.545   2.444  23.375  0.00  0.00    +0.223 C 
ATOM     13  O   UNL     1       9.178   1.812  24.361  0.00  0.00    -0.301 OA
ENDBRANCH  11  12
ENDBRANCH  10  11
ENDBRANCH   9  10
ENDBRANCH   1   9
TORSDOF 7
ENDMDL
MODEL 5
REMARK VINA RESULT:      -3.6      4.755      6.348
REMARK  Name = 
REMARK  7 active torsions:
REMARK  status: ('A' for Active; 'I' for Inactive)
REMARK    1  A    between atoms: N_1  and  CA_2
REMARK    2  A    between atoms: CA_2  and  C_4
REMARK    3  A    between atoms: CA_2  and  C_9
REMARK    4  A    between atoms: C_4  and  C_5
REMARK    5  A    between atoms: C_5  and  C_6
REMARK    6  A    between atoms: C_6  and  C_7
REMARK    7  A    between atoms: C_9  and  O_10
REMARK                            x       y       z     vdW  Elec       q    Type
REMARK                         _______ _______ _______ _____ _____    ______ ____
ROOT
ATOM      1  CA  UNL     1       8.075  -4.820  26.096  0.00  0.00    +0.161 C 
ENDROOT
BRANCH   1   2
ATOM      2  N   UNL     1       8.190  -5.745  27.263  0.00  0.00    -0.318 NA
ATOM      3  H1  UNL     1       7.829  -6.668  27.003  0.00  0.00    +0.119 HD
ATOM      4  H2  UNL     1       9.188  -5.912  27.424  0.00  0.00    +0.119 HD
ENDBRANCH   1   2
BRANCH   1   5
ATOM      5  C   UNL     1       9.012  -5.300  24.972  0.00  0.00    +0.322 C 
ATOM      6  OXT UNL     1       8.692  -5.444  23.803  0.00  0.00    -0.249 OA
BRANCH   5   7
ATOM      7  O   UNL     1      10.260  -5.553  25.446  0.00  0.00    -0.480 OA
ATOM      8  H   UNL     1      10.381  -6.532  25.369  0.00  0.00    +0.295 HD
ENDBRANCH   5   7
ENDBRANCH   1   5
BRANCH   1   9
ATOM      9  C   UNL     1       8.348  -3.354  26.466  0.00  0.00    +0.030 C 
BRANCH   9  10
ATOM     10  C   UNL     1       8.023  -2.353  25.350  0.00  0.00    +0.009 C 
BRANCH  10  11
ATOM     11  C   UNL     1       9.263  -1.606  24.871  0.00  0.00    +0.071 C 
BRANCH  11  12
ATOM     12  C   UNL     1       9.577  -1.914  23.425  0.00  0.00    +0.223 C 
ATOM     13  O   UNL     1      10.540  -2.575  23.048  0.00  0.00    -0.301 OA
ENDBRANCH  11  12
ENDBRANCH  10  11
ENDBRANCH   9  10
ENDBRANCH   1   9
TORSDOF 7
ENDMDL
MODEL 6
REMARK VINA RESULT:      -3.6      1.800      2.165
REMARK  Name = 
REMARK  7 active torsions:
REMARK  status: ('A' for Active; 'I' for Inactive)
REMARK    1  A    between atoms: N_1  and  CA_2
REMARK    2  A    between atoms: CA_2  and  C_4
REMARK    3  A    between atoms: CA_2  and  C_9
REMARK    4  A    between atoms: C_4  and  C_5
REMARK    5  A    between atoms: C_5  and  C_6
REMARK    6  A    between atoms: C_6  and  C_7
REMARK    7  A    between atoms: C_9  and  O_10
REMARK                            x       y       z     vdW  Elec       q    Type
REMARK                         _______ _______ _______ _____ _____    ______ ____
ROOT
ATOM      1  CA  UNL     1      10.259   2.005  22.907  0.00  0.00    +0.161 C 
ENDROOT
BRANCH   1   2
ATOM      2  N   UNL     1      10.630   3.450  22.962  0.00  0.00    -0.318 NA
ATOM      3  H1  UNL     1       9.794   4.023  22.814  0.00  0.00    +0.119 HD
ATOM      4  H2  UNL     1      10.901   3.661  23.927  0.00  0.00    +0.119 HD
ENDBRANCH   1   2
BRANCH   1   5
ATOM      5  C   UNL     1       9.089   1.818  21.922  0.00  0.00    +0.322 C 
ATOM      6  OXT UNL     1       8.107   2.539  21.852  0.00  0.00    -0.249 OA
BRANCH   5   7
ATOM      7  O   UNL     1       9.284   0.733  21.127  0.00  0.00    -0.480 OA
ATOM      8  H   UNL     1       8.546   0.750  20.468  0.00  0.00    +0.295 HD
ENDBRANCH   5   7
ENDBRANCH   1   5
BRANCH   1   9
ATOM      9  C   UNL     1       9.929   1.419  24.288  0.00  0.00    +0.030 C 
BRANCH   9  10
ATOM     10  C   UNL     1      10.580   0.058  24.566  0.00  0.00    +0.009 C 
BRANCH  10  11
ATOM     11  C   UNL     1       9.580  -1.088  24.461  0.00  0.00    +0.071 C 
BRANCH  11  12
ATOM     12  C   UNL     1       9.894  -1.997  23.296  0.00  0.00    +0.223 C 
ATOM     13  O   UNL     1      10.641  -1.704  22.367  0.00  0.00    -0.301 OA
ENDBRANCH  11  12
ENDBRANCH  10  11
ENDBRANCH   9  10
ENDBRANCH   1   9
TORSDOF 7
ENDMDL
MODEL 7
REMARK VINA RESULT:      -3.6      6.235      6.873
REMARK  Name = 
REMARK  7 active torsions:
REMARK  status: ('A' for Active; 'I' for Inactive)
REMARK    1  A    between atoms: N_1  and  CA_2
REMARK    2  A    between atoms: CA_2  and  C_4
REMARK    3  A    between atoms: CA_2  and  C_9
REMARK    4  A    between atoms: C_4  and  C_5
REMARK    5  A    between atoms: C_5  and  C_6
REMARK    6  A    between atoms: C_6  and  C_7
REMARK    7  A    between atoms: C_9  and  O_10
REMARK                            x       y       z     vdW  Elec       q    Type
REMARK                         _______ _______ _______ _____ _____    ______ ____
ROOT
ATOM      1  CA  UNL     1       8.087  -5.455  25.663  0.00  0.00    +0.161 C 
ENDROOT
BRANCH   1   2
ATOM      2  N   UNL     1       8.077  -5.549  27.153  0.00  0.00    -0.318 NA
ATOM      3  H1  UNL     1       7.149  -5.298  27.505  0.00  0.00    +0.119 HD
ATOM      4  H2  UNL     1       8.170  -6.540  27.399  0.00  0.00    +0.119 HD
ENDBRANCH   1   2
BRANCH   1   5
ATOM      5  C   UNL     1       9.444  -4.893  25.198  0.00  0.00    +0.322 C 
ATOM      6  OXT UNL     1       9.591  -3.979  24.403  0.00  0.00    -0.249 OA
BRANCH   5   7
ATOM      7  O   UNL     1      10.476  -5.551  25.787  0.00  0.00    -0.480 OA
ATOM      8  H   UNL     1      10.785  -4.960  26.520  0.00  0.00    +0.295 HD
ENDBRANCH   5   7
ENDBRANCH   1   5
BRANCH   1   9
ATOM      9  C   UNL     1       6.917  -4.628  25.108  0.00  0.00    +0.030 C 
BRANCH   9  10
ATOM     10  C   UNL     1       6.082  -5.355  24.046  0.00  0.00    +0.009 C 
BRANCH  10  11
ATOM     11  C   UNL     1       6.745  -5.324  22.674  0.00  0.00    +0.071 C 
BRANCH  11  12
ATOM     12  C   UNL     1       6.433  -4.046  21.932  0.00  0.00    +0.223 C 
ATOM     13  O   UNL     1       5.308  -3.571  21.808  0.00  0.00    -0.301 OA
ENDBRANCH  11  12
ENDBRANCH  10  11
ENDBRANCH   9  10
ENDBRANCH   1   9
TORSDOF 7
ENDMDL
MODEL 8
REMARK VINA RESULT:      -3.5      2.121      2.427
REMARK  Name = 
REMARK  7 active torsions:
REMARK  status: ('A' for Active; 'I' for Inactive)
REMARK    1  A    between atoms: N_1  and  CA_2
REMARK    2  A    between atoms: CA_2  and  C_4
REMARK    3  A    between atoms: CA_2  and  C_9
REMARK    4  A    between atoms: C_4  and  C_5
REMARK    5  A    between atoms: C_5  and  C_6
REMARK    6  A    between atoms: C_6  and  C_7
REMARK    7  A    between atoms: C_9  and  O_10
REMARK                            x       y       z     vdW  Elec       q    Type
REMARK                         _______ _______ _______ _____ _____    ______ ____
ROOT
ATOM      1  CA  UNL     1       9.055   1.708  22.830  0.00  0.00    +0.161 C 
ENDROOT
BRANCH   1   2
ATOM      2  N   UNL     1       9.530   2.177  21.494  0.00  0.00    -0.318 NA
ATOM      3  H1  UNL     1       9.912   1.385  20.969  0.00  0.00    +0.119 HD
ATOM      4  H2  UNL     1       8.704   2.451  20.953  0.00  0.00    +0.119 HD
ENDBRANCH   1   2
BRANCH   1   5
ATOM      5  C   UNL     1      10.147   1.981  23.882  0.00  0.00    +0.322 C 
ATOM      6  OXT UNL     1      11.084   2.750  23.739  0.00  0.00    -0.249 OA
BRANCH   5   7
ATOM      7  O   UNL     1       9.940   1.248  25.007  0.00  0.00    -0.480 OA
ATOM      8  H   UNL     1       9.867   1.905  25.744  0.00  0.00    +0.295 HD
ENDBRANCH   5   7
ENDBRANCH   1   5
BRANCH   1   9
ATOM      9  C   UNL     1       8.634   0.231  22.829  0.00  0.00    +0.030 C 
BRANCH   9  10
ATOM     10  C   UNL     1       9.373  -0.634  21.800  0.00  0.00    +0.009 C 
BRANCH  10  11
ATOM     11  C   UNL     1      10.398  -1.554  22.454  0.00  0.00    +0.071 C 
BRANCH  11  12
ATOM     12  C   UNL     1       9.858  -2.182  23.717  0.00  0.00    +0.223 C 
ATOM     13  O   UNL     1      10.092  -3.332  24.077  0.00  0.00    -0.301 OA
ENDBRANCH  11  12
ENDBRANCH  10  11
ENDBRANCH   9  10
ENDBRANCH   1   9
TORSDOF 7
ENDMDL
MODEL 9
REMARK VINA RESULT:      -3.5      2.047      4.033
REMARK  Name = 
REMARK  7 active torsions:
REMARK  status: ('A' for Active; 'I' for Inactive)
REMARK    1  A    between atoms: N_1  and  CA_2
REMARK    2  A    between atoms: CA_2  and  C_4
REMARK    3  A    between atoms: CA_2  and  C_9
REMARK    4  A    between atoms: C_4  and  C_5
REMARK    5  A    between atoms: C_5  and  C_6
REMARK    6  A    between atoms: C_6  and  C_7
REMARK    7  A    between atoms: C_9  and  O_10
REMARK                            x       y       z     vdW  Elec       q    Type
REMARK                         _______ _______ _______ _____ _____    ______ ____
ROOT
ATOM      1  CA  UNL     1       9.616  -1.906  23.238  0.00  0.00    +0.161 C 
ENDROOT
BRANCH   1   2
ATOM      2  N   UNL     1      10.564  -1.682  22.105  0.00  0.00    -0.318 NA
ATOM      3  H1  UNL     1      11.128  -2.525  21.961  0.00  0.00    +0.119 HD
ATOM      4  H2  UNL     1      10.007  -1.613  21.248  0.00  0.00    +0.119 HD
ENDBRANCH   1   2
BRANCH   1   5
ATOM      5  C   UNL     1       8.176  -1.959  22.692  0.00  0.00    +0.322 C 
ATOM      6  OXT UNL     1       7.636  -2.951  22.230  0.00  0.00    -0.249 OA
BRANCH   5   7
ATOM      7  O   UNL     1       7.570  -0.747  22.786  0.00  0.00    -0.480 OA
ATOM      8  H   UNL     1       7.655  -0.479  23.735  0.00  0.00    +0.295 HD
ENDBRANCH   5   7
ENDBRANCH   1   5
BRANCH   1   9
ATOM      9  C   UNL     1       9.756  -0.858  24.351  0.00  0.00    +0.030 C 
BRANCH   9  10
ATOM     10  C   UNL     1      10.765   0.256  24.043  0.00  0.00    +0.009 C 
BRANCH  10  11
ATOM     11  C   UNL     1      10.078   1.583  23.739  0.00  0.00    +0.071 C 
BRANCH  11  12
ATOM     12  C   UNL     1      10.022   1.855  22.253  0.00  0.00    +0.223 C 
ATOM     13  O   UNL     1       9.472   1.127  21.433  0.00  0.00    -0.301 OA
ENDBRANCH  11  12
ENDBRANCH  10  11
ENDBRANCH   9  10
ENDBRANCH   1   9
TORSDOF 7
ENDMDL
