MODEL 1
REMARK VINA RESULT:      -7.3      0.000      0.000
REMARK  Name = 
REMARK  2 active torsions:
REMARK  status: ('A' for Active; 'I' for Inactive)
REMARK    1  A    between atoms: N_8  and  S_9
REMARK    2  A    between atoms: S_9  and  C_12
REMARK                            x       y       z     vdW  Elec       q    Type
REMARK                         _______ _______ _______ _____ _____    ______ ____
ROOT
ATOM      1 CL   UNL     1      11.012   3.784  23.360  0.00  0.00    -0.083 Cl
ATOM      2  C   UNL     1      10.278   2.230  23.234  0.00  0.00    +0.043 A 
ATOM      3  C   UNL     1      10.656   1.224  24.132  0.00  0.00    +0.051 A 
ATOM      4  C   UNL     1      10.051  -0.031  23.994  0.00  0.00    +0.113 A 
ATOM      5  C   UNL     1       9.148  -0.238  22.964  0.00  0.00    +0.157 A 
ATOM      6  O   UNL     1       8.787  -1.555  22.991  0.00  0.00    -0.424 OA
ATOM      7  C   UNL     1       9.434  -2.048  24.091  0.00  0.00    +0.308 A 
ATOM      8  N   UNL     1       9.407  -3.402  24.460  0.00  0.00    -0.169 N 
ATOM      9  H   UNL     1       9.238  -4.036  23.685  0.00  0.00    +0.178 HD
ATOM     10  C   UNL     1       8.730   0.741  22.070  0.00  0.00    +0.050 A 
ATOM     11  N   UNL     1      10.193  -1.183  24.725  0.00  0.00    -0.194 NA
ATOM     12  C   UNL     1       9.321   2.002  22.235  0.00  0.00    +0.024 A 
ENDROOT
BRANCH   8  13
ATOM     13  S   UNL     1       8.223  -3.704  25.616  0.00  0.00    +0.077 S 
ATOM     14  O   UNL     1       7.613  -2.433  25.940  0.00  0.00    -0.150 OA
ATOM     15  O   UNL     1       8.804  -4.501  26.677  0.00  0.00    -0.150 OA
BRANCH  13  16
ATOM     16  C   UNL     1       7.009  -4.684  24.787  0.00  0.00    +0.128 A 
ATOM     17  C   UNL     1       5.928  -5.256  25.461  0.00  0.00    +0.068 A 
ATOM     18 CL   UNL     1       5.646  -5.088  27.154  0.00  0.00    -0.082 Cl
ATOM     19  C   UNL     1       5.000  -6.017  24.740  0.00  0.00    +0.023 A 
ATOM     20  C   UNL     1       5.154  -6.214  23.364  0.00  0.00    +0.021 A 
ATOM     21  C   UNL     1       6.244  -5.653  22.705  0.00  0.00    +0.043 A 
ATOM     22 CL   UNL     1       6.443  -5.902  21.016  0.00  0.00    -0.083 Cl
ATOM     23  C   UNL     1       7.174  -4.893  23.407  0.00  0.00    +0.050 A 
ENDBRANCH  13  16
ENDBRANCH   8  13
TORSDOF 2
ENDMDL
MODEL 2
REMARK VINA RESULT:      -7.3      1.617      2.021
REMARK  Name = 
REMARK  2 active torsions:
REMARK  status: ('A' for Active; 'I' for Inactive)
REMARK    1  A    between atoms: N_8  and  S_9
REMARK    2  A    between atoms: S_9  and  C_12
REMARK                            x       y       z     vdW  Elec       q    Type
REMARK                         _______ _______ _______ _____ _____    ______ ____
ROOT
ATOM      1 CL   UNL     1       7.379   3.357  21.874  0.00  0.00    -0.083 Cl
ATOM      2  C   UNL     1       8.119   2.184  22.897  0.00  0.00    +0.043 A 
ATOM      3  C   UNL     1       7.408   1.024  23.227  0.00  0.00    +0.051 A 
ATOM      4  C   UNL     1       8.033   0.097  24.070  0.00  0.00    +0.113 A 
ATOM      5  C   UNL     1       9.293   0.380  24.572  0.00  0.00    +0.157 A 
ATOM      6  O   UNL     1       9.628  -0.624  25.435  0.00  0.00    -0.424 OA
ATOM      7  C   UNL     1       8.579  -1.498  25.342  0.00  0.00    +0.308 A 
ATOM      8  N   UNL     1       8.466  -2.655  26.128  0.00  0.00    -0.169 N 
ATOM      9  H   UNL     1       8.961  -2.600  27.013  0.00  0.00    +0.178 HD
ATOM     10  C   UNL     1      10.039   1.507  24.247  0.00  0.00    +0.050 A 
ATOM     11  N   UNL     1       7.609  -1.119  24.540  0.00  0.00    -0.194 NA
ATOM     12  C   UNL     1       9.415   2.415  23.379  0.00  0.00    +0.024 A 
ENDROOT
BRANCH   8  13
ATOM     13  S   UNL     1       9.045  -4.012  25.319  0.00  0.00    +0.077 S 
ATOM     14  O   UNL     1       9.598  -4.897  26.321  0.00  0.00    -0.150 OA
ATOM     15  O   UNL     1       9.882  -3.575  24.220  0.00  0.00    -0.150 OA
BRANCH  13  16
ATOM     16  C   UNL     1       7.611  -4.795  24.648  0.00  0.00    +0.128 A 
ATOM     17  C   UNL     1       6.576  -5.268  25.456  0.00  0.00    +0.068 A 
ATOM     18 CL   UNL     1       6.563  -5.156  27.177  0.00  0.00    -0.082 Cl
ATOM     19  C   UNL     1       5.465  -5.876  24.856  0.00  0.00    +0.023 A 
ATOM     20  C   UNL     1       5.394  -6.018  23.468  0.00  0.00    +0.021 A 
ATOM     21  C   UNL     1       6.440  -5.559  22.672  0.00  0.00    +0.043 A 
ATOM     22 CL   UNL     1       6.360  -5.742  20.965  0.00  0.00    -0.083 Cl
ATOM     23  C   UNL     1       7.549  -4.952  23.252  0.00  0.00    +0.050 A 
ENDBRANCH  13  16
ENDBRANCH   8  13
TORSDOF 2
ENDMDL
MODEL 3
REMARK VINA RESULT:      -7.0      2.970      8.288
REMARK  Name = 
REMARK  2 active torsions:
REMARK  status: ('A' for Active; 'I' for Inactive)
REMARK    1  A    between atoms: N_8  and  S_9
REMARK    2  A    between atoms: S_9  and  C_12
REMARK                            x       y       z     vdW  Elec       q    Type
REMARK                         _______ _______ _______ _____ _____    ______ ____
ROOT
ATOM      1 CL   UNL     1       7.102  -5.671  22.310  0.00  0.00    -0.083 Cl
ATOM      2  C   UNL     1       7.840  -4.275  23.003  0.00  0.00    +0.043 A 
ATOM      3  C   UNL     1       7.873  -3.086  22.264  0.00  0.00    +0.051 A 
ATOM      4  C   UNL     1       8.491  -1.975  22.851  0.00  0.00    +0.113 A 
ATOM      5  C   UNL     1       9.075  -2.105  24.100  0.00  0.00    +0.157 A 
ATOM      6  O   UNL     1       9.688  -0.921  24.395  0.00  0.00    -0.424 OA
ATOM      7  C   UNL     1       9.368  -0.116  23.336  0.00  0.00    +0.308 A 
ATOM      8  N   UNL     1       9.859   1.189  23.182  0.00  0.00    -0.169 N 
ATOM      9  H   UNL     1      10.745   1.353  23.652  0.00  0.00    +0.178 HD
ATOM     10  C   UNL     1       9.040  -3.261  24.873  0.00  0.00    +0.050 A 
ATOM     11  N   UNL     1       8.654  -0.692  22.395  0.00  0.00    -0.194 NA
ATOM     12  C   UNL     1       8.394  -4.359  24.288  0.00  0.00    +0.024 A 
ENDROOT
BRANCH   8  13
ATOM     13  S   UNL     1       8.770   2.333  23.763  0.00  0.00    +0.077 S 
ATOM     14  O   UNL     1       8.422   1.940  25.111  0.00  0.00    -0.150 OA
ATOM     15  O   UNL     1       7.717   2.510  22.783  0.00  0.00    -0.150 OA
BRANCH  13  16
ATOM     16  C   UNL     1       9.692   3.837  23.866  0.00  0.00    +0.128 A 
ATOM     17  C   UNL     1       9.121   5.029  24.316  0.00  0.00    +0.068 A 
ATOM     18 CL   UNL     1       7.477   5.187  24.813  0.00  0.00    -0.082 Cl
ATOM     19  C   UNL     1       9.912   6.183  24.377  0.00  0.00    +0.023 A 
ATOM     20  C   UNL     1      11.253   6.150  23.985  0.00  0.00    +0.021 A 
ATOM     21  C   UNL     1      11.808   4.960  23.521  0.00  0.00    +0.043 A 
ATOM     22 CL   UNL     1      13.453   4.918  23.028  0.00  0.00    -0.083 Cl
ATOM     23  C   UNL     1      11.035   3.805  23.456  0.00  0.00    +0.050 A 
ENDBRANCH  13  16
ENDBRANCH   8  13
TORSDOF 2
ENDMDL
MODEL 4
REMARK VINA RESULT:      -6.9      1.786      2.238
REMARK  Name = 
REMARK  2 active torsions:
REMARK  status: ('A' for Active; 'I' for Inactive)
REMARK    1  A    between atoms: N_8  and  S_9
REMARK    2  A    between atoms: S_9  and  C_12
REMARK                            x       y       z     vdW  Elec       q    Type
REMARK                         _______ _______ _______ _____ _____    ______ ____
ROOT
ATOM      1 CL   UNL     1      11.427   5.606  23.713  0.00  0.00    -0.083 Cl
ATOM      2  C   UNL     1      10.398   4.225  23.791  0.00  0.00    +0.043 A 
ATOM      3  C   UNL     1      10.857   3.006  23.279  0.00  0.00    +0.051 A 
ATOM      4  C   UNL     1       9.992   1.907  23.347  0.00  0.00    +0.113 A 
ATOM      5  C   UNL     1       8.720   2.076  23.869  0.00  0.00    +0.157 A 
ATOM      6  O   UNL     1       8.055   0.892  23.728  0.00  0.00    -0.424 OA
ATOM      7  C   UNL     1       8.996   0.051  23.200  0.00  0.00    +0.308 A 
ATOM      8  N   UNL     1       8.721  -1.271  22.816  0.00  0.00    -0.169 N 
ATOM      9  H   UNL     1       7.748  -1.435  22.573  0.00  0.00    +0.178 HD
ATOM     10  C   UNL     1       8.239   3.264  24.408  0.00  0.00    +0.050 A 
ATOM     11  N   UNL     1      10.164   0.602  22.960  0.00  0.00    -0.194 NA
ATOM     12  C   UNL     1       9.124   4.351  24.361  0.00  0.00    +0.024 A 
ENDROOT
BRANCH   8  13
ATOM     13  S   UNL     1       9.121  -2.364  24.031  0.00  0.00    +0.077 S 
ATOM     14  O   UNL     1       8.916  -1.687  25.293  0.00  0.00    -0.150 OA
ATOM     15  O   UNL     1      10.419  -2.932  23.735  0.00  0.00    -0.150 OA
BRANCH  13  16
ATOM     16  C   UNL     1       7.912  -3.648  23.912  0.00  0.00    +0.128 A 
ATOM     17  C   UNL     1       7.323  -4.221  25.040  0.00  0.00    +0.068 A 
ATOM     18 CL   UNL     1       7.693  -3.765  26.662  0.00  0.00    -0.082 Cl
ATOM     19  C   UNL     1       6.368  -5.232  24.872  0.00  0.00    +0.023 A 
ATOM     20  C   UNL     1       6.013  -5.672  23.594  0.00  0.00    +0.021 A 
ATOM     21  C   UNL     1       6.619  -5.105  22.476  0.00  0.00    +0.043 A 
ATOM     22 CL   UNL     1       6.193  -5.651  20.903  0.00  0.00    -0.083 Cl
ATOM     23  C   UNL     1       7.569  -4.099  22.626  0.00  0.00    +0.050 A 
ENDBRANCH  13  16
ENDBRANCH   8  13
TORSDOF 2
ENDMDL
MODEL 5
REMARK VINA RESULT:      -6.9      2.222      3.119
REMARK  Name = 
REMARK  2 active torsions:
REMARK  status: ('A' for Active; 'I' for Inactive)
REMARK    1  A    between atoms: N_8  and  S_9
REMARK    2  A    between atoms: S_9  and  C_12
REMARK                            x       y       z     vdW  Elec       q    Type
REMARK                         _______ _______ _______ _____ _____    ______ ____
ROOT
ATOM      1 CL   UNL     1       9.469   2.946  24.304  0.00  0.00    -0.083 Cl
ATOM      2  C   UNL     1       9.222   1.435  23.511  0.00  0.00    +0.043 A 
ATOM      3  C   UNL     1       8.735   0.351  24.251  0.00  0.00    +0.051 A 
ATOM      4  C   UNL     1       8.557  -0.865  23.580  0.00  0.00    +0.113 A 
ATOM      5  C   UNL     1       8.905  -0.959  22.242  0.00  0.00    +0.157 A 
ATOM      6  O   UNL     1       8.732  -2.259  21.861  0.00  0.00    -0.424 OA
ATOM      7  C   UNL     1       8.211  -2.858  22.974  0.00  0.00    +0.308 A 
ATOM      8  N   UNL     1       7.945  -4.234  23.057  0.00  0.00    -0.169 N 
ATOM      9  H   UNL     1       8.514  -4.800  22.435  0.00  0.00    +0.178 HD
ATOM     10  C   UNL     1       9.368   0.101  21.470  0.00  0.00    +0.050 A 
ATOM     11  N   UNL     1       8.081  -2.074  24.020  0.00  0.00    -0.194 NA
ATOM     12  C   UNL     1       9.515   1.321  22.145  0.00  0.00    +0.024 A 
ENDROOT
BRANCH   8  13
ATOM     13  S   UNL     1       6.335  -4.576  22.706  0.00  0.00    +0.077 S 
ATOM     14  O   UNL     1       6.334  -5.586  21.670  0.00  0.00    -0.150 OA
ATOM     15  O   UNL     1       5.635  -3.329  22.478  0.00  0.00    -0.150 OA
BRANCH  13  16
ATOM     16  C   UNL     1       5.690  -5.316  24.174  0.00  0.00    +0.128 A 
ATOM     17  C   UNL     1       4.433  -5.921  24.211  0.00  0.00    +0.068 A 
ATOM     18 CL   UNL     1       3.367  -6.020  22.858  0.00  0.00    -0.082 Cl
ATOM     19  C   UNL     1       3.985  -6.493  25.409  0.00  0.00    +0.023 A 
ATOM     20  C   UNL     1       4.778  -6.451  26.559  0.00  0.00    +0.021 A 
ATOM     21  C   UNL     1       6.023  -5.829  26.516  0.00  0.00    +0.043 A 
ATOM     22 CL   UNL     1       6.997  -5.767  27.931  0.00  0.00    -0.083 Cl
ATOM     23  C   UNL     1       6.483  -5.259  25.333  0.00  0.00    +0.050 A 
ENDBRANCH  13  16
ENDBRANCH   8  13
TORSDOF 2
ENDMDL
MODEL 6
REMARK VINA RESULT:      -6.8      3.860      8.312
REMARK  Name = 
REMARK  2 active torsions:
REMARK  status: ('A' for Active; 'I' for Inactive)
REMARK    1  A    between atoms: N_8  and  S_9
REMARK    2  A    between atoms: S_9  and  C_12
REMARK                            x       y       z     vdW  Elec       q    Type
REMARK                         _______ _______ _______ _____ _____    ______ ____
ROOT
ATOM      1 CL   UNL     1       1.172 -10.157  25.384  0.00  0.00    -0.083 Cl
ATOM      2  C   UNL     1       1.659  -8.724  24.558  0.00  0.00    +0.043 A 
ATOM      3  C   UNL     1       2.880  -8.127  24.894  0.00  0.00    +0.051 A 
ATOM      4  C   UNL     1       3.240  -6.957  24.214  0.00  0.00    +0.113 A 
ATOM      5  C   UNL     1       2.367  -6.420  23.281  0.00  0.00    +0.157 A 
ATOM      6  O   UNL     1       2.904  -5.242  22.844  0.00  0.00    -0.424 OA
ATOM      7  C   UNL     1       4.113  -5.179  23.482  0.00  0.00    +0.308 A 
ATOM      8  N   UNL     1       4.981  -4.081  23.383  0.00  0.00    -0.169 N 
ATOM      9  H   UNL     1       4.514  -3.206  23.163  0.00  0.00    +0.178 HD
ATOM     10  C   UNL     1       1.159  -6.997  22.905  0.00  0.00    +0.050 A 
ATOM     11  N   UNL     1       4.363  -6.175  24.302  0.00  0.00    -0.194 NA
ATOM     12  C   UNL     1       0.822  -8.183  23.572  0.00  0.00    +0.024 A 
ENDROOT
BRANCH   8  13
ATOM     13  S   UNL     1       6.157  -4.326  22.205  0.00  0.00    +0.077 S 
ATOM     14  O   UNL     1       5.721  -3.620  21.020  0.00  0.00    -0.150 OA
ATOM     15  O   UNL     1       6.441  -5.743  22.121  0.00  0.00    -0.150 OA
BRANCH  13  16
ATOM     16  C   UNL     1       7.598  -3.505  22.814  0.00  0.00    +0.128 A 
ATOM     17  C   UNL     1       8.241  -3.906  23.987  0.00  0.00    +0.068 A 
ATOM     18 CL   UNL     1       7.723  -5.222  24.973  0.00  0.00    -0.082 Cl
ATOM     19  C   UNL     1       9.382  -3.213  24.410  0.00  0.00    +0.023 A 
ATOM     20  C   UNL     1       9.869  -2.126  23.677  0.00  0.00    +0.021 A 
ATOM     21  C   UNL     1       9.210  -1.724  22.519  0.00  0.00    +0.043 A 
ATOM     22 CL   UNL     1       9.799  -0.382  21.621  0.00  0.00    -0.083 Cl
ATOM     23  C   UNL     1       8.076  -2.403  22.085  0.00  0.00    +0.050 A 
ENDBRANCH  13  16
ENDBRANCH   8  13
TORSDOF 2
ENDMDL
MODEL 7
REMARK VINA RESULT:      -6.8      2.535      7.264
REMARK  Name = 
REMARK  2 active torsions:
REMARK  status: ('A' for Active; 'I' for Inactive)
REMARK    1  A    between atoms: N_8  and  S_9
REMARK    2  A    between atoms: S_9  and  C_12
REMARK                            x       y       z     vdW  Elec       q    Type
REMARK                         _______ _______ _______ _____ _____    ______ ____
ROOT
ATOM      1 CL   UNL     1       2.399  -5.446  24.693  0.00  0.00    -0.083 Cl
ATOM      2  C   UNL     1       3.945  -5.125  24.003  0.00  0.00    +0.043 A 
ATOM      3  C   UNL     1       4.351  -3.796  23.831  0.00  0.00    +0.051 A 
ATOM      4  C   UNL     1       5.607  -3.569  23.255  0.00  0.00    +0.113 A 
ATOM      5  C   UNL     1       6.369  -4.651  22.844  0.00  0.00    +0.157 A 
ATOM      6  O   UNL     1       7.487  -4.160  22.232  0.00  0.00    -0.424 OA
ATOM      7  C   UNL     1       7.371  -2.805  22.382  0.00  0.00    +0.308 A 
ATOM      8  N   UNL     1       8.277  -1.887  21.829  0.00  0.00    -0.169 N 
ATOM      9  H   UNL     1       8.763  -2.234  21.007  0.00  0.00    +0.178 HD
ATOM     10  C   UNL     1       6.011  -5.983  23.020  0.00  0.00    +0.050 A 
ATOM     11  N   UNL     1       6.276  -2.403  22.988  0.00  0.00    -0.194 NA
ATOM     12  C   UNL     1       4.763  -6.198  23.624  0.00  0.00    +0.024 A 
ENDROOT
BRANCH   8  13
ATOM     13  S   UNL     1       9.452  -1.428  22.943  0.00  0.00    +0.077 S 
ATOM     14  O   UNL     1      10.737  -1.642  22.314  0.00  0.00    -0.150 OA
ATOM     15  O   UNL     1       9.167  -2.071  24.209  0.00  0.00    -0.150 OA
BRANCH  13  16
ATOM     16  C   UNL     1       9.240   0.314  23.144  0.00  0.00    +0.128 A 
ATOM     17  C   UNL     1      10.102   1.082  23.930  0.00  0.00    +0.068 A 
ATOM     18 CL   UNL     1      11.453   0.443  24.790  0.00  0.00    -0.082 Cl
ATOM     19  C   UNL     1       9.877   2.460  24.043  0.00  0.00    +0.023 A 
ATOM     20  C   UNL     1       8.800   3.063  23.387  0.00  0.00    +0.021 A 
ATOM     21  C   UNL     1       7.936   2.285  22.620  0.00  0.00    +0.043 A 
ATOM     22 CL   UNL     1       6.604   3.021  21.822  0.00  0.00    -0.083 Cl
ATOM     23  C   UNL     1       8.147   0.916  22.498  0.00  0.00    +0.050 A 
ENDBRANCH  13  16
ENDBRANCH   8  13
TORSDOF 2
ENDMDL
MODEL 8
REMARK VINA RESULT:      -6.7      2.595      7.582
REMARK  Name = 
REMARK  2 active torsions:
REMARK  status: ('A' for Active; 'I' for Inactive)
REMARK    1  A    between atoms: N_8  and  S_9
REMARK    2  A    between atoms: S_9  and  C_12
REMARK                            x       y       z     vdW  Elec       q    Type
REMARK                         _______ _______ _______ _____ _____    ______ ____
ROOT
ATOM      1 CL   UNL     1       3.370  -6.015  23.118  0.00  0.00    -0.083 Cl
ATOM      2  C   UNL     1       4.843  -5.156  22.869  0.00  0.00    +0.043 A 
ATOM      3  C   UNL     1       4.870  -3.773  23.089  0.00  0.00    +0.051 A 
ATOM      4  C   UNL     1       6.079  -3.103  22.865  0.00  0.00    +0.113 A 
ATOM      5  C   UNL     1       7.172  -3.816  22.399  0.00  0.00    +0.157 A 
ATOM      6  O   UNL     1       8.179  -2.922  22.170  0.00  0.00    -0.424 OA
ATOM      7  C   UNL     1       7.658  -1.729  22.589  0.00  0.00    +0.308 A 
ATOM      8  N   UNL     1       8.333  -0.505  22.463  0.00  0.00    -0.169 N 
ATOM      9  H   UNL     1       9.015  -0.487  21.710  0.00  0.00    +0.178 HD
ATOM     10  C   UNL     1       7.190  -5.191  22.193  0.00  0.00    +0.050 A 
ATOM     11  N   UNL     1       6.416  -1.783  23.016  0.00  0.00    -0.194 NA
ATOM     12  C   UNL     1       5.982  -5.856  22.448  0.00  0.00    +0.024 A 
ENDROOT
BRANCH   8  13
ATOM     13  S   UNL     1       9.146  -0.099  23.879  0.00  0.00    +0.077 S 
ATOM     14  O   UNL     1      10.500  -0.592  23.746  0.00  0.00    -0.150 OA
ATOM     15  O   UNL     1       8.347  -0.522  25.011  0.00  0.00    -0.150 OA
BRANCH  13  16
ATOM     16  C   UNL     1       9.219   1.666  23.879  0.00  0.00    +0.128 A 
ATOM     17  C   UNL     1       8.088   2.457  24.091  0.00  0.00    +0.068 A 
ATOM     18 CL   UNL     1       6.507   1.828  24.371  0.00  0.00    -0.082 Cl
ATOM     19  C   UNL     1       8.219   3.852  24.081  0.00  0.00    +0.023 A 
ATOM     20  C   UNL     1       9.462   4.449  23.853  0.00  0.00    +0.021 A 
ATOM     21  C   UNL     1      10.580   3.652  23.625  0.00  0.00    +0.043 A 
ATOM     22 CL   UNL     1      12.107   4.384  23.333  0.00  0.00    -0.083 Cl
ATOM     23  C   UNL     1      10.467   2.265  23.633  0.00  0.00    +0.050 A 
ENDBRANCH  13  16
ENDBRANCH   8  13
TORSDOF 2
ENDMDL
MODEL 9
REMARK VINA RESULT:      -6.6      1.735      2.024
REMARK  Name = 
REMARK  2 active torsions:
REMARK  status: ('A' for Active; 'I' for Inactive)
REMARK    1  A    between atoms: N_8  and  S_9
REMARK    2  A    between atoms: S_9  and  C_12
REMARK                            x       y       z     vdW  Elec       q    Type
REMARK                         _______ _______ _______ _____ _____    ______ ____
ROOT
ATOM      1 CL   UNL     1       9.730   2.405  22.490  0.00  0.00    -0.083 Cl
ATOM      2  C   UNL     1       9.610   0.733  22.892  0.00  0.00    +0.043 A 
ATOM      3  C   UNL     1       9.241   0.371  24.193  0.00  0.00    +0.051 A 
ATOM      4  C   UNL     1       9.165  -0.995  24.490  0.00  0.00    +0.113 A 
ATOM      5  C   UNL     1       9.496  -1.920  23.514  0.00  0.00    +0.157 A 
ATOM      6  O   UNL     1       9.438  -3.160  24.084  0.00  0.00    -0.424 OA
ATOM      7  C   UNL     1       8.996  -2.914  25.355  0.00  0.00    +0.308 A 
ATOM      8  N   UNL     1       8.861  -3.912  26.332  0.00  0.00    -0.169 N 
ATOM      9  H   UNL     1       9.470  -4.713  26.188  0.00  0.00    +0.178 HD
ATOM     10  C   UNL     1       9.843  -1.600  22.206  0.00  0.00    +0.050 A 
ATOM     11  N   UNL     1       8.813  -1.646  25.645  0.00  0.00    -0.194 NA
ATOM     12  C   UNL     1       9.888  -0.230  21.911  0.00  0.00    +0.024 A 
ENDROOT
BRANCH   8  13
ATOM     13  S   UNL     1       7.285  -4.494  26.410  0.00  0.00    +0.077 S 
ATOM     14  O   UNL     1       6.567  -3.648  27.338  0.00  0.00    -0.150 OA
ATOM     15  O   UNL     1       7.329  -5.923  26.644  0.00  0.00    -0.150 OA
BRANCH  13  16
ATOM     16  C   UNL     1       6.610  -4.215  24.801  0.00  0.00    +0.128 A 
ATOM     17  C   UNL     1       5.813  -3.106  24.512  0.00  0.00    +0.068 A 
ATOM     18 CL   UNL     1       5.389  -1.892  25.663  0.00  0.00    -0.082 Cl
ATOM     19  C   UNL     1       5.314  -2.944  23.214  0.00  0.00    +0.023 A 
ATOM     20  C   UNL     1       5.599  -3.883  22.218  0.00  0.00    +0.021 A 
ATOM     21  C   UNL     1       6.380  -4.994  22.522  0.00  0.00    +0.043 A 
ATOM     22 CL   UNL     1       6.724  -6.157  21.303  0.00  0.00    -0.083 Cl
ATOM     23  C   UNL     1       6.884  -5.169  23.807  0.00  0.00    +0.050 A 
ENDBRANCH  13  16
ENDBRANCH   8  13
TORSDOF 2
ENDMDL
