MODEL 1
REMARK VINA RESULT:      -6.5      0.000      0.000
REMARK  Name = 
REMARK  8 active torsions:
REMARK  status: ('A' for Active; 'I' for Inactive)
REMARK    1  A    between atoms: C_1  and  O_2
REMARK    2  A    between atoms: O_2  and  C_3
REMARK    3  A    between atoms: C_3  and  C_4
REMARK    4  A    between atoms: C_4  and  C_5
REMARK    5  A    between atoms: C_4  and  N_8
REMARK    6  A    between atoms: C_5  and  O_6
REMARK    7  A    between atoms: O_6  and  C_7
REMARK    8  A    between atoms: C_20  and  N_21
REMARK                            x       y       z     vdW  Elec       q    Type
REMARK                         _______ _______ _______ _____ _____    ______ ____
ROOT
ATOM      1  N   UNL     1       7.465  -2.796  23.679  0.00  0.00    -0.339 N 
ATOM      2  C   UNL     1       8.234  -1.750  23.175  0.00  0.00    +0.050 A 
ATOM      3  C   UNL     1       9.013  -1.644  22.016  0.00  0.00    +0.028 A 
ATOM      4  C   UNL     1       9.661  -0.431  21.760  0.00  0.00    +0.030 A 
ATOM      5  C   UNL     1       9.611   0.646  22.626  0.00  0.00    +0.079 A 
ATOM      6  C   UNL     1       8.858   0.542  23.802  0.00  0.00    +0.049 A 
ATOM      7  C   UNL     1       8.898   1.688  24.615  0.00  0.00    +0.130 A 
ATOM      8  N   UNL     1       9.611   2.782  24.311  0.00  0.00    -0.199 NA
ATOM      9  C   UNL     1      10.301   2.751  23.174  0.00  0.00    +0.215 A 
ATOM     10  N   UNL     1      11.042   3.871  22.851  0.00  0.00    -0.327 N 
ATOM     11  H   UNL     1      10.667   4.682  23.319  0.00  0.00    +0.145 HD
ATOM     12  H   UNL     1      11.173   3.920  21.851  0.00  0.00    +0.145 HD
ATOM     13  N   UNL     1      10.305   1.743  22.304  0.00  0.00    -0.215 NA
ATOM     14  C   UNL     1       8.141  -0.675  24.075  0.00  0.00    +0.012 A 
ATOM     15  C   UNL     1       7.301  -1.112  25.134  0.00  0.00    +0.028 A 
ATOM     16  C   UNL     1       6.875  -2.383  24.852  0.00  0.00    +0.087 A 
ENDROOT
BRANCH   7  17
ATOM     17  N   UNL     1       8.217   1.778  25.833  0.00  0.00    -0.343 N 
ATOM     18  H   UNL     1       8.195   2.736  26.163  0.00  0.00    +0.144 HD
ATOM     19  H   UNL     1       8.699   1.167  26.488  0.00  0.00    +0.144 HD
ENDBRANCH   7  17
BRANCH   1  20
ATOM     20  C   UNL     1       7.389  -4.164  23.134  0.00  0.00    +0.138 C 
BRANCH  20  21
ATOM     21  C   UNL     1       8.036  -5.213  24.065  0.00  0.00    +0.186 C 
BRANCH  21  23
ATOM     22  C   UNL     1       9.560  -4.905  25.825  0.00  0.00    +0.194 C 
ATOM     23  O   UNL     1       9.381  -4.863  24.410  0.00  0.00    -0.381 OA
ENDBRANCH  21  23
ENDBRANCH  20  21
BRANCH  20  24
ATOM     24  C   UNL     1       5.964  -4.601  22.750  0.00  0.00    +0.186 C 
BRANCH  24  25
ATOM     25  O   UNL     1       5.759  -4.567  21.336  0.00  0.00    -0.381 OA
ATOM     26  C   UNL     1       6.193  -5.780  20.730  0.00  0.00    +0.194 C 
ENDBRANCH  24  25
ENDBRANCH  20  24
ENDBRANCH   1  20
TORSDOF 6
ENDMDL
MODEL 2
REMARK VINA RESULT:      -6.2      3.103      6.910
REMARK  Name = 
REMARK  8 active torsions:
REMARK  status: ('A' for Active; 'I' for Inactive)
REMARK    1  A    between atoms: C_1  and  O_2
REMARK    2  A    between atoms: O_2  and  C_3
REMARK    3  A    between atoms: C_3  and  C_4
REMARK    4  A    between atoms: C_4  and  C_5
REMARK    5  A    between atoms: C_4  and  N_8
REMARK    6  A    between atoms: C_5  and  O_6
REMARK    7  A    between atoms: O_6  and  C_7
REMARK    8  A    between atoms: C_20  and  N_21
REMARK                            x       y       z     vdW  Elec       q    Type
REMARK                         _______ _______ _______ _____ _____    ______ ____
ROOT
ATOM      1  N   UNL     1       8.451  -2.586  24.520  0.00  0.00    -0.339 N 
ATOM      2  C   UNL     1       7.365  -3.189  23.891  0.00  0.00    +0.050 A 
ATOM      3  C   UNL     1       6.733  -2.920  22.671  0.00  0.00    +0.028 A 
ATOM      4  C   UNL     1       5.661  -3.733  22.285  0.00  0.00    +0.030 A 
ATOM      5  C   UNL     1       5.165  -4.751  23.079  0.00  0.00    +0.079 A 
ATOM      6  C   UNL     1       5.772  -5.010  24.314  0.00  0.00    +0.049 A 
ATOM      7  C   UNL     1       5.172  -6.051  25.044  0.00  0.00    +0.130 A 
ATOM      8  N   UNL     1       4.097  -6.727  24.614  0.00  0.00    -0.199 NA
ATOM      9  C   UNL     1       3.599  -6.374  23.432  0.00  0.00    +0.215 A 
ATOM     10  N   UNL     1       2.490  -7.060  22.979  0.00  0.00    -0.327 N 
ATOM     11  H   UNL     1       2.439  -7.966  23.421  0.00  0.00    +0.145 HD
ATOM     12  H   UNL     1       2.450  -7.022  21.972  0.00  0.00    +0.145 HD
ATOM     13  N   UNL     1       4.107  -5.437  22.633  0.00  0.00    -0.215 NA
ATOM     14  C   UNL     1       6.906  -4.224  24.722  0.00  0.00    +0.012 A 
ATOM     15  C   UNL     1       7.744  -4.217  25.870  0.00  0.00    +0.028 A 
ATOM     16  C   UNL     1       8.693  -3.242  25.706  0.00  0.00    +0.087 A 
ENDROOT
BRANCH   7  17
ATOM     17  N   UNL     1       5.628  -6.456  26.303  0.00  0.00    -0.343 N 
ATOM     18  H   UNL     1       5.028  -7.177  26.687  0.00  0.00    +0.144 HD
ATOM     19  H   UNL     1       5.645  -5.628  26.892  0.00  0.00    +0.144 HD
ENDBRANCH   7  17
BRANCH   1  20
ATOM     20  C   UNL     1       9.152  -1.367  24.075  0.00  0.00    +0.138 C 
BRANCH  20  21
ATOM     21  C   UNL     1       9.536  -0.438  25.247  0.00  0.00    +0.186 C 
BRANCH  21  23
ATOM     22  C   UNL     1       9.598   1.778  24.473  0.00  0.00    +0.194 C 
ATOM     23  O   UNL     1      10.381   0.638  24.821  0.00  0.00    -0.381 OA
ENDBRANCH  21  23
ENDBRANCH  20  21
BRANCH  20  24
ATOM     24  C   UNL     1      10.381  -1.645  23.191  0.00  0.00    +0.186 C 
BRANCH  24  25
ATOM     25  O   UNL     1      10.051  -1.640  21.801  0.00  0.00    -0.381 OA
ATOM     26  C   UNL     1       9.383  -0.436  21.441  0.00  0.00    +0.194 C 
ENDBRANCH  24  25
ENDBRANCH  20  24
ENDBRANCH   1  20
TORSDOF 6
ENDMDL
MODEL 3
REMARK VINA RESULT:      -6.1      3.305      6.784
REMARK  Name = 
REMARK  8 active torsions:
REMARK  status: ('A' for Active; 'I' for Inactive)
REMARK    1  A    between atoms: C_1  and  O_2
REMARK    2  A    between atoms: O_2  and  C_3
REMARK    3  A    between atoms: C_3  and  C_4
REMARK    4  A    between atoms: C_4  and  C_5
REMARK    5  A    between atoms: C_4  and  N_8
REMARK    6  A    between atoms: C_5  and  O_6
REMARK    7  A    between atoms: O_6  and  C_7
REMARK    8  A    between atoms: C_20  and  N_21
REMARK                            x       y       z     vdW  Elec       q    Type
REMARK                         _______ _______ _______ _____ _____    ______ ____
ROOT
ATOM      1  N   UNL     1       9.041  -0.752  23.753  0.00  0.00    -0.339 N 
ATOM      2  C   UNL     1       8.254  -1.458  24.660  0.00  0.00    +0.050 A 
ATOM      3  C   UNL     1       7.114  -1.089  25.383  0.00  0.00    +0.028 A 
ATOM      4  C   UNL     1       6.515  -2.044  26.212  0.00  0.00    +0.030 A 
ATOM      5  C   UNL     1       7.031  -3.314  26.390  0.00  0.00    +0.079 A 
ATOM      6  C   UNL     1       8.187  -3.686  25.693  0.00  0.00    +0.049 A 
ATOM      7  C   UNL     1       8.632  -4.990  25.968  0.00  0.00    +0.130 A 
ATOM      8  N   UNL     1       8.022  -5.808  26.838  0.00  0.00    -0.199 NA
ATOM      9  C   UNL     1       6.942  -5.332  27.453  0.00  0.00    +0.215 A 
ATOM     10  N   UNL     1       6.307  -6.164  28.353  0.00  0.00    -0.327 N 
ATOM     11  H   UNL     1       6.520  -7.128  28.146  0.00  0.00    +0.145 HD
ATOM     12  H   UNL     1       5.336  -5.901  28.438  0.00  0.00    +0.145 HD
ATOM     13  N   UNL     1       6.404  -4.133  27.241  0.00  0.00    -0.215 NA
ATOM     14  C   UNL     1       8.803  -2.744  24.796  0.00  0.00    +0.012 A 
ATOM     15  C   UNL     1       9.945  -2.784  23.952  0.00  0.00    +0.028 A 
ATOM     16  C   UNL     1      10.045  -1.580  23.303  0.00  0.00    +0.087 A 
ENDROOT
BRANCH   7  17
ATOM     17  N   UNL     1       9.772  -5.544  25.377  0.00  0.00    -0.343 N 
ATOM     18  H   UNL     1      10.587  -5.400  25.963  0.00  0.00    +0.144 HD
ATOM     19  H   UNL     1       9.880  -5.099  24.469  0.00  0.00    +0.144 HD
ENDBRANCH   7  17
BRANCH   1  20
ATOM     20  C   UNL     1       8.918   0.679  23.419  0.00  0.00    +0.138 C 
BRANCH  20  21
ATOM     21  C   UNL     1       9.911   1.563  24.205  0.00  0.00    +0.186 C 
BRANCH  21  23
ATOM     22  C   UNL     1       9.985   3.878  23.826  0.00  0.00    +0.194 C 
ATOM     23  O   UNL     1      10.458   2.605  23.390  0.00  0.00    -0.381 OA
ENDBRANCH  21  23
ENDBRANCH  20  21
BRANCH  20  24
ATOM     24  C   UNL     1       9.020   0.976  21.912  0.00  0.00    +0.186 C 
BRANCH  24  25
ATOM     25  O   UNL     1       7.923   1.766  21.448  0.00  0.00    -0.381 OA
ATOM     26  C   UNL     1       6.843   1.729  22.374  0.00  0.00    +0.194 C 
ENDBRANCH  24  25
ENDBRANCH  20  24
ENDBRANCH   1  20
TORSDOF 6
ENDMDL
MODEL 4
REMARK VINA RESULT:      -6.0      2.069      3.691
REMARK  Name = 
REMARK  8 active torsions:
REMARK  status: ('A' for Active; 'I' for Inactive)
REMARK    1  A    between atoms: C_1  and  O_2
REMARK    2  A    between atoms: O_2  and  C_3
REMARK    3  A    between atoms: C_3  and  C_4
REMARK    4  A    between atoms: C_4  and  C_5
REMARK    5  A    between atoms: C_4  and  N_8
REMARK    6  A    between atoms: C_5  and  O_6
REMARK    7  A    between atoms: O_6  and  C_7
REMARK    8  A    between atoms: C_20  and  N_21
REMARK                            x       y       z     vdW  Elec       q    Type
REMARK                         _______ _______ _______ _____ _____    ______ ____
ROOT
ATOM      1  N   UNL     1       8.704  -2.508  23.886  0.00  0.00    -0.339 N 
ATOM      2  C   UNL     1       7.899  -1.375  23.805  0.00  0.00    +0.050 A 
ATOM      3  C   UNL     1       6.602  -1.122  24.267  0.00  0.00    +0.028 A 
ATOM      4  C   UNL     1       6.058   0.150  24.055  0.00  0.00    +0.030 A 
ATOM      5  C   UNL     1       6.722   1.147  23.363  0.00  0.00    +0.079 A 
ATOM      6  C   UNL     1       8.009   0.896  22.872  0.00  0.00    +0.049 A 
ATOM      7  C   UNL     1       8.577   1.971  22.169  0.00  0.00    +0.130 A 
ATOM      8  N   UNL     1       7.941   3.133  21.960  0.00  0.00    -0.199 NA
ATOM      9  C   UNL     1       6.713   3.243  22.460  0.00  0.00    +0.215 A 
ATOM     10  N   UNL     1       6.046   4.432  22.249  0.00  0.00    -0.327 N 
ATOM     11  H   UNL     1       6.707   5.175  22.077  0.00  0.00    +0.145 HD
ATOM     12  H   UNL     1       5.355   4.573  22.971  0.00  0.00    +0.145 HD
ATOM     13  N   UNL     1       6.090   2.311  23.180  0.00  0.00    -0.215 NA
ATOM     14  C   UNL     1       8.618  -0.386  23.112  0.00  0.00    +0.012 A 
ATOM     15  C   UNL     1       9.871  -0.964  22.775  0.00  0.00    +0.028 A 
ATOM     16  C   UNL     1       9.913  -2.234  23.287  0.00  0.00    +0.087 A 
ENDROOT
BRANCH   7  17
ATOM     17  N   UNL     1       9.852   1.915  21.596  0.00  0.00    -0.343 N 
ATOM     18  H   UNL     1      10.471   1.336  22.152  0.00  0.00    +0.144 HD
ATOM     19  H   UNL     1      10.190   2.872  21.532  0.00  0.00    +0.144 HD
ENDBRANCH   7  17
BRANCH   1  20
ATOM     20  C   UNL     1       8.300  -3.830  24.402  0.00  0.00    +0.138 C 
BRANCH  20  21
ATOM     21  C   UNL     1       7.756  -4.761  23.297  0.00  0.00    +0.186 C 
BRANCH  21  23
ATOM     22  C   UNL     1       5.866  -5.833  22.409  0.00  0.00    +0.194 C 
ATOM     23  O   UNL     1       6.389  -5.121  23.528  0.00  0.00    -0.381 OA
ENDBRANCH  21  23
ENDBRANCH  20  21
BRANCH  20  24
ATOM     24  C   UNL     1       9.402  -4.545  25.206  0.00  0.00    +0.186 C 
BRANCH  24  25
ATOM     25  O   UNL     1       9.149  -4.503  26.612  0.00  0.00    -0.381 OA
ATOM     26  C   UNL     1       7.908  -5.126  26.924  0.00  0.00    +0.194 C 
ENDBRANCH  24  25
ENDBRANCH  20  24
ENDBRANCH   1  20
TORSDOF 6
ENDMDL
MODEL 5
REMARK VINA RESULT:      -6.0      2.176      3.039
REMARK  Name = 
REMARK  8 active torsions:
REMARK  status: ('A' for Active; 'I' for Inactive)
REMARK    1  A    between atoms: C_1  and  O_2
REMARK    2  A    between atoms: O_2  and  C_3
REMARK    3  A    between atoms: C_3  and  C_4
REMARK    4  A    between atoms: C_4  and  C_5
REMARK    5  A    between atoms: C_4  and  N_8
REMARK    6  A    between atoms: C_5  and  O_6
REMARK    7  A    between atoms: O_6  and  C_7
REMARK    8  A    between atoms: C_20  and  N_21
REMARK                            x       y       z     vdW  Elec       q    Type
REMARK                         _______ _______ _______ _____ _____    ______ ____
ROOT
ATOM      1  N   UNL     1       8.937  -2.495  23.970  0.00  0.00    -0.339 N 
ATOM      2  C   UNL     1       8.059  -1.418  23.884  0.00  0.00    +0.050 A 
ATOM      3  C   UNL     1       6.765  -1.232  24.385  0.00  0.00    +0.028 A 
ATOM      4  C   UNL     1       6.134  -0.004  24.156  0.00  0.00    +0.030 A 
ATOM      5  C   UNL     1       6.708   1.009  23.411  0.00  0.00    +0.079 A 
ATOM      6  C   UNL     1       7.991   0.825  22.881  0.00  0.00    +0.049 A 
ATOM      7  C   UNL     1       8.464   1.911  22.126  0.00  0.00    +0.130 A 
ATOM      8  N   UNL     1       7.748   3.023  21.906  0.00  0.00    -0.199 NA
ATOM      9  C   UNL     1       6.534   3.071  22.447  0.00  0.00    +0.215 A 
ATOM     10  N   UNL     1       5.785   4.209  22.225  0.00  0.00    -0.327 N 
ATOM     11  H   UNL     1       6.391   4.986  22.007  0.00  0.00    +0.145 HD
ATOM     12  H   UNL     1       5.112   4.328  22.968  0.00  0.00    +0.145 HD
ATOM     13  N   UNL     1       5.997   2.125  23.216  0.00  0.00    -0.215 NA
ATOM     14  C   UNL     1       8.688  -0.408  23.137  0.00  0.00    +0.012 A 
ATOM     15  C   UNL     1       9.964  -0.917  22.771  0.00  0.00    +0.028 A 
ATOM     16  C   UNL     1      10.104  -2.165  23.319  0.00  0.00    +0.087 A 
ENDROOT
BRANCH   7  17
ATOM     17  N   UNL     1       9.720   1.916  21.509  0.00  0.00    -0.343 N 
ATOM     18  H   UNL     1      10.405   2.383  22.092  0.00  0.00    +0.144 HD
ATOM     19  H   UNL     1       9.607   2.385  20.613  0.00  0.00    +0.144 HD
ENDBRANCH   7  17
BRANCH   1  20
ATOM     20  C   UNL     1       8.637  -3.822  24.539  0.00  0.00    +0.138 C 
BRANCH  20  21
ATOM     21  C   UNL     1       8.361  -3.771  26.058  0.00  0.00    +0.186 C 
BRANCH  21  23
ATOM     22  C   UNL     1       7.165  -5.338  27.334  0.00  0.00    +0.194 C 
ATOM     23  O   UNL     1       8.388  -5.075  26.649  0.00  0.00    -0.381 OA
ENDBRANCH  21  23
ENDBRANCH  20  21
BRANCH  20  24
ATOM     24  C   UNL     1       7.497  -4.564  23.817  0.00  0.00    +0.186 C 
BRANCH  24  25
ATOM     25  O   UNL     1       7.639  -4.504  22.396  0.00  0.00    -0.381 OA
ATOM     26  C   UNL     1       7.104  -5.672  21.782  0.00  0.00    +0.194 C 
ENDBRANCH  24  25
ENDBRANCH  20  24
ENDBRANCH   1  20
TORSDOF 6
ENDMDL
MODEL 6
REMARK VINA RESULT:      -5.9      1.140      1.190
REMARK  Name = 
REMARK  8 active torsions:
REMARK  status: ('A' for Active; 'I' for Inactive)
REMARK    1  A    between atoms: C_1  and  O_2
REMARK    2  A    between atoms: O_2  and  C_3
REMARK    3  A    between atoms: C_3  and  C_4
REMARK    4  A    between atoms: C_4  and  C_5
REMARK    5  A    between atoms: C_4  and  N_8
REMARK    6  A    between atoms: C_5  and  O_6
REMARK    7  A    between atoms: O_6  and  C_7
REMARK    8  A    between atoms: C_20  and  N_21
REMARK                            x       y       z     vdW  Elec       q    Type
REMARK                         _______ _______ _______ _____ _____    ______ ____
ROOT
ATOM      1  N   UNL     1       6.845  -1.870  23.192  0.00  0.00    -0.339 N 
ATOM      2  C   UNL     1       7.832  -0.956  22.831  0.00  0.00    +0.050 A 
ATOM      3  C   UNL     1       8.760  -0.959  21.783  0.00  0.00    +0.028 A 
ATOM      4  C   UNL     1       9.624   0.135  21.658  0.00  0.00    +0.030 A 
ATOM      5  C   UNL     1       9.639   1.188  22.554  0.00  0.00    +0.079 A 
ATOM      6  C   UNL     1       8.733   1.188  23.623  0.00  0.00    +0.049 A 
ATOM      7  C   UNL     1       8.853   2.295  24.480  0.00  0.00    +0.130 A 
ATOM      8  N   UNL     1       9.767   3.262  24.311  0.00  0.00    -0.199 NA
ATOM      9  C   UNL     1      10.584   3.139  23.268  0.00  0.00    +0.215 A 
ATOM     10  N   UNL     1      11.532   4.125  23.086  0.00  0.00    -0.327 N 
ATOM     11  H   UNL     1      11.236   4.978  23.536  0.00  0.00    +0.145 HD
ATOM     12  H   UNL     1      11.797   4.172  22.113  0.00  0.00    +0.145 HD
ATOM     13  N   UNL     1      10.537   2.160  22.366  0.00  0.00    -0.215 NA
ATOM     14  C   UNL     1       7.799   0.101  23.755  0.00  0.00    +0.012 A 
ATOM     15  C   UNL     1       6.770  -0.210  24.683  0.00  0.00    +0.028 A 
ATOM     16  C   UNL     1       6.183  -1.388  24.299  0.00  0.00    +0.087 A 
ENDROOT
BRANCH   7  17
ATOM     17  N   UNL     1       8.044   2.473  25.607  0.00  0.00    -0.343 N 
ATOM     18  H   UNL     1       7.292   3.124  25.410  0.00  0.00    +0.144 HD
ATOM     19  H   UNL     1       8.647   2.810  26.353  0.00  0.00    +0.144 HD
ENDBRANCH   7  17
BRANCH   1  20
ATOM     20  C   UNL     1       6.619  -3.196  22.588  0.00  0.00    +0.138 C 
BRANCH  20  21
ATOM     21  C   UNL     1       7.617  -4.260  23.094  0.00  0.00    +0.186 C 
BRANCH  21  23
ATOM     22  C   UNL     1       8.632  -5.198  24.993  0.00  0.00    +0.194 C 
ATOM     23  O   UNL     1       7.512  -4.459  24.509  0.00  0.00    -0.381 OA
ENDBRANCH  21  23
ENDBRANCH  20  21
BRANCH  20  24
ATOM     24  C   UNL     1       5.175  -3.708  22.736  0.00  0.00    +0.186 C 
BRANCH  24  25
ATOM     25  O   UNL     1       5.008  -5.006  22.161  0.00  0.00    -0.381 OA
ATOM     26  C   UNL     1       4.160  -5.814  22.969  0.00  0.00    +0.194 C 
ENDBRANCH  24  25
ENDBRANCH  20  24
ENDBRANCH   1  20
TORSDOF 6
ENDMDL
MODEL 7
REMARK VINA RESULT:      -5.9      3.361      7.327
REMARK  Name = 
REMARK  8 active torsions:
REMARK  status: ('A' for Active; 'I' for Inactive)
REMARK    1  A    between atoms: C_1  and  O_2
REMARK    2  A    between atoms: O_2  and  C_3
REMARK    3  A    between atoms: C_3  and  C_4
REMARK    4  A    between atoms: C_4  and  C_5
REMARK    5  A    between atoms: C_4  and  N_8
REMARK    6  A    between atoms: C_5  and  O_6
REMARK    7  A    between atoms: O_6  and  C_7
REMARK    8  A    between atoms: C_20  and  N_21
REMARK                            x       y       z     vdW  Elec       q    Type
REMARK                         _______ _______ _______ _____ _____    ______ ____
ROOT
ATOM      1  N   UNL     1       8.222  -2.883  23.384  0.00  0.00    -0.339 N 
ATOM      2  C   UNL     1       8.033  -3.566  24.582  0.00  0.00    +0.050 A 
ATOM      3  C   UNL     1       8.758  -3.557  25.780  0.00  0.00    +0.028 A 
ATOM      4  C   UNL     1       8.297  -4.345  26.841  0.00  0.00    +0.030 A 
ATOM      5  C   UNL     1       7.193  -5.171  26.740  0.00  0.00    +0.079 A 
ATOM      6  C   UNL     1       6.476  -5.209  25.538  0.00  0.00    +0.049 A 
ATOM      7  C   UNL     1       5.388  -6.098  25.543  0.00  0.00    +0.130 A 
ATOM      8  N   UNL     1       5.069  -6.866  26.596  0.00  0.00    -0.199 NA
ATOM      9  C   UNL     1       5.839  -6.753  27.675  0.00  0.00    +0.215 A 
ATOM     10  N   UNL     1       5.524  -7.540  28.764  0.00  0.00    -0.327 N 
ATOM     11  H   UNL     1       4.552  -7.807  28.730  0.00  0.00    +0.145 HD
ATOM     12  H   UNL     1       5.866  -7.110  29.611  0.00  0.00    +0.145 HD
ATOM     13  N   UNL     1       6.867  -5.916  27.802  0.00  0.00    -0.215 NA
ATOM     14  C   UNL     1       6.895  -4.377  24.441  0.00  0.00    +0.012 A 
ATOM     15  C   UNL     1       6.414  -4.165  23.121  0.00  0.00    +0.028 A 
ATOM     16  C   UNL     1       7.211  -3.229  22.515  0.00  0.00    +0.087 A 
ENDROOT
BRANCH   7  17
ATOM     17  N   UNL     1       4.554  -6.284  24.436  0.00  0.00    -0.343 N 
ATOM     18  H   UNL     1       4.979  -6.916  23.768  0.00  0.00    +0.144 HD
ATOM     19  H   UNL     1       4.389  -5.365  24.032  0.00  0.00    +0.144 HD
ENDBRANCH   7  17
BRANCH   1  20
ATOM     20  C   UNL     1       9.376  -2.033  23.036  0.00  0.00    +0.138 C 
BRANCH  20  21
ATOM     21  C   UNL     1       9.137  -1.197  21.759  0.00  0.00    +0.186 C 
BRANCH  21  23
ATOM     22  C   UNL     1       8.867   1.090  21.301  0.00  0.00    +0.194 C 
ATOM     23  O   UNL     1       8.356  -0.026  22.026  0.00  0.00    -0.381 OA
ENDBRANCH  21  23
ENDBRANCH  20  21
BRANCH  20  24
ATOM     24  C   UNL     1       9.846  -1.124  24.186  0.00  0.00    +0.186 C 
BRANCH  24  25
ATOM     25  O   UNL     1      10.944  -0.295  23.797  0.00  0.00    -0.381 OA
ATOM     26  C   UNL     1      10.884   0.968  24.450  0.00  0.00    +0.194 C 
ENDBRANCH  24  25
ENDBRANCH  20  24
ENDBRANCH   1  20
TORSDOF 6
ENDMDL
MODEL 8
REMARK VINA RESULT:      -5.8      1.280      3.388
REMARK  Name = 
REMARK  8 active torsions:
REMARK  status: ('A' for Active; 'I' for Inactive)
REMARK    1  A    between atoms: C_1  and  O_2
REMARK    2  A    between atoms: O_2  and  C_3
REMARK    3  A    between atoms: C_3  and  C_4
REMARK    4  A    between atoms: C_4  and  C_5
REMARK    5  A    between atoms: C_4  and  N_8
REMARK    6  A    between atoms: C_5  and  O_6
REMARK    7  A    between atoms: O_6  and  C_7
REMARK    8  A    between atoms: C_20  and  N_21
REMARK                            x       y       z     vdW  Elec       q    Type
REMARK                         _______ _______ _______ _____ _____    ______ ____
ROOT
ATOM      1  N   UNL     1       8.194  -2.164  23.377  0.00  0.00    -0.339 N 
ATOM      2  C   UNL     1       8.134  -0.935  24.030  0.00  0.00    +0.050 A 
ATOM      3  C   UNL     1       7.566  -0.560  25.253  0.00  0.00    +0.028 A 
ATOM      4  C   UNL     1       7.695   0.772  25.665  0.00  0.00    +0.030 A 
ATOM      5  C   UNL     1       8.308   1.742  24.893  0.00  0.00    +0.079 A 
ATOM      6  C   UNL     1       8.856   1.384  23.655  0.00  0.00    +0.049 A 
ATOM      7  C   UNL     1       9.433   2.453  22.950  0.00  0.00    +0.130 A 
ATOM      8  N   UNL     1       9.444   3.715  23.403  0.00  0.00    -0.199 NA
ATOM      9  C   UNL     1       8.874   3.931  24.586  0.00  0.00    +0.215 A 
ATOM     10  N   UNL     1       8.874   5.227  25.063  0.00  0.00    -0.327 N 
ATOM     11  H   UNL     1       9.623   5.753  24.637  0.00  0.00    +0.145 HD
ATOM     12  H   UNL     1       8.814   5.222  26.071  0.00  0.00    +0.145 HD
ATOM     13  N   UNL     1       8.336   2.993  25.363  0.00  0.00    -0.215 NA
ATOM     14  C   UNL     1       8.782   0.014  23.221  0.00  0.00    +0.012 A 
ATOM     15  C   UNL     1       9.223  -0.682  22.063  0.00  0.00    +0.028 A 
ATOM     16  C   UNL     1       8.888  -2.003  22.199  0.00  0.00    +0.087 A 
ENDROOT
BRANCH   7  17
ATOM     17  N   UNL     1      10.026   2.301  21.692  0.00  0.00    -0.343 N 
ATOM     18  H   UNL     1       9.968   3.162  21.161  0.00  0.00    +0.144 HD
ATOM     19  H   UNL     1       9.540   1.539  21.226  0.00  0.00    +0.144 HD
ENDBRANCH   7  17
BRANCH   1  20
ATOM     20  C   UNL     1       7.518  -3.407  23.794  0.00  0.00    +0.138 C 
BRANCH  20  21
ATOM     21  C   UNL     1       6.630  -4.005  22.681  0.00  0.00    +0.186 C 
BRANCH  21  23
ATOM     22  C   UNL     1       6.496  -5.802  21.176  0.00  0.00    +0.194 C 
ATOM     23  O   UNL     1       6.884  -5.401  22.489  0.00  0.00    -0.381 OA
ENDBRANCH  21  23
ENDBRANCH  20  21
BRANCH  20  24
ATOM     24  C   UNL     1       8.477  -4.479  24.344  0.00  0.00    +0.186 C 
BRANCH  24  25
ATOM     25  O   UNL     1       8.771  -4.273  25.727  0.00  0.00    -0.381 OA
ATOM     26  C   UNL     1       8.007  -5.152  26.545  0.00  0.00    +0.194 C 
ENDBRANCH  24  25
ENDBRANCH  20  24
ENDBRANCH   1  20
TORSDOF 6
ENDMDL
MODEL 9
REMARK VINA RESULT:      -5.8      3.213      6.867
REMARK  Name = 
REMARK  8 active torsions:
REMARK  status: ('A' for Active; 'I' for Inactive)
REMARK    1  A    between atoms: C_1  and  O_2
REMARK    2  A    between atoms: O_2  and  C_3
REMARK    3  A    between atoms: C_3  and  C_4
REMARK    4  A    between atoms: C_4  and  C_5
REMARK    5  A    between atoms: C_4  and  N_8
REMARK    6  A    between atoms: C_5  and  O_6
REMARK    7  A    between atoms: O_6  and  C_7
REMARK    8  A    between atoms: C_20  and  N_21
REMARK                            x       y       z     vdW  Elec       q    Type
REMARK                         _______ _______ _______ _____ _____    ______ ____
ROOT
ATOM      1  N   UNL     1       8.442  -1.684  23.170  0.00  0.00    -0.339 N 
ATOM      2  C   UNL     1       7.409  -2.562  23.486  0.00  0.00    +0.050 A 
ATOM      3  C   UNL     1       6.112  -2.692  22.975  0.00  0.00    +0.028 A 
ATOM      4  C   UNL     1       5.296  -3.709  23.484  0.00  0.00    +0.030 A 
ATOM      5  C   UNL     1       5.694  -4.553  24.504  0.00  0.00    +0.079 A 
ATOM      6  C   UNL     1       6.979  -4.414  25.043  0.00  0.00    +0.049 A 
ATOM      7  C   UNL     1       7.266  -5.310  26.087  0.00  0.00    +0.130 A 
ATOM      8  N   UNL     1       6.385  -6.207  26.551  0.00  0.00    -0.199 NA
ATOM      9  C   UNL     1       5.188  -6.228  25.970  0.00  0.00    +0.215 A 
ATOM     10  N   UNL     1       4.270  -7.145  26.440  0.00  0.00    -0.327 N 
ATOM     11  H   UNL     1       4.746  -7.911  26.893  0.00  0.00    +0.145 HD
ATOM     12  H   UNL     1       3.601  -7.365  25.717  0.00  0.00    +0.145 HD
ATOM     13  N   UNL     1       4.818  -5.461  24.946  0.00  0.00    -0.215 NA
ATOM     14  C   UNL     1       7.862  -3.409  24.511  0.00  0.00    +0.012 A 
ATOM     15  C   UNL     1       9.192  -3.006  24.805  0.00  0.00    +0.028 A 
ATOM     16  C   UNL     1       9.532  -1.987  23.954  0.00  0.00    +0.087 A 
ENDROOT
BRANCH   7  17
ATOM     17  N   UNL     1       8.494  -5.325  26.757  0.00  0.00    -0.343 N 
ATOM     18  H   UNL     1       9.081  -4.558  26.451  0.00  0.00    +0.144 HD
ATOM     19  H   UNL     1       8.924  -6.227  26.566  0.00  0.00    +0.144 HD
ENDBRANCH   7  17
BRANCH   1  20
ATOM     20  C   UNL     1       8.359  -0.533  22.252  0.00  0.00    +0.138 C 
BRANCH  20  21
ATOM     21  C   UNL     1       7.328   0.522  22.709  0.00  0.00    +0.186 C 
BRANCH  21  23
ATOM     22  C   UNL     1       6.056   0.737  24.670  0.00  0.00    +0.194 C 
ATOM     23  O   UNL     1       7.374   0.734  24.124  0.00  0.00    -0.381 OA
ENDBRANCH  21  23
ENDBRANCH  20  21
BRANCH  20  24
ATOM     24  C   UNL     1       9.717   0.137  21.972  0.00  0.00    +0.186 C 
BRANCH  24  25
ATOM     25  O   UNL     1       9.589   1.550  21.802  0.00  0.00    -0.381 OA
ATOM     26  C   UNL     1      10.389   2.250  22.748  0.00  0.00    +0.194 C 
ENDBRANCH  24  25
ENDBRANCH  20  24
ENDBRANCH   1  20
TORSDOF 6
ENDMDL
