MODEL 1
REMARK VINA RESULT:      -6.1      0.000      0.000
REMARK  Name = 
REMARK  5 active torsions:
REMARK  status: ('A' for Active; 'I' for Inactive)
REMARK    1  A    between atoms: N_3  and  C_4
REMARK    2  A    between atoms: C_4  and  C_5
REMARK    3  A    between atoms: C_5  and  C_6
REMARK    4  A    between atoms: C_6  and  C_7
REMARK    5  A    between atoms: N_13  and  C_14
REMARK                            x       y       z     vdW  Elec       q    Type
REMARK                         _______ _______ _______ _____ _____    ______ ____
ROOT
ATOM      1  O   UNL     1       8.401  -2.533  22.163  0.00  0.00    -0.253 OA
ATOM      2  C   UNL     1       7.675  -1.710  22.704  0.00  0.00    +0.300 C 
ATOM      3  N   UNL     1       8.110  -0.544  23.282  0.00  0.00    -0.297 N 
ATOM      4  H   UNL     1       7.510  -0.183  24.007  0.00  0.00    +0.151 HD
ATOM      5  N   UNL     1       6.311  -1.823  22.802  0.00  0.00    -0.299 N 
ATOM      6  H   UNL     1       5.796  -0.976  22.989  0.00  0.00    +0.150 HD
ENDROOT
BRANCH   3   7
ATOM      7  C   UNL     1       9.526  -0.195  23.352  0.00  0.00    +0.074 C 
ATOM      8  C   UNL     1       9.856   0.611  24.619  0.00  0.00    +0.022 C 
ATOM      9  C   UNL     1       9.294   2.033  24.576  0.00  0.00    +0.002 C 
ATOM     10  C   UNL     1       9.714   2.775  23.311  0.00  0.00    +0.000 C 
ATOM     11  C   UNL     1       9.366   1.989  22.051  0.00  0.00    +0.002 C 
ATOM     12  C   UNL     1       9.942   0.573  22.093  0.00  0.00    +0.022 C 
ENDBRANCH   3   7
BRANCH   5  13
ATOM     13  C   UNL     1       5.594  -2.944  22.229  0.00  0.00    +0.106 C 
BRANCH  13  14
ATOM     14  C   UNL     1       5.122  -3.908  23.313  0.00  0.00    +0.023 C 
BRANCH  14  15
ATOM     15  C   UNL     1       6.038  -5.127  23.410  0.00  0.00    +0.036 C 
BRANCH  15  16
ATOM     16  C   UNL     1       7.050  -4.965  24.516  0.00  0.00    -0.047 A 
ATOM     17  C   UNL     1       8.409  -5.199  24.271  0.00  0.00    +0.003 A 
ATOM     18  C   UNL     1       9.354  -5.008  25.280  0.00  0.00    +0.000 A 
ATOM     19  C   UNL     1       8.949  -4.579  26.544  0.00  0.00    +0.000 A 
ATOM     20  C   UNL     1       7.600  -4.343  26.798  0.00  0.00    +0.000 A 
ATOM     21  C   UNL     1       6.654  -4.531  25.788  0.00  0.00    +0.003 A 
ENDBRANCH  15  16
ENDBRANCH  14  15
ENDBRANCH  13  14
ENDBRANCH   5  13
TORSDOF 5
ENDMDL
MODEL 2
REMARK VINA RESULT:      -6.0      2.112      7.921
REMARK  Name = 
REMARK  5 active torsions:
REMARK  status: ('A' for Active; 'I' for Inactive)
REMARK    1  A    between atoms: N_3  and  C_4
REMARK    2  A    between atoms: C_4  and  C_5
REMARK    3  A    between atoms: C_5  and  C_6
REMARK    4  A    between atoms: C_6  and  C_7
REMARK    5  A    between atoms: N_13  and  C_14
REMARK                            x       y       z     vdW  Elec       q    Type
REMARK                         _______ _______ _______ _____ _____    ______ ____
ROOT
ATOM      1  O   UNL     1      10.409  -2.481  22.990  0.00  0.00    -0.253 OA
ATOM      2  C   UNL     1       9.812  -2.171  24.012  0.00  0.00    +0.300 C 
ATOM      3  N   UNL     1       9.026  -3.022  24.747  0.00  0.00    -0.297 N 
ATOM      4  H   UNL     1       8.308  -2.570  25.291  0.00  0.00    +0.151 HD
ATOM      5  N   UNL     1       9.848  -0.925  24.585  0.00  0.00    -0.299 N 
ATOM      6  H   UNL     1       9.578  -0.862  25.555  0.00  0.00    +0.150 HD
ENDROOT
BRANCH   3   7
ATOM      7  C   UNL     1       8.782  -4.402  24.335  0.00  0.00    +0.074 C 
ATOM      8  C   UNL     1       7.359  -4.595  23.787  0.00  0.00    +0.022 C 
ATOM      9  C   UNL     1       6.291  -4.512  24.879  0.00  0.00    +0.002 C 
ATOM     10  C   UNL     1       6.583  -5.462  26.036  0.00  0.00    +0.000 C 
ATOM     11  C   UNL     1       7.985  -5.257  26.599  0.00  0.00    +0.002 C 
ATOM     12  C   UNL     1       9.050  -5.355  25.506  0.00  0.00    +0.022 C 
ENDBRANCH   3   7
BRANCH   5  13
ATOM     13  C   UNL     1      10.646   0.149  24.029  0.00  0.00    +0.106 C 
BRANCH  13  14
ATOM     14  C   UNL     1       9.916   1.485  24.125  0.00  0.00    +0.023 C 
BRANCH  14  15
ATOM     15  C   UNL     1      10.263   2.393  22.946  0.00  0.00    +0.036 C 
BRANCH  15  16
ATOM     16  C   UNL     1      10.609   3.786  23.410  0.00  0.00    -0.047 A 
ATOM     17  C   UNL     1       9.638   4.589  24.022  0.00  0.00    +0.003 A 
ATOM     18  C   UNL     1       9.966   5.862  24.492  0.00  0.00    +0.000 A 
ATOM     19  C   UNL     1      11.268   6.342  24.358  0.00  0.00    +0.000 A 
ATOM     20  C   UNL     1      12.242   5.550  23.752  0.00  0.00    +0.000 A 
ATOM     21  C   UNL     1      11.916   4.276  23.284  0.00  0.00    +0.003 A 
ENDBRANCH  15  16
ENDBRANCH  14  15
ENDBRANCH  13  14
ENDBRANCH   5  13
TORSDOF 5
ENDMDL
MODEL 3
REMARK VINA RESULT:      -6.0      1.799      7.458
REMARK  Name = 
REMARK  5 active torsions:
REMARK  status: ('A' for Active; 'I' for Inactive)
REMARK    1  A    between atoms: N_3  and  C_4
REMARK    2  A    between atoms: C_4  and  C_5
REMARK    3  A    between atoms: C_5  and  C_6
REMARK    4  A    between atoms: C_6  and  C_7
REMARK    5  A    between atoms: N_13  and  C_14
REMARK                            x       y       z     vdW  Elec       q    Type
REMARK                         _______ _______ _______ _____ _____    ______ ____
ROOT
ATOM      1  O   UNL     1       9.753  -2.380  23.543  0.00  0.00    -0.253 OA
ATOM      2  C   UNL     1       8.896  -2.248  22.680  0.00  0.00    +0.300 C 
ATOM      3  N   UNL     1       7.811  -3.074  22.524  0.00  0.00    -0.297 N 
ATOM      4  H   UNL     1       7.435  -3.104  21.589  0.00  0.00    +0.151 HD
ATOM      5  N   UNL     1       8.882  -1.244  21.745  0.00  0.00    -0.299 N 
ATOM      6  H   UNL     1       8.002  -1.057  21.290  0.00  0.00    +0.150 HD
ENDROOT
BRANCH   3   7
ATOM      7  C   UNL     1       7.604  -4.250  23.364  0.00  0.00    +0.074 C 
ATOM      8  C   UNL     1       7.566  -5.546  22.539  0.00  0.00    +0.022 C 
ATOM      9  C   UNL     1       6.297  -5.669  21.694  0.00  0.00    +0.002 C 
ATOM     10  C   UNL     1       5.034  -5.497  22.532  0.00  0.00    +0.000 C 
ATOM     11  C   UNL     1       5.057  -4.200  23.334  0.00  0.00    +0.002 C 
ATOM     12  C   UNL     1       6.321  -4.089  24.188  0.00  0.00    +0.022 C 
ENDBRANCH   3   7
BRANCH   5  13
ATOM     13  C   UNL     1       9.896  -0.209  21.721  0.00  0.00    +0.106 C 
BRANCH  13  14
ATOM     14  C   UNL     1       9.379   1.083  22.345  0.00  0.00    +0.023 C 
BRANCH  14  15
ATOM     15  C   UNL     1      10.242   1.510  23.532  0.00  0.00    +0.036 C 
BRANCH  15  16
ATOM     16  C   UNL     1      10.314   3.013  23.644  0.00  0.00    -0.047 A 
ATOM     17  C   UNL     1      11.513   3.685  23.371  0.00  0.00    +0.003 A 
ATOM     18  C   UNL     1      11.572   5.078  23.432  0.00  0.00    +0.000 A 
ATOM     19  C   UNL     1      10.433   5.812  23.761  0.00  0.00    +0.000 A 
ATOM     20  C   UNL     1       9.236   5.153  24.032  0.00  0.00    +0.000 A 
ATOM     21  C   UNL     1       9.175   3.760  23.970  0.00  0.00    +0.003 A 
ENDBRANCH  15  16
ENDBRANCH  14  15
ENDBRANCH  13  14
ENDBRANCH   5  13
TORSDOF 5
ENDMDL
MODEL 4
REMARK VINA RESULT:      -5.8      1.844      3.408
REMARK  Name = 
REMARK  5 active torsions:
REMARK  status: ('A' for Active; 'I' for Inactive)
REMARK    1  A    between atoms: N_3  and  C_4
REMARK    2  A    between atoms: C_4  and  C_5
REMARK    3  A    between atoms: C_5  and  C_6
REMARK    4  A    between atoms: C_6  and  C_7
REMARK    5  A    between atoms: N_13  and  C_14
REMARK                            x       y       z     vdW  Elec       q    Type
REMARK                         _______ _______ _______ _____ _____    ______ ____
ROOT
ATOM      1  O   UNL     1       7.510  -1.271  26.146  0.00  0.00    -0.253 OA
ATOM      2  C   UNL     1       8.349  -1.639  25.337  0.00  0.00    +0.300 C 
ATOM      3  N   UNL     1       8.778  -0.898  24.264  0.00  0.00    -0.297 N 
ATOM      4  H   UNL     1       9.136  -1.440  23.493  0.00  0.00    +0.151 HD
ATOM      5  N   UNL     1       9.001  -2.845  25.387  0.00  0.00    -0.299 N 
ATOM      6  H   UNL     1       9.862  -2.920  24.866  0.00  0.00    +0.150 HD
ENDROOT
BRANCH   3   7
ATOM      7  C   UNL     1       8.215   0.413  23.953  0.00  0.00    +0.074 C 
ATOM      8  C   UNL     1       7.926   0.572  22.451  0.00  0.00    +0.022 C 
ATOM      9  C   UNL     1       9.201   0.689  21.615  0.00  0.00    +0.002 C 
ATOM     10  C   UNL     1      10.123   1.790  22.131  0.00  0.00    +0.000 C 
ATOM     11  C   UNL     1      10.432   1.622  23.615  0.00  0.00    +0.002 C 
ATOM     12  C   UNL     1       9.154   1.519  24.448  0.00  0.00    +0.022 C 
ENDBRANCH   3   7
BRANCH   5  13
ATOM     13  C   UNL     1       8.763  -3.798  26.452  0.00  0.00    +0.106 C 
BRANCH  13  14
ATOM     14  C   UNL     1       8.305  -5.143  25.897  0.00  0.00    +0.023 C 
BRANCH  14  15
ATOM     15  C   UNL     1       6.800  -5.150  25.632  0.00  0.00    +0.036 C 
BRANCH  15  16
ATOM     16  C   UNL     1       6.503  -5.350  24.166  0.00  0.00    -0.047 A 
ATOM     17  C   UNL     1       7.541  -5.340  23.226  0.00  0.00    +0.003 A 
ATOM     18  C   UNL     1       7.275  -5.568  21.875  0.00  0.00    +0.000 A 
ATOM     19  C   UNL     1       5.969  -5.813  21.452  0.00  0.00    +0.000 A 
ATOM     20  C   UNL     1       4.929  -5.827  22.379  0.00  0.00    +0.000 A 
ATOM     21  C   UNL     1       5.195  -5.601  23.731  0.00  0.00    +0.003 A 
ENDBRANCH  15  16
ENDBRANCH  14  15
ENDBRANCH  13  14
ENDBRANCH   5  13
TORSDOF 5
ENDMDL
MODEL 5
REMARK VINA RESULT:      -5.8      1.188      1.598
REMARK  Name = 
REMARK  5 active torsions:
REMARK  status: ('A' for Active; 'I' for Inactive)
REMARK    1  A    between atoms: N_3  and  C_4
REMARK    2  A    between atoms: C_4  and  C_5
REMARK    3  A    between atoms: C_5  and  C_6
REMARK    4  A    between atoms: C_6  and  C_7
REMARK    5  A    between atoms: N_13  and  C_14
REMARK                            x       y       z     vdW  Elec       q    Type
REMARK                         _______ _______ _______ _____ _____    ______ ____
ROOT
ATOM      1  O   UNL     1       6.565  -1.860  24.736  0.00  0.00    -0.253 OA
ATOM      2  C   UNL     1       6.508  -1.566  23.550  0.00  0.00    +0.300 C 
ATOM      3  N   UNL     1       7.135  -0.485  22.982  0.00  0.00    -0.297 N 
ATOM      4  H   UNL     1       6.702  -0.140  22.140  0.00  0.00    +0.151 HD
ATOM      5  N   UNL     1       5.819  -2.282  22.603  0.00  0.00    -0.299 N 
ATOM      6  H   UNL     1       6.079  -2.131  21.640  0.00  0.00    +0.150 HD
ENDROOT
BRANCH   3   7
ATOM      7  C   UNL     1       7.905   0.469  23.775  0.00  0.00    +0.074 C 
ATOM      8  C   UNL     1       7.773   1.902  23.236  0.00  0.00    +0.022 C 
ATOM      9  C   UNL     1       8.501   2.102  21.906  0.00  0.00    +0.002 C 
ATOM     10  C   UNL     1       9.960   1.661  21.982  0.00  0.00    +0.000 C 
ATOM     11  C   UNL     1      10.095   0.231  22.494  0.00  0.00    +0.002 C 
ATOM     12  C   UNL     1       9.376   0.041  23.830  0.00  0.00    +0.022 C 
ENDBRANCH   3   7
BRANCH   5  13
ATOM     13  C   UNL     1       5.106  -3.498  22.936  0.00  0.00    +0.106 C 
BRANCH  13  14
ATOM     14  C   UNL     1       5.833  -4.727  22.400  0.00  0.00    +0.023 C 
BRANCH  14  15
ATOM     15  C   UNL     1       6.030  -5.776  23.493  0.00  0.00    +0.036 C 
BRANCH  15  16
ATOM     16  C   UNL     1       7.041  -5.319  24.516  0.00  0.00    -0.047 A 
ATOM     17  C   UNL     1       8.309  -4.882  24.110  0.00  0.00    +0.003 A 
ATOM     18  C   UNL     1       9.232  -4.419  25.049  0.00  0.00    +0.000 A 
ATOM     19  C   UNL     1       8.894  -4.383  26.401  0.00  0.00    +0.000 A 
ATOM     20  C   UNL     1       7.635  -4.815  26.815  0.00  0.00    +0.000 A 
ATOM     21  C   UNL     1       6.711  -5.277  25.876  0.00  0.00    +0.003 A 
ENDBRANCH  15  16
ENDBRANCH  14  15
ENDBRANCH  13  14
ENDBRANCH   5  13
TORSDOF 5
ENDMDL
MODEL 6
REMARK VINA RESULT:      -5.8      1.651      3.060
REMARK  Name = 
REMARK  5 active torsions:
REMARK  status: ('A' for Active; 'I' for Inactive)
REMARK    1  A    between atoms: N_3  and  C_4
REMARK    2  A    between atoms: C_4  and  C_5
REMARK    3  A    between atoms: C_5  and  C_6
REMARK    4  A    between atoms: C_6  and  C_7
REMARK    5  A    between atoms: N_13  and  C_14
REMARK                            x       y       z     vdW  Elec       q    Type
REMARK                         _______ _______ _______ _____ _____    ______ ____
ROOT
ATOM      1  O   UNL     1       9.809  -3.772  24.377  0.00  0.00    -0.253 OA
ATOM      2  C   UNL     1       9.267  -2.925  25.073  0.00  0.00    +0.300 C 
ATOM      3  N   UNL     1       9.322  -1.573  24.843  0.00  0.00    -0.297 N 
ATOM      4  H   UNL     1       9.196  -1.000  25.662  0.00  0.00    +0.151 HD
ATOM      5  N   UNL     1       8.509  -3.199  26.183  0.00  0.00    -0.299 N 
ATOM      6  H   UNL     1       7.880  -2.475  26.495  0.00  0.00    +0.150 HD
ENDROOT
BRANCH   3   7
ATOM      7  C   UNL     1      10.099  -1.005  23.745  0.00  0.00    +0.074 C 
ATOM      8  C   UNL     1      10.704   0.360  24.115  0.00  0.00    +0.022 C 
ATOM      9  C   UNL     1       9.649   1.463  24.217  0.00  0.00    +0.002 C 
ATOM     10  C   UNL     1       8.791   1.550  22.958  0.00  0.00    +0.000 C 
ATOM     11  C   UNL     1       8.170   0.203  22.601  0.00  0.00    +0.002 C 
ATOM     12  C   UNL     1       9.230  -0.893  22.488  0.00  0.00    +0.022 C 
ENDBRANCH   3   7
BRANCH   5  13
ATOM     13  C   UNL     1       8.255  -4.557  26.618  0.00  0.00    +0.106 C 
BRANCH  13  14
ATOM     14  C   UNL     1       6.760  -4.815  26.775  0.00  0.00    +0.023 C 
BRANCH  14  15
ATOM     15  C   UNL     1       6.214  -5.642  25.612  0.00  0.00    +0.036 C 
BRANCH  15  16
ATOM     16  C   UNL     1       6.305  -4.884  24.310  0.00  0.00    -0.047 A 
ATOM     17  C   UNL     1       7.014  -5.420  23.228  0.00  0.00    +0.003 A 
ATOM     18  C   UNL     1       7.065  -4.742  22.009  0.00  0.00    +0.000 A 
ATOM     19  C   UNL     1       6.403  -3.524  21.860  0.00  0.00    +0.000 A 
ATOM     20  C   UNL     1       5.694  -2.982  22.930  0.00  0.00    +0.000 A 
ATOM     21  C   UNL     1       5.641  -3.660  24.149  0.00  0.00    +0.003 A 
ENDBRANCH  15  16
ENDBRANCH  14  15
ENDBRANCH  13  14
ENDBRANCH   5  13
TORSDOF 5
ENDMDL
MODEL 7
REMARK VINA RESULT:      -5.8      1.830      7.339
REMARK  Name = 
REMARK  5 active torsions:
REMARK  status: ('A' for Active; 'I' for Inactive)
REMARK    1  A    between atoms: N_3  and  C_4
REMARK    2  A    between atoms: C_4  and  C_5
REMARK    3  A    between atoms: C_5  and  C_6
REMARK    4  A    between atoms: C_6  and  C_7
REMARK    5  A    between atoms: N_13  and  C_14
REMARK                            x       y       z     vdW  Elec       q    Type
REMARK                         _______ _______ _______ _____ _____    ______ ____
ROOT
ATOM      1  O   UNL     1       7.094  -1.079  22.710  0.00  0.00    -0.253 OA
ATOM      2  C   UNL     1       8.239  -1.504  22.757  0.00  0.00    +0.300 C 
ATOM      3  N   UNL     1       8.609  -2.691  23.339  0.00  0.00    -0.297 N 
ATOM      4  H   UNL     1       9.565  -2.725  23.657  0.00  0.00    +0.151 HD
ATOM      5  N   UNL     1       9.328  -0.866  22.220  0.00  0.00    -0.299 N 
ATOM      6  H   UNL     1      10.149  -1.428  22.052  0.00  0.00    +0.150 HD
ENDROOT
BRANCH   3   7
ATOM      7  C   UNL     1       7.648  -3.552  24.022  0.00  0.00    +0.074 C 
ATOM      8  C   UNL     1       7.277  -3.009  25.412  0.00  0.00    +0.022 C 
ATOM      9  C   UNL     1       8.422  -3.136  26.419  0.00  0.00    +0.002 C 
ATOM     10  C   UNL     1       8.959  -4.563  26.495  0.00  0.00    +0.000 C 
ATOM     11  C   UNL     1       9.350  -5.096  25.121  0.00  0.00    +0.002 C 
ATOM     12  C   UNL     1       8.198  -4.979  24.123  0.00  0.00    +0.022 C 
ENDBRANCH   3   7
BRANCH   5  13
ATOM     13  C   UNL     1       9.203   0.389  21.506  0.00  0.00    +0.106 C 
BRANCH  13  14
ATOM     14  C   UNL     1      10.139   1.446  22.081  0.00  0.00    +0.023 C 
BRANCH  14  15
ATOM     15  C   UNL     1       9.560   2.070  23.351  0.00  0.00    +0.036 C 
BRANCH  15  16
ATOM     16  C   UNL     1      10.098   3.462  23.572  0.00  0.00    -0.047 A 
ATOM     17  C   UNL     1       9.286   4.451  24.142  0.00  0.00    +0.003 A 
ATOM     18  C   UNL     1       9.792   5.728  24.388  0.00  0.00    +0.000 A 
ATOM     19  C   UNL     1      11.117   6.027  24.069  0.00  0.00    +0.000 A 
ATOM     20  C   UNL     1      11.933   5.050  23.503  0.00  0.00    +0.000 A 
ATOM     21  C   UNL     1      11.428   3.772  23.258  0.00  0.00    +0.003 A 
ENDBRANCH  15  16
ENDBRANCH  14  15
ENDBRANCH  13  14
ENDBRANCH   5  13
TORSDOF 5
ENDMDL
MODEL 8
REMARK VINA RESULT:      -5.8      1.734      7.204
REMARK  Name = 
REMARK  5 active torsions:
REMARK  status: ('A' for Active; 'I' for Inactive)
REMARK    1  A    between atoms: N_3  and  C_4
REMARK    2  A    between atoms: C_4  and  C_5
REMARK    3  A    between atoms: C_5  and  C_6
REMARK    4  A    between atoms: C_6  and  C_7
REMARK    5  A    between atoms: N_13  and  C_14
REMARK                            x       y       z     vdW  Elec       q    Type
REMARK                         _______ _______ _______ _____ _____    ______ ____
ROOT
ATOM      1  O   UNL     1       9.924  -3.179  23.939  0.00  0.00    -0.253 OA
ATOM      2  C   UNL     1       8.853  -2.752  23.533  0.00  0.00    +0.300 C 
ATOM      3  N   UNL     1       7.713  -3.505  23.397  0.00  0.00    -0.297 N 
ATOM      4  H   UNL     1       7.061  -3.162  22.708  0.00  0.00    +0.151 HD
ATOM      5  N   UNL     1       8.624  -1.451  23.164  0.00  0.00    -0.299 N 
ATOM      6  H   UNL     1       7.662  -1.148  23.136  0.00  0.00    +0.150 HD
ENDROOT
BRANCH   3   7
ATOM      7  C   UNL     1       7.691  -4.936  23.682  0.00  0.00    +0.074 C 
ATOM      8  C   UNL     1       7.427  -5.770  22.418  0.00  0.00    +0.022 C 
ATOM      9  C   UNL     1       5.990  -5.637  21.913  0.00  0.00    +0.002 C 
ATOM     10  C   UNL     1       4.970  -5.936  23.008  0.00  0.00    +0.000 C 
ATOM     11  C   UNL     1       5.213  -5.093  24.255  0.00  0.00    +0.002 C 
ATOM     12  C   UNL     1       6.647  -5.241  24.764  0.00  0.00    +0.022 C 
ENDBRANCH   3   7
BRANCH   5  13
ATOM     13  C   UNL     1       9.655  -0.438  23.258  0.00  0.00    +0.106 C 
BRANCH  13  14
ATOM     14  C   UNL     1       9.889   0.237  21.911  0.00  0.00    +0.023 C 
BRANCH  14  15
ATOM     15  C   UNL     1      10.154   1.733  22.078  0.00  0.00    +0.036 C 
BRANCH  15  16
ATOM     16  C   UNL     1       8.901   2.469  22.482  0.00  0.00    -0.047 A 
ATOM     17  C   UNL     1       8.917   3.345  23.576  0.00  0.00    +0.003 A 
ATOM     18  C   UNL     1       7.771   4.060  23.927  0.00  0.00    +0.000 A 
ATOM     19  C   UNL     1       6.600   3.911  23.186  0.00  0.00    +0.000 A 
ATOM     20  C   UNL     1       6.573   3.043  22.096  0.00  0.00    +0.000 A 
ATOM     21  C   UNL     1       7.719   2.329  21.742  0.00  0.00    +0.003 A 
ENDBRANCH  15  16
ENDBRANCH  14  15
ENDBRANCH  13  14
ENDBRANCH   5  13
TORSDOF 5
ENDMDL
MODEL 9
REMARK VINA RESULT:      -5.7      2.737      5.077
REMARK  Name = 
REMARK  5 active torsions:
REMARK  status: ('A' for Active; 'I' for Inactive)
REMARK    1  A    between atoms: N_3  and  C_4
REMARK    2  A    between atoms: C_4  and  C_5
REMARK    3  A    between atoms: C_5  and  C_6
REMARK    4  A    between atoms: C_6  and  C_7
REMARK    5  A    between atoms: N_13  and  C_14
REMARK                            x       y       z     vdW  Elec       q    Type
REMARK                         _______ _______ _______ _____ _____    ______ ____
ROOT
ATOM      1  O   UNL     1       7.049  -0.188  25.067  0.00  0.00    -0.253 OA
ATOM      2  C   UNL     1       6.512  -0.065  23.975  0.00  0.00    +0.300 C 
ATOM      3  N   UNL     1       5.816   1.046  23.568  0.00  0.00    -0.297 N 
ATOM      4  H   UNL     1       5.119   0.872  22.862  0.00  0.00    +0.151 HD
ATOM      5  N   UNL     1       6.534  -1.014  22.985  0.00  0.00    -0.299 N 
ATOM      6  H   UNL     1       6.329  -0.701  22.049  0.00  0.00    +0.150 HD
ENDROOT
BRANCH   3   7
ATOM      7  C   UNL     1       5.604   2.193  24.446  0.00  0.00    +0.074 C 
ATOM      8  C   UNL     1       4.328   2.968  24.081  0.00  0.00    +0.022 C 
ATOM      9  C   UNL     1       4.461   3.737  22.765  0.00  0.00    +0.002 C 
ATOM     10  C   UNL     1       5.692   4.639  22.754  0.00  0.00    +0.000 C 
ATOM     11  C   UNL     1       6.964   3.869  23.092  0.00  0.00    +0.002 C 
ATOM     12  C   UNL     1       6.829   3.114  24.415  0.00  0.00    +0.022 C 
ENDBRANCH   3   7
BRANCH   5  13
ATOM     13  C   UNL     1       7.245  -2.267  23.145  0.00  0.00    +0.106 C 
BRANCH  13  14
ATOM     14  C   UNL     1       8.492  -2.308  22.269  0.00  0.00    +0.023 C 
BRANCH  14  15
ATOM     15  C   UNL     1       9.745  -1.951  23.069  0.00  0.00    +0.036 C 
BRANCH  15  16
ATOM     16  C   UNL     1       9.995  -0.463  23.059  0.00  0.00    -0.047 A 
ATOM     17  C   UNL     1       9.744   0.288  21.904  0.00  0.00    +0.003 A 
ATOM     18  C   UNL     1       9.934   1.671  21.903  0.00  0.00    +0.000 A 
ATOM     19  C   UNL     1      10.372   2.316  23.059  0.00  0.00    +0.000 A 
ATOM     20  C   UNL     1      10.624   1.578  24.214  0.00  0.00    +0.000 A 
ATOM     21  C   UNL     1      10.432   0.195  24.216  0.00  0.00    +0.003 A 
ENDBRANCH  15  16
ENDBRANCH  14  15
ENDBRANCH  13  14
ENDBRANCH   5  13
TORSDOF 5
ENDMDL
