MODEL 1
REMARK VINA RESULT:      -6.5      0.000      0.000
REMARK  Name = 
REMARK  12 active torsions:
REMARK  status: ('A' for Active; 'I' for Inactive)
REMARK    1  A    between atoms: C_1  and  C_2
REMARK    2  A    between atoms: C_2  and  N_3
REMARK    3  A    between atoms: N_3  and  C_4
REMARK    4  A    between atoms: C_4  and  C_5
REMARK    5  A    between atoms: C_8  and  C_9
REMARK    6  A    between atoms: C_15  and  C_16
REMARK    7  A    between atoms: C_15  and  S_19
REMARK    8  A    between atoms: C_16  and  C_17
REMARK    9  A    between atoms: C_17  and  O_18
REMARK   10  A    between atoms: S_19  and  S_20
REMARK   11  A    between atoms: S_20  and  C_21
REMARK   12  A    between atoms: C_21  and  C_22
REMARK                            x       y       z     vdW  Elec       q    Type
REMARK                         _______ _______ _______ _____ _____    ______ ____
ROOT
ATOM      1  C   UNL     1       7.013  -2.396  22.547  0.00  0.00    +0.062 C 
ATOM      2  C   UNL     1       7.539  -3.651  23.210  0.00  0.00    +0.021 C 
ATOM      3  C   UNL     1       8.656  -3.688  23.990  0.00  0.00    +0.015 C 
ENDROOT
BRANCH   2   4
ATOM      4  N   UNL     1       6.734  -4.770  22.997  0.00  0.00    -0.273 N 
ATOM      5  C   UNL     1       7.161  -5.816  22.190  0.00  0.00    +0.332 C 
ATOM      6  O   UNL     1       6.486  -6.783  21.852  0.00  0.00    -0.279 OA
BRANCH   4   7
ATOM      7  C   UNL     1       5.328  -4.727  23.434  0.00  0.00    +0.153 C 
BRANCH   7   8
ATOM      8  C   UNL     1       5.088  -5.184  24.850  0.00  0.00    +0.030 A 
ATOM      9  C   UNL     1       4.794  -6.642  25.035  0.00  0.00    +0.131 A 
ATOM     10  N   UNL     1       4.477  -7.378  24.013  0.00  0.00    -0.283 NA
ATOM     11  H   UNL     1       4.293  -8.337  24.314  0.00  0.00    +0.188 HD
ATOM     12  N   UNL     1       4.849  -7.133  26.307  0.00  0.00    -0.329 N 
ATOM     13  H   UNL     1       4.740  -8.123  26.454  0.00  0.00    +0.168 HD
ATOM     14  C   UNL     1       5.069  -6.328  27.391  0.00  0.00    +0.105 A 
ATOM     15  C   UNL     1       5.228  -6.960  28.752  0.00  0.00    +0.086 C 
ATOM     16  N   UNL     1       5.154  -5.026  27.289  0.00  0.00    -0.242 NA
ATOM     17  C   UNL     1       5.171  -4.503  26.008  0.00  0.00    +0.121 A 
ENDBRANCH   7   8
ENDBRANCH   4   7
ENDBRANCH   2   4
BRANCH   3  18
ATOM     18  S   UNL     1       9.789  -2.339  23.869  0.00  0.00    -0.060 S 
BRANCH  18  19
ATOM     19  S   UNL     1       9.084  -0.997  25.260  0.00  0.00    -0.086 S 
BRANCH  19  20
ATOM     20  C   UNL     1       9.746   0.673  24.860  0.00  0.00    +0.113 C 
BRANCH  20  21
ATOM     21  C   UNL     1       9.094   1.549  23.779  0.00  0.00    +0.129 C 
ATOM     22  O   UNL     1       7.691   1.300  23.632  0.00  0.00    -0.376 OA
ATOM     23  C   UNL     1       7.339   1.411  22.244  0.00  0.00    +0.160 C 
ATOM     24  C   UNL     1       8.605   1.651  21.454  0.00  0.00    +0.031 C 
ATOM     25  C   UNL     1       9.686   1.216  22.408  0.00  0.00    +0.034 C 
ENDBRANCH  20  21
ENDBRANCH  19  20
ENDBRANCH  18  19
ENDBRANCH   3  18
BRANCH   3  26
ATOM     26  C   UNL     1       8.972  -4.825  24.962  0.00  0.00    +0.072 C 
BRANCH  26  27
ATOM     27  C   UNL     1       8.710  -4.481  26.442  0.00  0.00    +0.161 C 
BRANCH  27  28
ATOM     28  O   UNL     1       8.310  -5.627  27.187  0.00  0.00    -0.395 OA
ATOM     29  H   UNL     1       9.086  -5.931  27.690  0.00  0.00    +0.209 HD
ENDBRANCH  27  28
ENDBRANCH  26  27
ENDBRANCH   3  26
TORSDOF 10
ENDMDL
MODEL 2
REMARK VINA RESULT:      -6.3      2.577      3.402
REMARK  Name = 
REMARK  12 active torsions:
REMARK  status: ('A' for Active; 'I' for Inactive)
REMARK    1  A    between atoms: C_1  and  C_2
REMARK    2  A    between atoms: C_2  and  N_3
REMARK    3  A    between atoms: N_3  and  C_4
REMARK    4  A    between atoms: C_4  and  C_5
REMARK    5  A    between atoms: C_8  and  C_9
REMARK    6  A    between atoms: C_15  and  C_16
REMARK    7  A    between atoms: C_15  and  S_19
REMARK    8  A    between atoms: C_16  and  C_17
REMARK    9  A    between atoms: C_17  and  O_18
REMARK   10  A    between atoms: S_19  and  S_20
REMARK   11  A    between atoms: S_20  and  C_21
REMARK   12  A    between atoms: C_21  and  C_22
REMARK                            x       y       z     vdW  Elec       q    Type
REMARK                         _______ _______ _______ _____ _____    ______ ____
ROOT
ATOM      1  C   UNL     1       6.125  -1.740  24.371  0.00  0.00    +0.062 C 
ATOM      2  C   UNL     1       7.034  -1.984  23.184  0.00  0.00    +0.021 C 
ATOM      3  C   UNL     1       7.929  -1.071  22.712  0.00  0.00    +0.015 C 
ENDROOT
BRANCH   2   4
ATOM      4  N   UNL     1       6.913  -3.266  22.647  0.00  0.00    -0.273 N 
ATOM      5  C   UNL     1       5.836  -3.605  21.839  0.00  0.00    +0.332 C 
ATOM      6  O   UNL     1       5.583  -4.728  21.416  0.00  0.00    -0.279 OA
BRANCH   4   7
ATOM      7  C   UNL     1       7.805  -4.328  23.142  0.00  0.00    +0.153 C 
BRANCH   7   8
ATOM      8  C   UNL     1       7.377  -4.965  24.440  0.00  0.00    +0.030 A 
ATOM      9  C   UNL     1       8.470  -5.278  25.416  0.00  0.00    +0.131 A 
ATOM     10  N   UNL     1       9.710  -5.273  25.031  0.00  0.00    -0.283 NA
ATOM     11  H   UNL     1      10.322  -5.523  25.810  0.00  0.00    +0.188 HD
ATOM     12  N   UNL     1       8.096  -5.590  26.692  0.00  0.00    -0.329 N 
ATOM     13  H   UNL     1       8.809  -5.723  27.390  0.00  0.00    +0.168 HD
ATOM     14  C   UNL     1       6.784  -5.707  27.059  0.00  0.00    +0.105 A 
ATOM     15  C   UNL     1       6.450  -5.943  28.512  0.00  0.00    +0.086 C 
ATOM     16  N   UNL     1       5.805  -5.615  26.196  0.00  0.00    -0.242 NA
ATOM     17  C   UNL     1       6.144  -5.233  24.910  0.00  0.00    +0.121 A 
ENDBRANCH   7   8
ENDBRANCH   4   7
ENDBRANCH   2   4
BRANCH   3  18
ATOM     18  S   UNL     1       7.722   0.614  23.198  0.00  0.00    -0.060 S 
BRANCH  18  19
ATOM     19  S   UNL     1       9.067   0.833  24.740  0.00  0.00    -0.086 S 
BRANCH  19  20
ATOM     20  C   UNL     1      10.541   1.739  24.114  0.00  0.00    +0.113 C 
BRANCH  20  21
ATOM     21  C   UNL     1      10.402   3.105  23.424  0.00  0.00    +0.129 C 
ATOM     22  O   UNL     1      11.623   3.853  23.419  0.00  0.00    -0.376 OA
ATOM     23  C   UNL     1      11.319   5.246  23.592  0.00  0.00    +0.160 C 
ATOM     24  C   UNL     1       9.830   5.381  23.812  0.00  0.00    +0.031 C 
ATOM     25  C   UNL     1       9.420   3.984  24.200  0.00  0.00    +0.034 C 
ENDBRANCH  20  21
ENDBRANCH  19  20
ENDBRANCH  18  19
ENDBRANCH   3  18
BRANCH   3  26
ATOM     26  C   UNL     1       9.098  -1.429  21.794  0.00  0.00    +0.072 C 
BRANCH  26  27
ATOM     27  C   UNL     1      10.452  -1.560  22.518  0.00  0.00    +0.161 C 
BRANCH  27  28
ATOM     28  O   UNL     1      10.449  -2.633  23.453  0.00  0.00    -0.395 OA
ATOM     29  H   UNL     1      11.081  -2.405  24.158  0.00  0.00    +0.209 HD
ENDBRANCH  27  28
ENDBRANCH  26  27
ENDBRANCH   3  26
TORSDOF 10
ENDMDL
MODEL 3
REMARK VINA RESULT:      -6.1      2.874      4.646
REMARK  Name = 
REMARK  12 active torsions:
REMARK  status: ('A' for Active; 'I' for Inactive)
REMARK    1  A    between atoms: C_1  and  C_2
REMARK    2  A    between atoms: C_2  and  N_3
REMARK    3  A    between atoms: N_3  and  C_4
REMARK    4  A    between atoms: C_4  and  C_5
REMARK    5  A    between atoms: C_8  and  C_9
REMARK    6  A    between atoms: C_15  and  C_16
REMARK    7  A    between atoms: C_15  and  S_19
REMARK    8  A    between atoms: C_16  and  C_17
REMARK    9  A    between atoms: C_17  and  O_18
REMARK   10  A    between atoms: S_19  and  S_20
REMARK   11  A    between atoms: S_20  and  C_21
REMARK   12  A    between atoms: C_21  and  C_22
REMARK                            x       y       z     vdW  Elec       q    Type
REMARK                         _______ _______ _______ _____ _____    ______ ____
ROOT
ATOM      1  C   UNL     1       6.538  -1.238  25.135  0.00  0.00    +0.062 C 
ATOM      2  C   UNL     1       7.684  -1.143  24.150  0.00  0.00    +0.021 C 
ATOM      3  C   UNL     1       8.172   0.031  23.662  0.00  0.00    +0.015 C 
ENDROOT
BRANCH   2   4
ATOM      4  N   UNL     1       8.241  -2.381  23.826  0.00  0.00    -0.273 N 
ATOM      5  C   UNL     1       9.280  -2.917  24.575  0.00  0.00    +0.332 C 
ATOM      6  O   UNL     1       9.907  -3.935  24.306  0.00  0.00    -0.279 OA
BRANCH   4   7
ATOM      7  C   UNL     1       7.886  -3.004  22.540  0.00  0.00    +0.153 C 
BRANCH   7   8
ATOM      8  C   UNL     1       6.653  -3.871  22.571  0.00  0.00    +0.030 A 
ATOM      9  C   UNL     1       6.871  -5.323  22.869  0.00  0.00    +0.131 A 
ATOM     10  N   UNL     1       8.065  -5.830  22.803  0.00  0.00    -0.283 NA
ATOM     11  H   UNL     1       8.035  -6.829  23.017  0.00  0.00    +0.188 HD
ATOM     12  N   UNL     1       5.770  -6.069  23.178  0.00  0.00    -0.329 N 
ATOM     13  H   UNL     1       5.894  -7.026  23.465  0.00  0.00    +0.168 HD
ATOM     14  C   UNL     1       4.504  -5.553  23.132  0.00  0.00    +0.105 A 
ATOM     15  C   UNL     1       3.350  -6.408  23.595  0.00  0.00    +0.086 C 
ATOM     16  N   UNL     1       4.257  -4.342  22.706  0.00  0.00    -0.242 NA
ATOM     17  C   UNL     1       5.354  -3.537  22.450  0.00  0.00    +0.121 A 
ENDBRANCH   7   8
ENDBRANCH   4   7
ENDBRANCH   2   4
BRANCH   3  18
ATOM     18  S   UNL     1       7.163   1.472  23.821  0.00  0.00    -0.060 S 
BRANCH  18  19
ATOM     19  S   UNL     1       8.136   2.579  25.257  0.00  0.00    -0.086 S 
BRANCH  19  20
ATOM     20  C   UNL     1       8.279   4.317  24.667  0.00  0.00    +0.113 C 
BRANCH  20  21
ATOM     21  C   UNL     1       9.417   4.746  23.727  0.00  0.00    +0.129 C 
ATOM     22  O   UNL     1      10.402   3.722  23.541  0.00  0.00    -0.376 OA
ATOM     23  C   UNL     1      11.698   4.332  23.445  0.00  0.00    +0.160 C 
ATOM     24  C   UNL     1      11.540   5.818  23.678  0.00  0.00    +0.031 C 
ATOM     25  C   UNL     1      10.192   5.912  24.344  0.00  0.00    +0.034 C 
ENDBRANCH  20  21
ENDBRANCH  19  20
ENDBRANCH  18  19
ENDBRANCH   3  18
BRANCH   3  26
ATOM     26  C   UNL     1       9.541   0.167  22.995  0.00  0.00    +0.072 C 
BRANCH  26  27
ATOM     27  C   UNL     1       9.484   0.619  21.522  0.00  0.00    +0.161 C 
BRANCH  27  28
ATOM     28  O   UNL     1       9.767   2.008  21.386  0.00  0.00    -0.395 OA
ATOM     29  H   UNL     1      10.272   2.121  20.561  0.00  0.00    +0.209 HD
ENDBRANCH  27  28
ENDBRANCH  26  27
ENDBRANCH   3  26
TORSDOF 10
ENDMDL
MODEL 4
REMARK VINA RESULT:      -6.0      3.651      7.847
REMARK  Name = 
REMARK  12 active torsions:
REMARK  status: ('A' for Active; 'I' for Inactive)
REMARK    1  A    between atoms: C_1  and  C_2
REMARK    2  A    between atoms: C_2  and  N_3
REMARK    3  A    between atoms: N_3  and  C_4
REMARK    4  A    between atoms: C_4  and  C_5
REMARK    5  A    between atoms: C_8  and  C_9
REMARK    6  A    between atoms: C_15  and  C_16
REMARK    7  A    between atoms: C_15  and  S_19
REMARK    8  A    between atoms: C_16  and  C_17
REMARK    9  A    between atoms: C_17  and  O_18
REMARK   10  A    between atoms: S_19  and  S_20
REMARK   11  A    between atoms: S_20  and  C_21
REMARK   12  A    between atoms: C_21  and  C_22
REMARK                            x       y       z     vdW  Elec       q    Type
REMARK                         _______ _______ _______ _____ _____    ______ ____
ROOT
ATOM      1  C   UNL     1       9.015  -1.054  26.670  0.00  0.00    +0.062 C 
ATOM      2  C   UNL     1       8.359  -0.799  25.329  0.00  0.00    +0.021 C 
ATOM      3  C   UNL     1       7.022  -0.599  25.163  0.00  0.00    +0.015 C 
ENDROOT
BRANCH   2   4
ATOM      4  N   UNL     1       9.267  -0.728  24.272  0.00  0.00    -0.273 N 
ATOM      5  C   UNL     1       9.446  -1.800  23.408  0.00  0.00    +0.332 C 
ATOM      6  O   UNL     1      10.293  -1.876  22.525  0.00  0.00    -0.279 OA
BRANCH   4   7
ATOM      7  C   UNL     1      10.213   0.400  24.224  0.00  0.00    +0.153 C 
BRANCH   7   8
ATOM      8  C   UNL     1       9.605   1.723  23.833  0.00  0.00    +0.030 A 
ATOM      9  C   UNL     1       9.281   1.900  22.380  0.00  0.00    +0.131 A 
ATOM     10  N   UNL     1       9.771   1.082  21.498  0.00  0.00    -0.283 NA
ATOM     11  H   UNL     1       9.468   1.352  20.561  0.00  0.00    +0.188 HD
ATOM     12  N   UNL     1       8.487   2.957  22.042  0.00  0.00    -0.329 N 
ATOM     13  H   UNL     1       8.182   3.053  21.087  0.00  0.00    +0.168 HD
ATOM     14  C   UNL     1       8.071   3.879  22.963  0.00  0.00    +0.105 A 
ATOM     15  C   UNL     1       7.103   4.955  22.533  0.00  0.00    +0.086 C 
ATOM     16  N   UNL     1       8.477   3.860  24.206  0.00  0.00    -0.242 NA
ATOM     17  C   UNL     1       9.227   2.765  24.597  0.00  0.00    +0.121 A 
ENDBRANCH   7   8
ENDBRANCH   4   7
ENDBRANCH   2   4
BRANCH   3  18
ATOM     18  S   UNL     1       5.946  -1.095  26.472  0.00  0.00    -0.060 S 
BRANCH  18  19
ATOM     19  S   UNL     1       5.144  -2.863  25.787  0.00  0.00    -0.086 S 
BRANCH  19  20
ATOM     20  C   UNL     1       5.788  -4.243  26.820  0.00  0.00    +0.113 C 
BRANCH  20  21
ATOM     21  C   UNL     1       7.014  -5.060  26.382  0.00  0.00    +0.129 C 
ATOM     22  O   UNL     1       8.187  -4.757  27.145  0.00  0.00    -0.376 OA
ATOM     23  C   UNL     1       9.333  -4.810  26.282  0.00  0.00    +0.160 C 
ATOM     24  C   UNL     1       8.852  -5.069  24.872  0.00  0.00    +0.031 C 
ATOM     25  C   UNL     1       7.393  -4.703  24.943  0.00  0.00    +0.034 C 
ENDBRANCH  20  21
ENDBRANCH  19  20
ENDBRANCH  18  19
ENDBRANCH   3  18
BRANCH   3  26
ATOM     26  C   UNL     1       6.409   0.034  23.913  0.00  0.00    +0.072 C 
BRANCH  26  27
ATOM     27  C   UNL     1       5.701   1.379  24.169  0.00  0.00    +0.161 C 
BRANCH  27  28
ATOM     28  O   UNL     1       5.360   2.035  22.953  0.00  0.00    -0.395 OA
ATOM     29  H   UNL     1       4.542   1.623  22.620  0.00  0.00    +0.209 HD
ENDBRANCH  27  28
ENDBRANCH  26  27
ENDBRANCH   3  26
TORSDOF 10
ENDMDL
MODEL 5
REMARK VINA RESULT:      -5.9      4.015      7.713
REMARK  Name = 
REMARK  12 active torsions:
REMARK  status: ('A' for Active; 'I' for Inactive)
REMARK    1  A    between atoms: C_1  and  C_2
REMARK    2  A    between atoms: C_2  and  N_3
REMARK    3  A    between atoms: N_3  and  C_4
REMARK    4  A    between atoms: C_4  and  C_5
REMARK    5  A    between atoms: C_8  and  C_9
REMARK    6  A    between atoms: C_15  and  C_16
REMARK    7  A    between atoms: C_15  and  S_19
REMARK    8  A    between atoms: C_16  and  C_17
REMARK    9  A    between atoms: C_17  and  O_18
REMARK   10  A    between atoms: S_19  and  S_20
REMARK   11  A    between atoms: S_20  and  C_21
REMARK   12  A    between atoms: C_21  and  C_22
REMARK                            x       y       z     vdW  Elec       q    Type
REMARK                         _______ _______ _______ _____ _____    ______ ____
ROOT
ATOM      1  C   UNL     1       9.238  -2.539  24.925  0.00  0.00    +0.062 C 
ATOM      2  C   UNL     1       8.318  -1.496  24.327  0.00  0.00    +0.021 C 
ATOM      3  C   UNL     1       7.044  -1.270  24.755  0.00  0.00    +0.015 C 
ENDROOT
BRANCH   2   4
ATOM      4  N   UNL     1       8.918  -0.737  23.323  0.00  0.00    -0.273 N 
ATOM      5  C   UNL     1       8.737  -1.049  21.982  0.00  0.00    +0.332 C 
ATOM      6  O   UNL     1       9.310  -0.517  21.038  0.00  0.00    -0.279 OA
BRANCH   4   7
ATOM      7  C   UNL     1       9.945   0.251  23.698  0.00  0.00    +0.153 C 
BRANCH   7   8
ATOM      8  C   UNL     1       9.433   1.655  23.898  0.00  0.00    +0.030 A 
ATOM      9  C   UNL     1       9.490   2.557  22.702  0.00  0.00    +0.131 A 
ATOM     10  N   UNL     1      10.207   2.228  21.670  0.00  0.00    -0.283 NA
ATOM     11  H   UNL     1      10.150   2.956  20.956  0.00  0.00    +0.188 HD
ATOM     12  N   UNL     1       8.790   3.727  22.769  0.00  0.00    -0.329 N 
ATOM     13  H   UNL     1       8.739   4.313  21.952  0.00  0.00    +0.168 HD
ATOM     14  C   UNL     1       8.133   4.119  23.903  0.00  0.00    +0.105 A 
ATOM     15  C   UNL     1       7.288   5.369  23.863  0.00  0.00    +0.086 C 
ATOM     16  N   UNL     1       8.206   3.445  25.022  0.00  0.00    -0.242 NA
ATOM     17  C   UNL     1       8.851   2.223  24.971  0.00  0.00    +0.121 A 
ENDBRANCH   7   8
ENDBRANCH   4   7
ENDBRANCH   2   4
BRANCH   3  18
ATOM     18  S   UNL     1       6.270  -2.522  25.732  0.00  0.00    -0.060 S 
BRANCH  18  19
ATOM     19  S   UNL     1       4.828  -3.282  24.476  0.00  0.00    -0.086 S 
BRANCH  19  20
ATOM     20  C   UNL     1       5.351  -2.998  22.735  0.00  0.00    +0.113 C 
BRANCH  20  21
ATOM     21  C   UNL     1       6.354  -3.936  22.043  0.00  0.00    +0.129 C 
ATOM     22  O   UNL     1       5.802  -4.590  20.894  0.00  0.00    -0.376 OA
ATOM     23  C   UNL     1       6.325  -5.925  20.820  0.00  0.00    +0.160 C 
ATOM     24  C   UNL     1       7.183  -6.165  22.042  0.00  0.00    +0.031 C 
ATOM     25  C   UNL     1       6.736  -5.079  22.984  0.00  0.00    +0.034 C 
ENDBRANCH  20  21
ENDBRANCH  19  20
ENDBRANCH  18  19
ENDBRANCH   3  18
BRANCH   3  26
ATOM     26  C   UNL     1       6.259   0.004  24.442  0.00  0.00    +0.072 C 
BRANCH  26  27
ATOM     27  C   UNL     1       5.496   0.588  25.648  0.00  0.00    +0.161 C 
BRANCH  27  28
ATOM     28  O   UNL     1       4.342   1.314  25.240  0.00  0.00    -0.395 OA
ATOM     29  H   UNL     1       4.212   2.036  25.881  0.00  0.00    +0.209 HD
ENDBRANCH  27  28
ENDBRANCH  26  27
ENDBRANCH   3  26
TORSDOF 10
ENDMDL
MODEL 6
REMARK VINA RESULT:      -5.8      2.590      3.252
REMARK  Name = 
REMARK  12 active torsions:
REMARK  status: ('A' for Active; 'I' for Inactive)
REMARK    1  A    between atoms: C_1  and  C_2
REMARK    2  A    between atoms: C_2  and  N_3
REMARK    3  A    between atoms: N_3  and  C_4
REMARK    4  A    between atoms: C_4  and  C_5
REMARK    5  A    between atoms: C_8  and  C_9
REMARK    6  A    between atoms: C_15  and  C_16
REMARK    7  A    between atoms: C_15  and  S_19
REMARK    8  A    between atoms: C_16  and  C_17
REMARK    9  A    between atoms: C_17  and  O_18
REMARK   10  A    between atoms: S_19  and  S_20
REMARK   11  A    between atoms: S_20  and  C_21
REMARK   12  A    between atoms: C_21  and  C_22
REMARK                            x       y       z     vdW  Elec       q    Type
REMARK                         _______ _______ _______ _____ _____    ______ ____
ROOT
ATOM      1  C   UNL     1       9.672  -2.082  23.040  0.00  0.00    +0.062 C 
ATOM      2  C   UNL     1       8.328  -2.339  23.688  0.00  0.00    +0.021 C 
ATOM      3  C   UNL     1       7.840  -1.619  24.738  0.00  0.00    +0.015 C 
ENDROOT
BRANCH   2   4
ATOM      4  N   UNL     1       7.598  -3.354  23.069  0.00  0.00    -0.273 N 
ATOM      5  C   UNL     1       6.459  -3.068  22.328  0.00  0.00    +0.332 C 
ATOM      6  O   UNL     1       5.692  -3.893  21.845  0.00  0.00    -0.279 OA
BRANCH   4   7
ATOM      7  C   UNL     1       7.902  -4.754  23.408  0.00  0.00    +0.153 C 
BRANCH   7   8
ATOM      8  C   UNL     1       7.351  -5.222  24.731  0.00  0.00    +0.030 A 
ATOM      9  C   UNL     1       8.353  -5.464  25.819  0.00  0.00    +0.131 A 
ATOM     10  N   UNL     1       9.617  -5.549  25.534  0.00  0.00    -0.283 NA
ATOM     11  H   UNL     1      10.158  -5.732  26.382  0.00  0.00    +0.188 HD
ATOM     12  N   UNL     1       7.873  -5.614  27.088  0.00  0.00    -0.329 N 
ATOM     13  H   UNL     1       8.525  -5.693  27.851  0.00  0.00    +0.168 HD
ATOM     14  C   UNL     1       6.533  -5.639  27.362  0.00  0.00    +0.105 A 
ATOM     15  C   UNL     1       6.082  -5.696  28.801  0.00  0.00    +0.086 C 
ATOM     16  N   UNL     1       5.626  -5.609  26.420  0.00  0.00    -0.242 NA
ATOM     17  C   UNL     1       6.076  -5.389  25.130  0.00  0.00    +0.121 A 
ENDBRANCH   7   8
ENDBRANCH   4   7
ENDBRANCH   2   4
BRANCH   3  18
ATOM     18  S   UNL     1       8.982  -0.651  25.674  0.00  0.00    -0.060 S 
BRANCH  18  19
ATOM     19  S   UNL     1       8.673   1.260  24.974  0.00  0.00    -0.086 S 
BRANCH  19  20
ATOM     20  C   UNL     1      10.215   1.848  24.161  0.00  0.00    +0.113 C 
BRANCH  20  21
ATOM     21  C   UNL     1      10.269   3.208  23.446  0.00  0.00    +0.129 C 
ATOM     22  O   UNL     1      11.588   3.765  23.409  0.00  0.00    -0.376 OA
ATOM     23  C   UNL     1      11.497   5.190  23.558  0.00  0.00    +0.160 C 
ATOM     24  C   UNL     1      10.048   5.549  23.797  0.00  0.00    +0.031 C 
ATOM     25  C   UNL     1       9.442   4.237  24.218  0.00  0.00    +0.034 C 
ENDBRANCH  20  21
ENDBRANCH  19  20
ENDBRANCH  18  19
ENDBRANCH   3  18
BRANCH   3  26
ATOM     26  C   UNL     1       6.365  -1.602  25.139  0.00  0.00    +0.072 C 
BRANCH  26  27
ATOM     27  C   UNL     1       6.116  -1.849  26.641  0.00  0.00    +0.161 C 
BRANCH  27  28
ATOM     28  O   UNL     1       4.895  -2.545  26.866  0.00  0.00    -0.395 OA
ATOM     29  H   UNL     1       4.264  -1.907  27.245  0.00  0.00    +0.209 HD
ENDBRANCH  27  28
ENDBRANCH  26  27
ENDBRANCH   3  26
TORSDOF 10
ENDMDL
MODEL 7
REMARK VINA RESULT:      -5.7      2.466      3.600
REMARK  Name = 
REMARK  12 active torsions:
REMARK  status: ('A' for Active; 'I' for Inactive)
REMARK    1  A    between atoms: C_1  and  C_2
REMARK    2  A    between atoms: C_2  and  N_3
REMARK    3  A    between atoms: N_3  and  C_4
REMARK    4  A    between atoms: C_4  and  C_5
REMARK    5  A    between atoms: C_8  and  C_9
REMARK    6  A    between atoms: C_15  and  C_16
REMARK    7  A    between atoms: C_15  and  S_19
REMARK    8  A    between atoms: C_16  and  C_17
REMARK    9  A    between atoms: C_17  and  O_18
REMARK   10  A    between atoms: S_19  and  S_20
REMARK   11  A    between atoms: S_20  and  C_21
REMARK   12  A    between atoms: C_21  and  C_22
REMARK                            x       y       z     vdW  Elec       q    Type
REMARK                         _______ _______ _______ _____ _____    ______ ____
ROOT
ATOM      1  C   UNL     1       7.228  -2.582  26.190  0.00  0.00    +0.062 C 
ATOM      2  C   UNL     1       8.015  -2.586  24.896  0.00  0.00    +0.021 C 
ATOM      3  C   UNL     1       8.723  -1.518  24.433  0.00  0.00    +0.015 C 
ENDROOT
BRANCH   2   4
ATOM      4  N   UNL     1       7.997  -3.818  24.240  0.00  0.00    -0.273 N 
ATOM      5  C   UNL     1       8.822  -4.858  24.647  0.00  0.00    +0.332 C 
ATOM      6  O   UNL     1       8.961  -5.931  24.070  0.00  0.00    -0.279 OA
BRANCH   4   7
ATOM      7  C   UNL     1       7.277  -3.930  22.961  0.00  0.00    +0.153 C 
BRANCH   7   8
ATOM      8  C   UNL     1       5.868  -4.456  23.068  0.00  0.00    +0.030 A 
ATOM      9  C   UNL     1       5.664  -5.890  22.681  0.00  0.00    +0.131 A 
ATOM     10  N   UNL     1       6.585  -6.523  22.020  0.00  0.00    -0.283 NA
ATOM     11  H   UNL     1       6.282  -7.479  21.822  0.00  0.00    +0.188 HD
ATOM     12  N   UNL     1       4.477  -6.466  23.027  0.00  0.00    -0.329 N 
ATOM     13  H   UNL     1       4.344  -7.450  22.856  0.00  0.00    +0.168 HD
ATOM     14  C   UNL     1       3.468  -5.758  23.619  0.00  0.00    +0.105 A 
ATOM     15  C   UNL     1       2.229  -6.492  24.074  0.00  0.00    +0.086 C 
ATOM     16  N   UNL     1       3.539  -4.467  23.813  0.00  0.00    -0.242 NA
ATOM     17  C   UNL     1       4.754  -3.864  23.536  0.00  0.00    +0.121 A 
ENDBRANCH   7   8
ENDBRANCH   4   7
ENDBRANCH   2   4
BRANCH   3  18
ATOM     18  S   UNL     1       8.359   0.069  25.116  0.00  0.00    -0.060 S 
BRANCH  18  19
ATOM     19  S   UNL     1       6.753   0.711  24.001  0.00  0.00    -0.086 S 
BRANCH  19  20
ATOM     20  C   UNL     1       7.377   1.434  22.428  0.00  0.00    +0.113 C 
BRANCH  20  21
ATOM     21  C   UNL     1       8.467   2.518  22.427  0.00  0.00    +0.129 C 
ATOM     22  O   UNL     1       9.787   1.980  22.571  0.00  0.00    -0.376 OA
ATOM     23  C   UNL     1      10.572   2.877  23.372  0.00  0.00    +0.160 C 
ATOM     24  C   UNL     1       9.675   3.999  23.842  0.00  0.00    +0.031 C 
ATOM     25  C   UNL     1       8.294   3.433  23.641  0.00  0.00    +0.034 C 
ENDBRANCH  20  21
ENDBRANCH  19  20
ENDBRANCH  18  19
ENDBRANCH   3  18
BRANCH   3  26
ATOM     26  C   UNL     1       9.812  -1.624  23.365  0.00  0.00    +0.072 C 
BRANCH  26  27
ATOM     27  C   UNL     1       9.284  -1.566  21.917  0.00  0.00    +0.161 C 
BRANCH  27  28
ATOM     28  O   UNL     1       9.937  -0.556  21.157  0.00  0.00    -0.395 OA
ATOM     29  H   UNL     1       9.392  -0.389  20.367  0.00  0.00    +0.209 HD
ENDBRANCH  27  28
ENDBRANCH  26  27
ENDBRANCH   3  26
TORSDOF 10
ENDMDL
MODEL 8
REMARK VINA RESULT:      -5.7      2.868      4.481
REMARK  Name = 
REMARK  12 active torsions:
REMARK  status: ('A' for Active; 'I' for Inactive)
REMARK    1  A    between atoms: C_1  and  C_2
REMARK    2  A    between atoms: C_2  and  N_3
REMARK    3  A    between atoms: N_3  and  C_4
REMARK    4  A    between atoms: C_4  and  C_5
REMARK    5  A    between atoms: C_8  and  C_9
REMARK    6  A    between atoms: C_15  and  C_16
REMARK    7  A    between atoms: C_15  and  S_19
REMARK    8  A    between atoms: C_16  and  C_17
REMARK    9  A    between atoms: C_17  and  O_18
REMARK   10  A    between atoms: S_19  and  S_20
REMARK   11  A    between atoms: S_20  and  C_21
REMARK   12  A    between atoms: C_21  and  C_22
REMARK                            x       y       z     vdW  Elec       q    Type
REMARK                         _______ _______ _______ _____ _____    ______ ____
ROOT
ATOM      1  C   UNL     1       8.463  -0.792  26.403  0.00  0.00    +0.062 C 
ATOM      2  C   UNL     1       8.151  -0.895  24.925  0.00  0.00    +0.021 C 
ATOM      3  C   UNL     1       7.386   0.005  24.245  0.00  0.00    +0.015 C 
ENDROOT
BRANCH   2   4
ATOM      4  N   UNL     1       8.773  -1.976  24.300  0.00  0.00    -0.273 N 
ATOM      5  C   UNL     1      10.103  -1.909  23.907  0.00  0.00    +0.332 C 
ATOM      6  O   UNL     1      10.702  -2.757  23.255  0.00  0.00    -0.279 OA
BRANCH   4   7
ATOM      7  C   UNL     1       7.943  -3.102  23.839  0.00  0.00    +0.153 C 
BRANCH   7   8
ATOM      8  C   UNL     1       7.417  -3.995  24.934  0.00  0.00    +0.030 A 
ATOM      9  C   UNL     1       8.362  -5.039  25.449  0.00  0.00    +0.131 A 
ATOM     10  N   UNL     1       9.437  -5.331  24.782  0.00  0.00    -0.283 NA
ATOM     11  H   UNL     1       9.957  -6.070  25.260  0.00  0.00    +0.188 HD
ATOM     12  N   UNL     1       8.022  -5.668  26.611  0.00  0.00    -0.329 N 
ATOM     13  H   UNL     1       8.675  -6.312  27.027  0.00  0.00    +0.168 HD
ATOM     14  C   UNL     1       6.831  -5.437  27.244  0.00  0.00    +0.105 A 
ATOM     15  C   UNL     1       6.577  -6.087  28.583  0.00  0.00    +0.086 C 
ATOM     16  N   UNL     1       5.906  -4.667  26.734  0.00  0.00    -0.242 NA
ATOM     17  C   UNL     1       6.244  -3.961  25.593  0.00  0.00    +0.121 A 
ENDBRANCH   7   8
ENDBRANCH   4   7
ENDBRANCH   2   4
BRANCH   3  18
ATOM     18  S   UNL     1       6.349   1.081  25.185  0.00  0.00    -0.060 S 
BRANCH  18  19
ATOM     19  S   UNL     1       6.988   2.959  24.637  0.00  0.00    -0.086 S 
BRANCH  19  20
ATOM     20  C   UNL     1       8.826   3.000  24.702  0.00  0.00    +0.113 C 
BRANCH  20  21
ATOM     21  C   UNL     1       9.639   3.845  23.709  0.00  0.00    +0.129 C 
ATOM     22  O   UNL     1      10.983   3.377  23.549  0.00  0.00    -0.376 OA
ATOM     23  C   UNL     1      11.855   4.506  23.384  0.00  0.00    +0.160 C 
ATOM     24  C   UNL     1      11.033   5.765  23.542  0.00  0.00    +0.031 C 
ATOM     25  C   UNL     1       9.793   5.271  24.240  0.00  0.00    +0.034 C 
ENDBRANCH  20  21
ENDBRANCH  19  20
ENDBRANCH  18  19
ENDBRANCH   3  18
BRANCH   3  26
ATOM     26  C   UNL     1       7.386   0.135  22.721  0.00  0.00    +0.072 C 
BRANCH  26  27
ATOM     27  C   UNL     1       8.714   0.648  22.131  0.00  0.00    +0.161 C 
BRANCH  27  28
ATOM     28  O   UNL     1       8.500   1.493  21.005  0.00  0.00    -0.395 OA
ATOM     29  H   UNL     1       9.344   1.553  20.523  0.00  0.00    +0.209 HD
ENDBRANCH  27  28
ENDBRANCH  26  27
ENDBRANCH   3  26
TORSDOF 10
ENDMDL
MODEL 9
REMARK VINA RESULT:      -5.6      3.691      7.489
REMARK  Name = 
REMARK  12 active torsions:
REMARK  status: ('A' for Active; 'I' for Inactive)
REMARK    1  A    between atoms: C_1  and  C_2
REMARK    2  A    between atoms: C_2  and  N_3
REMARK    3  A    between atoms: N_3  and  C_4
REMARK    4  A    between atoms: C_4  and  C_5
REMARK    5  A    between atoms: C_8  and  C_9
REMARK    6  A    between atoms: C_15  and  C_16
REMARK    7  A    between atoms: C_15  and  S_19
REMARK    8  A    between atoms: C_16  and  C_17
REMARK    9  A    between atoms: C_17  and  O_18
REMARK   10  A    between atoms: S_19  and  S_20
REMARK   11  A    between atoms: S_20  and  C_21
REMARK   12  A    between atoms: C_21  and  C_22
REMARK                            x       y       z     vdW  Elec       q    Type
REMARK                         _______ _______ _______ _____ _____    ______ ____
ROOT
ATOM      1  C   UNL     1       6.056  -1.613  23.854  0.00  0.00    +0.062 C 
ATOM      2  C   UNL     1       7.478  -1.093  23.871  0.00  0.00    +0.021 C 
ATOM      3  C   UNL     1       8.355  -1.312  24.891  0.00  0.00    +0.015 C 
ENDROOT
BRANCH   2   4
ATOM      4  N   UNL     1       7.834  -0.411  22.708  0.00  0.00    -0.273 N 
ATOM      5  C   UNL     1       8.852  -0.877  21.887  0.00  0.00    +0.332 C 
ATOM      6  O   UNL     1       9.311  -0.292  20.912  0.00  0.00    -0.279 OA
BRANCH   4   7
ATOM      7  C   UNL     1       7.290   0.939  22.483  0.00  0.00    +0.153 C 
BRANCH   7   8
ATOM      8  C   UNL     1       7.868   2.013  23.369  0.00  0.00    +0.030 A 
ATOM      9  C   UNL     1       8.981   2.828  22.783  0.00  0.00    +0.131 A 
ATOM     10  N   UNL     1       9.588   2.426  21.708  0.00  0.00    -0.283 NA
ATOM     11  H   UNL     1      10.327   3.084  21.453  0.00  0.00    +0.188 HD
ATOM     12  N   UNL     1       9.331   3.972  23.442  0.00  0.00    -0.329 N 
ATOM     13  H   UNL     1      10.015   4.583  23.028  0.00  0.00    +0.168 HD
ATOM     14  C   UNL     1       8.765   4.327  24.635  0.00  0.00    +0.105 A 
ATOM     15  C   UNL     1       9.123   5.661  25.245  0.00  0.00    +0.086 C 
ATOM     16  N   UNL     1       7.920   3.554  25.267  0.00  0.00    -0.242 NA
ATOM     17  C   UNL     1       7.493   2.422  24.596  0.00  0.00    +0.121 A 
ENDBRANCH   7   8
ENDBRANCH   4   7
ENDBRANCH   2   4
BRANCH   3  18
ATOM     18  S   UNL     1       7.697  -1.828  26.447  0.00  0.00    -0.060 S 
BRANCH  18  19
ATOM     19  S   UNL     1       7.904  -3.875  26.396  0.00  0.00    -0.086 S 
BRANCH  19  20
ATOM     20  C   UNL     1       8.584  -4.360  24.756  0.00  0.00    +0.113 C 
BRANCH  20  21
ATOM     21  C   UNL     1       7.741  -5.160  23.750  0.00  0.00    +0.129 C 
ATOM     22  O   UNL     1       7.626  -4.510  22.479  0.00  0.00    -0.376 OA
ATOM     23  C   UNL     1       6.312  -4.744  21.951  0.00  0.00    +0.160 C 
ATOM     24  C   UNL     1       5.516  -5.506  22.986  0.00  0.00    +0.031 C 
ATOM     25  C   UNL     1       6.300  -5.274  24.251  0.00  0.00    +0.034 C 
ENDBRANCH  20  21
ENDBRANCH  19  20
ENDBRANCH  18  19
ENDBRANCH   3  18
BRANCH   3  26
ATOM     26  C   UNL     1       9.869  -1.142  24.757  0.00  0.00    +0.072 C 
BRANCH  26  27
ATOM     27  C   UNL     1      10.383   0.258  25.148  0.00  0.00    +0.161 C 
BRANCH  27  28
ATOM     28  O   UNL     1      11.182   0.833  24.119  0.00  0.00    -0.395 OA
ATOM     29  H   UNL     1      11.312   0.149  23.438  0.00  0.00    +0.209 HD
ENDBRANCH  27  28
ENDBRANCH  26  27
ENDBRANCH   3  26
TORSDOF 10
ENDMDL
