MODEL 1
REMARK VINA RESULT:      -5.0      0.000      0.000
REMARK  Name = 
REMARK  5 active torsions:
REMARK  status: ('A' for Active; 'I' for Inactive)
REMARK    1  A    between atoms: O_1  and  C_2
REMARK    2  A    between atoms: C_5  and  C_13
REMARK    3  A    between atoms: C_7  and  O_9
REMARK    4  A    between atoms: C_10  and  O_12
REMARK    5  A    between atoms: C_13  and  O_14
REMARK                            x       y       z     vdW  Elec       q    Type
REMARK                         _______ _______ _______ _____ _____    ______ ____
ROOT
ATOM      1  C   UNL     1      10.194   1.756  24.443  0.00  0.00    +0.337 C 
ATOM      2  C   UNL     1      10.039   2.763  23.280  0.00  0.00    +0.215 C 
ATOM      3  C   UNL     1       9.728   2.126  21.917  0.00  0.00    +0.176 C 
ATOM      4  C   UNL     1       9.783   0.648  21.878  0.00  0.00    +0.060 C 
ATOM      5  C   UNL     1      10.143  -0.102  22.922  0.00  0.00    +0.206 C 
ATOM      6  O   UNL     1      10.506   0.395  24.150  0.00  0.00    -0.454 OA
ENDROOT
BRANCH   1   7
ATOM      7  O   UNL     1       9.012   1.778  25.247  0.00  0.00    -0.356 OA
ATOM      8  H   UNL     1       8.350   1.259  24.757  0.00  0.00    +0.214 HD
ENDBRANCH   1   7
BRANCH   2   9
ATOM      9  O   UNL     1      11.252   3.540  23.169  0.00  0.00    -0.383 OA
ATOM     10  H   UNL     1      11.468   3.842  24.073  0.00  0.00    +0.210 HD
ENDBRANCH   2   9
BRANCH   3  11
ATOM     11  O   UNL     1       8.433   2.531  21.471  0.00  0.00    -0.385 OA
ATOM     12  H   UNL     1       7.962   1.737  21.162  0.00  0.00    +0.210 HD
ENDBRANCH   3  11
BRANCH   5  13
ATOM     13  C   UNL     1      10.181  -1.590  22.745  0.00  0.00    +0.372 C 
ATOM     14  O   UNL     1      10.225  -2.409  23.645  0.00  0.00    -0.242 OA
BRANCH  13  15
ATOM     15  O   UNL     1      10.174  -1.914  21.432  0.00  0.00    -0.475 OA
ATOM     16  H   UNL     1       9.260  -2.091  21.129  0.00  0.00    +0.296 HD
ENDBRANCH  13  15
ENDBRANCH   5  13
TORSDOF 5
ENDMDL
MODEL 2
REMARK VINA RESULT:      -4.8      3.028      4.461
REMARK  Name = 
REMARK  5 active torsions:
REMARK  status: ('A' for Active; 'I' for Inactive)
REMARK    1  A    between atoms: O_1  and  C_2
REMARK    2  A    between atoms: C_5  and  C_13
REMARK    3  A    between atoms: C_7  and  O_9
REMARK    4  A    between atoms: C_10  and  O_12
REMARK    5  A    between atoms: C_13  and  O_14
REMARK                            x       y       z     vdW  Elec       q    Type
REMARK                         _______ _______ _______ _____ _____    ______ ____
ROOT
ATOM      1  C   UNL     1      10.105  -1.832  23.501  0.00  0.00    +0.337 C 
ATOM      2  C   UNL     1       9.053  -1.498  22.418  0.00  0.00    +0.215 C 
ATOM      3  C   UNL     1       7.803  -2.390  22.440  0.00  0.00    +0.176 C 
ATOM      4  C   UNL     1       7.854  -3.534  23.377  0.00  0.00    +0.060 C 
ATOM      5  C   UNL     1       8.927  -3.834  24.113  0.00  0.00    +0.206 C 
ATOM      6  O   UNL     1      10.106  -3.130  24.094  0.00  0.00    -0.454 OA
ENDROOT
BRANCH   1   7
ATOM      7  O   UNL     1      10.026  -0.865  24.551  0.00  0.00    -0.356 OA
ATOM      8  H   UNL     1      10.558  -1.225  25.282  0.00  0.00    +0.214 HD
ENDBRANCH   1   7
BRANCH   2   9
ATOM      9  O   UNL     1       9.676  -1.593  21.117  0.00  0.00    -0.383 OA
ATOM     10  H   UNL     1      10.225  -0.792  21.016  0.00  0.00    +0.210 HD
ENDBRANCH   2   9
BRANCH   3  11
ATOM     11  O   UNL     1       6.650  -1.610  22.760  0.00  0.00    -0.385 OA
ATOM     12  H   UNL     1       6.950  -0.709  22.977  0.00  0.00    +0.210 HD
ENDBRANCH   3  11
BRANCH   5  13
ATOM     13  C   UNL     1       8.858  -5.036  25.006  0.00  0.00    +0.372 C 
ATOM     14  O   UNL     1       7.869  -5.416  25.607  0.00  0.00    -0.242 OA
BRANCH  13  15
ATOM     15  O   UNL     1      10.061  -5.650  25.073  0.00  0.00    -0.475 OA
ATOM     16  H   UNL     1      10.303  -5.825  26.005  0.00  0.00    +0.296 HD
ENDBRANCH  13  15
ENDBRANCH   5  13
TORSDOF 5
ENDMDL
MODEL 3
REMARK VINA RESULT:      -4.7      4.111      6.111
REMARK  Name = 
REMARK  5 active torsions:
REMARK  status: ('A' for Active; 'I' for Inactive)
REMARK    1  A    between atoms: O_1  and  C_2
REMARK    2  A    between atoms: C_5  and  C_13
REMARK    3  A    between atoms: C_7  and  O_9
REMARK    4  A    between atoms: C_10  and  O_12
REMARK    5  A    between atoms: C_13  and  O_14
REMARK                            x       y       z     vdW  Elec       q    Type
REMARK                         _______ _______ _______ _____ _____    ______ ____
ROOT
ATOM      1  C   UNL     1       8.882  -2.567  23.472  0.00  0.00    +0.337 C 
ATOM      2  C   UNL     1       9.206  -3.425  24.717  0.00  0.00    +0.215 C 
ATOM      3  C   UNL     1       8.649  -4.855  24.675  0.00  0.00    +0.176 C 
ATOM      4  C   UNL     1       7.751  -5.155  23.537  0.00  0.00    +0.060 C 
ATOM      5  C   UNL     1       7.379  -4.244  22.634  0.00  0.00    +0.206 C 
ATOM      6  O   UNL     1       7.776  -2.929  22.646  0.00  0.00    -0.454 OA
ENDROOT
BRANCH   1   7
ATOM      7  O   UNL     1      10.044  -2.479  22.644  0.00  0.00    -0.356 OA
ATOM      8  H   UNL     1      10.735  -2.077  23.199  0.00  0.00    +0.214 HD
ENDBRANCH   1   7
BRANCH   2   9
ATOM      9  O   UNL     1       8.696  -2.755  25.891  0.00  0.00    -0.383 OA
ATOM     10  H   UNL     1       7.791  -2.463  25.670  0.00  0.00    +0.210 HD
ENDBRANCH   2   9
BRANCH   3  11
ATOM     11  O   UNL     1       9.720  -5.799  24.651  0.00  0.00    -0.385 OA
ATOM     12  H   UNL     1       9.508  -6.507  25.285  0.00  0.00    +0.210 HD
ENDBRANCH   3  11
BRANCH   5  13
ATOM     13  C   UNL     1       6.445  -4.670  21.543  0.00  0.00    +0.372 C 
ATOM     14  O   UNL     1       6.428  -5.768  21.014  0.00  0.00    -0.242 OA
BRANCH  13  15
ATOM     15  O   UNL     1       5.616  -3.658  21.202  0.00  0.00    -0.475 OA
ATOM     16  H   UNL     1       5.188  -3.284  22.000  0.00  0.00    +0.296 HD
ENDBRANCH  13  15
ENDBRANCH   5  13
TORSDOF 5
ENDMDL
MODEL 4
REMARK VINA RESULT:      -4.7      3.239      4.815
REMARK  Name = 
REMARK  5 active torsions:
REMARK  status: ('A' for Active; 'I' for Inactive)
REMARK    1  A    between atoms: O_1  and  C_2
REMARK    2  A    between atoms: C_5  and  C_13
REMARK    3  A    between atoms: C_7  and  O_9
REMARK    4  A    between atoms: C_10  and  O_12
REMARK    5  A    between atoms: C_13  and  O_14
REMARK                            x       y       z     vdW  Elec       q    Type
REMARK                         _______ _______ _______ _____ _____    ______ ____
ROOT
ATOM      1  C   UNL     1       7.219  -2.802  23.056  0.00  0.00    +0.337 C 
ATOM      2  C   UNL     1       8.062  -1.607  22.553  0.00  0.00    +0.215 C 
ATOM      3  C   UNL     1       9.529  -1.621  23.007  0.00  0.00    +0.176 C 
ATOM      4  C   UNL     1       9.883  -2.674  23.984  0.00  0.00    +0.060 C 
ATOM      5  C   UNL     1       8.994  -3.522  24.505  0.00  0.00    +0.206 C 
ATOM      6  O   UNL     1       7.654  -3.526  24.206  0.00  0.00    -0.454 OA
ENDROOT
BRANCH   1   7
ATOM      7  O   UNL     1       7.036  -3.734  21.988  0.00  0.00    -0.356 OA
ATOM      8  H   UNL     1       6.593  -3.238  21.277  0.00  0.00    +0.214 HD
ENDBRANCH   1   7
BRANCH   2   9
ATOM      9  O   UNL     1       7.444  -0.379  22.997  0.00  0.00    -0.383 OA
ATOM     10  H   UNL     1       6.553  -0.360  22.598  0.00  0.00    +0.210 HD
ENDBRANCH   2   9
BRANCH   3  11
ATOM     11  O   UNL     1      10.390  -1.761  21.877  0.00  0.00    -0.385 OA
ATOM     12  H   UNL     1      10.237  -2.642  21.491  0.00  0.00    +0.210 HD
ENDBRANCH   3  11
BRANCH   5  13
ATOM     13  C   UNL     1       9.478  -4.528  25.505  0.00  0.00    +0.372 C 
ATOM     14  O   UNL     1       9.202  -4.536  26.692  0.00  0.00    -0.242 OA
BRANCH  13  15
ATOM     15  O   UNL     1      10.287  -5.437  24.915  0.00  0.00    -0.475 OA
ATOM     16  H   UNL     1       9.759  -6.081  24.401  0.00  0.00    +0.296 HD
ENDBRANCH  13  15
ENDBRANCH   5  13
TORSDOF 5
ENDMDL
MODEL 5
REMARK VINA RESULT:      -4.7      2.987      5.731
REMARK  Name = 
REMARK  5 active torsions:
REMARK  status: ('A' for Active; 'I' for Inactive)
REMARK    1  A    between atoms: O_1  and  C_2
REMARK    2  A    between atoms: C_5  and  C_13
REMARK    3  A    between atoms: C_7  and  O_9
REMARK    4  A    between atoms: C_10  and  O_12
REMARK    5  A    between atoms: C_13  and  O_14
REMARK                            x       y       z     vdW  Elec       q    Type
REMARK                         _______ _______ _______ _____ _____    ______ ____
ROOT
ATOM      1  C   UNL     1       9.151  -4.294  25.051  0.00  0.00    +0.337 C 
ATOM      2  C   UNL     1       7.810  -4.823  24.493  0.00  0.00    +0.215 C 
ATOM      3  C   UNL     1       7.383  -4.205  23.153  0.00  0.00    +0.176 C 
ATOM      4  C   UNL     1       8.222  -3.085  22.673  0.00  0.00    +0.060 C 
ATOM      5  C   UNL     1       9.243  -2.580  23.370  0.00  0.00    +0.206 C 
ATOM      6  O   UNL     1       9.640  -3.030  24.606  0.00  0.00    -0.454 OA
ENDROOT
BRANCH   1   7
ATOM      7  O   UNL     1      10.173  -5.268  24.829  0.00  0.00    -0.356 OA
ATOM      8  H   UNL     1       9.730  -6.023  24.402  0.00  0.00    +0.214 HD
ENDBRANCH   1   7
BRANCH   2   9
ATOM      9  O   UNL     1       6.772  -4.590  25.470  0.00  0.00    -0.383 OA
ATOM     10  H   UNL     1       7.167  -4.783  26.342  0.00  0.00    +0.210 HD
ENDBRANCH   2   9
BRANCH   3  11
ATOM     11  O   UNL     1       7.362  -5.207  22.136  0.00  0.00    -0.385 OA
ATOM     12  H   UNL     1       8.260  -5.276  21.765  0.00  0.00    +0.210 HD
ENDBRANCH   3  11
BRANCH   5  13
ATOM     13  C   UNL     1      10.000  -1.428  22.783  0.00  0.00    +0.372 C 
ATOM     14  O   UNL     1      10.463  -0.492  23.410  0.00  0.00    -0.242 OA
BRANCH  13  15
ATOM     15  O   UNL     1      10.094  -1.554  21.439  0.00  0.00    -0.475 OA
ATOM     16  H   UNL     1      10.977  -1.895  21.190  0.00  0.00    +0.296 HD
ENDBRANCH  13  15
ENDBRANCH   5  13
TORSDOF 5
ENDMDL
MODEL 6
REMARK VINA RESULT:      -4.6      6.068      7.344
REMARK  Name = 
REMARK  5 active torsions:
REMARK  status: ('A' for Active; 'I' for Inactive)
REMARK    1  A    between atoms: O_1  and  C_2
REMARK    2  A    between atoms: C_5  and  C_13
REMARK    3  A    between atoms: C_7  and  O_9
REMARK    4  A    between atoms: C_10  and  O_12
REMARK    5  A    between atoms: C_13  and  O_14
REMARK                            x       y       z     vdW  Elec       q    Type
REMARK                         _______ _______ _______ _____ _____    ______ ____
ROOT
ATOM      1  C   UNL     1       8.982  -4.764  24.740  0.00  0.00    +0.337 C 
ATOM      2  C   UNL     1       8.223  -4.653  26.083  0.00  0.00    +0.215 C 
ATOM      3  C   UNL     1       6.742  -5.055  26.019  0.00  0.00    +0.176 C 
ATOM      4  C   UNL     1       6.216  -5.330  24.664  0.00  0.00    +0.060 C 
ATOM      5  C   UNL     1       6.937  -5.179  23.550  0.00  0.00    +0.206 C 
ATOM      6  O   UNL     1       8.242  -4.754  23.520  0.00  0.00    -0.454 OA
ENDROOT
BRANCH   1   7
ATOM      7  O   UNL     1       9.799  -5.937  24.754  0.00  0.00    -0.356 OA
ATOM      8  H   UNL     1       9.244  -6.650  24.393  0.00  0.00    +0.214 HD
ENDBRANCH   1   7
BRANCH   2   9
ATOM      9  O   UNL     1       8.322  -3.295  26.565  0.00  0.00    -0.383 OA
ATOM     10  H   UNL     1       7.717  -2.763  26.013  0.00  0.00    +0.210 HD
ENDBRANCH   2   9
BRANCH   3  11
ATOM     11  O   UNL     1       6.513  -6.212  26.824  0.00  0.00    -0.385 OA
ATOM     12  H   UNL     1       5.796  -6.726  26.411  0.00  0.00    +0.210 HD
ENDBRANCH   3  11
BRANCH   5  13
ATOM     13  C   UNL     1       6.277  -5.467  22.236  0.00  0.00    +0.372 C 
ATOM     14  O   UNL     1       5.761  -4.640  21.506  0.00  0.00    -0.242 OA
BRANCH  13  15
ATOM     15  O   UNL     1       6.316  -6.791  21.963  0.00  0.00    -0.475 OA
ATOM     16  H   UNL     1       6.593  -6.941  21.036  0.00  0.00    +0.296 HD
ENDBRANCH  13  15
ENDBRANCH   5  13
TORSDOF 5
ENDMDL
MODEL 7
REMARK VINA RESULT:      -4.6      1.574      1.788
REMARK  Name = 
REMARK  5 active torsions:
REMARK  status: ('A' for Active; 'I' for Inactive)
REMARK    1  A    between atoms: O_1  and  C_2
REMARK    2  A    between atoms: C_5  and  C_13
REMARK    3  A    between atoms: C_7  and  O_9
REMARK    4  A    between atoms: C_10  and  O_12
REMARK    5  A    between atoms: C_13  and  O_14
REMARK                            x       y       z     vdW  Elec       q    Type
REMARK                         _______ _______ _______ _____ _____    ______ ____
ROOT
ATOM      1  C   UNL     1      10.399   0.920  23.619  0.00  0.00    +0.337 C 
ATOM      2  C   UNL     1       9.409   1.673  22.701  0.00  0.00    +0.215 C 
ATOM      3  C   UNL     1       8.217   0.834  22.218  0.00  0.00    +0.176 C 
ATOM      4  C   UNL     1       8.271  -0.605  22.560  0.00  0.00    +0.060 C 
ATOM      5  C   UNL     1       9.305  -1.174  23.183  0.00  0.00    +0.206 C 
ATOM      6  O   UNL     1      10.437  -0.506  23.581  0.00  0.00    -0.454 OA
ENDROOT
BRANCH   1   7
ATOM      7  O   UNL     1      10.188   1.322  24.975  0.00  0.00    -0.356 OA
ATOM      8  H   UNL     1      10.791   2.071  25.126  0.00  0.00    +0.214 HD
ENDBRANCH   1   7
BRANCH   2   9
ATOM      9  O   UNL     1      10.126   2.177  21.553  0.00  0.00    -0.383 OA
ATOM     10  H   UNL     1      10.590   2.983  21.851  0.00  0.00    +0.210 HD
ENDBRANCH   2   9
BRANCH   3  11
ATOM     11  O   UNL     1       6.999   1.365  22.741  0.00  0.00    -0.385 OA
ATOM     12  H   UNL     1       6.495   1.744  21.998  0.00  0.00    +0.210 HD
ENDBRANCH   3  11
BRANCH   5  13
ATOM     13  C   UNL     1       9.247  -2.647  23.450  0.00  0.00    +0.372 C 
ATOM     14  O   UNL     1      10.054  -3.280  24.106  0.00  0.00    -0.242 OA
BRANCH  13  15
ATOM     15  O   UNL     1       8.170  -3.199  22.846  0.00  0.00    -0.475 OA
ATOM     16  H   UNL     1       7.344  -2.812  23.200  0.00  0.00    +0.296 HD
ENDBRANCH  13  15
ENDBRANCH   5  13
TORSDOF 5
ENDMDL
MODEL 8
REMARK VINA RESULT:      -4.6      3.091      5.671
REMARK  Name = 
REMARK  5 active torsions:
REMARK  status: ('A' for Active; 'I' for Inactive)
REMARK    1  A    between atoms: O_1  and  C_2
REMARK    2  A    between atoms: C_5  and  C_13
REMARK    3  A    between atoms: C_7  and  O_9
REMARK    4  A    between atoms: C_10  and  O_12
REMARK    5  A    between atoms: C_13  and  O_14
REMARK                            x       y       z     vdW  Elec       q    Type
REMARK                         _______ _______ _______ _____ _____    ______ ____
ROOT
ATOM      1  C   UNL     1       9.360  -4.621  24.738  0.00  0.00    +0.337 C 
ATOM      2  C   UNL     1       8.601  -4.300  26.047  0.00  0.00    +0.215 C 
ATOM      3  C   UNL     1       8.213  -2.824  26.219  0.00  0.00    +0.176 C 
ATOM      4  C   UNL     1       8.758  -1.900  25.199  0.00  0.00    +0.060 C 
ATOM      5  C   UNL     1       9.588  -2.285  24.227  0.00  0.00    +0.206 C 
ATOM      6  O   UNL     1      10.038  -3.570  24.051  0.00  0.00    -0.454 OA
ENDROOT
BRANCH   1   7
ATOM      7  O   UNL     1       8.466  -5.250  23.816  0.00  0.00    -0.356 OA
ATOM      8  H   UNL     1       7.578  -4.927  24.047  0.00  0.00    +0.214 HD
ENDBRANCH   1   7
BRANCH   2   9
ATOM      9  O   UNL     1       9.414  -4.707  27.170  0.00  0.00    -0.383 OA
ATOM     10  H   UNL     1      10.252  -4.209  27.098  0.00  0.00    +0.210 HD
ENDBRANCH   2   9
BRANCH   3  11
ATOM     11  O   UNL     1       6.792  -2.688  26.223  0.00  0.00    -0.385 OA
ATOM     12  H   UNL     1       6.547  -2.091  25.493  0.00  0.00    +0.210 HD
ENDBRANCH   3  11
BRANCH   5  13
ATOM     13  C   UNL     1      10.088  -1.245  23.271  0.00  0.00    +0.372 C 
ATOM     14  O   UNL     1      10.087  -0.043  23.468  0.00  0.00    -0.242 OA
BRANCH  13  15
ATOM     15  O   UNL     1      10.537  -1.820  22.132  0.00  0.00    -0.475 OA
ATOM     16  H   UNL     1      11.514  -1.782  22.093  0.00  0.00    +0.296 HD
ENDBRANCH  13  15
ENDBRANCH   5  13
TORSDOF 5
ENDMDL
MODEL 9
REMARK VINA RESULT:      -4.5      6.322      7.121
REMARK  Name = 
REMARK  5 active torsions:
REMARK  status: ('A' for Active; 'I' for Inactive)
REMARK    1  A    between atoms: O_1  and  C_2
REMARK    2  A    between atoms: C_5  and  C_13
REMARK    3  A    between atoms: C_7  and  O_9
REMARK    4  A    between atoms: C_10  and  O_12
REMARK    5  A    between atoms: C_13  and  O_14
REMARK                            x       y       z     vdW  Elec       q    Type
REMARK                         _______ _______ _______ _____ _____    ______ ____
ROOT
ATOM      1  C   UNL     1       5.526  -4.027  24.133  0.00  0.00    +0.337 C 
ATOM      2  C   UNL     1       5.407  -4.450  22.650  0.00  0.00    +0.215 C 
ATOM      3  C   UNL     1       6.549  -5.343  22.144  0.00  0.00    +0.176 C 
ATOM      4  C   UNL     1       7.673  -5.535  23.086  0.00  0.00    +0.060 C 
ATOM      5  C   UNL     1       7.748  -4.929  24.274  0.00  0.00    +0.206 C 
ATOM      6  O   UNL     1       6.805  -4.061  24.766  0.00  0.00    -0.454 OA
ENDROOT
BRANCH   1   7
ATOM      7  O   UNL     1       4.621  -4.803  24.921  0.00  0.00    -0.356 OA
ATOM      8  H   UNL     1       5.177  -5.335  25.516  0.00  0.00    +0.214 HD
ENDBRANCH   1   7
BRANCH   2   9
ATOM      9  O   UNL     1       5.338  -3.263  21.830  0.00  0.00    -0.383 OA
ATOM     10  H   UNL     1       5.639  -3.527  20.939  0.00  0.00    +0.210 HD
ENDBRANCH   2   9
BRANCH   3  11
ATOM     11  O   UNL     1       6.044  -6.632  21.792  0.00  0.00    -0.385 OA
ATOM     12  H   UNL     1       6.805  -7.220  21.640  0.00  0.00    +0.210 HD
ENDBRANCH   3  11
BRANCH   5  13
ATOM     13  C   UNL     1       8.954  -5.190  25.125  0.00  0.00    +0.372 C 
ATOM     14  O   UNL     1      10.095  -4.862  24.855  0.00  0.00    -0.242 OA
BRANCH  13  15
ATOM     15  O   UNL     1       8.609  -5.860  26.248  0.00  0.00    -0.475 OA
ATOM     16  H   UNL     1       7.897  -5.384  26.724  0.00  0.00    +0.296 HD
ENDBRANCH  13  15
ENDBRANCH   5  13
TORSDOF 5
ENDMDL
