MODEL 1
REMARK VINA RESULT:      -6.5      0.000      0.000
REMARK  Name = 
REMARK  8 active torsions:
REMARK  status: ('A' for Active; 'I' for Inactive)
REMARK    1  A    between atoms: N_6  and  C_9
REMARK    2  A    between atoms: C_12  and  C_14
REMARK    3  A    between atoms: C_14  and  O_15
REMARK    4  A    between atoms: C_16  and  O_18
REMARK    5  A    between atoms: O_18  and  P_19
REMARK    6  A    between atoms: P_19  and  O_20
REMARK    7  A    between atoms: P_19  and  O_21
REMARK    8  A    between atoms: C_23  and  O_25
REMARK                            x       y       z     vdW  Elec       q    Type
REMARK                         _______ _______ _______ _____ _____    ______ ____
ROOT
ATOM      1  C   UNL     1       9.474  -3.633  24.313  0.00  0.00    +0.255 C 
ATOM      2  C   UNL     1       9.174  -4.490  25.564  0.00  0.00    +0.196 C 
ATOM      3  C   UNL     1       7.715  -4.937  25.416  0.00  0.00    +0.194 C 
ATOM      4  C   UNL     1       7.343  -4.504  24.004  0.00  0.00    +0.178 C 
ATOM      5  O   UNL     1       8.550  -4.105  23.316  0.00  0.00    -0.346 OA
ENDROOT
BRANCH   1  12
ATOM      6  N   UNL     1       9.421   1.857  24.933  0.00  0.00    -0.343 N 
ATOM      7  H   UNL     1       8.674   2.298  25.448  0.00  0.00    +0.144 HD
ATOM      8  H   UNL     1       9.675   2.344  24.079  0.00  0.00    +0.144 HD
ATOM      9  C   UNL     1       9.386   0.499  24.782  0.00  0.00    +0.123 A 
ATOM     10  C   UNL     1       8.693  -0.317  25.795  0.00  0.00    +0.061 A 
ATOM     11  C   UNL     1       8.698  -1.630  25.588  0.00  0.00    +0.096 A 
ATOM     12  N   UNL     1       9.357  -2.186  24.519  0.00  0.00    -0.270 N 
ATOM     13  C   UNL     1       9.960  -1.378  23.554  0.00  0.00    +0.352 A 
ATOM     14  O   UNL     1      10.489  -1.869  22.555  0.00  0.00    -0.244 OA
ATOM     15  N   UNL     1       9.951  -0.007  23.735  0.00  0.00    -0.178 NA
ENDBRANCH   1  12
BRANCH   2  16
ATOM     16  O   UNL     1       9.957  -5.699  25.625  0.00  0.00    -0.385 OA
ATOM     17  H   UNL     1       9.859  -6.100  26.506  0.00  0.00    +0.210 HD
ENDBRANCH   2  16
BRANCH   3  18
ATOM     18  O   UNL     1       6.802  -4.346  26.347  0.00  0.00    -0.278 OA
BRANCH  18  19
ATOM     19  P   UNL     1       6.327  -5.429  27.610  0.00  0.00    +0.473 P 
ATOM     20  O   UNL     1       5.902  -6.398  28.739  0.00  0.00    -0.228 OA
BRANCH  19  21
ATOM     21  O   UNL     1       7.891  -5.899  27.608  0.00  0.00    -0.303 OA
ATOM     22  H   UNL     1       8.375  -5.413  28.297  0.00  0.00    +0.222 HD
ENDBRANCH  19  21
BRANCH  19  23
ATOM     23  O   UNL     1       5.826  -6.434  26.428  0.00  0.00    -0.303 OA
ATOM     24  H   UNL     1       4.855  -6.322  26.366  0.00  0.00    +0.222 HD
ENDBRANCH  19  23
ENDBRANCH  18  19
ENDBRANCH   3  18
BRANCH   4  25
ATOM     25  C   UNL     1       6.675  -5.599  23.182  0.00  0.00    +0.190 C 
BRANCH  25  26
ATOM     26  O   UNL     1       5.407  -5.912  23.758  0.00  0.00    -0.392 OA
ATOM     27  H   UNL     1       4.822  -5.154  23.557  0.00  0.00    +0.210 HD
ENDBRANCH  25  26
ENDBRANCH   4  25
TORSDOF 8
ENDMDL
MODEL 2
REMARK VINA RESULT:      -6.4      3.579      6.632
REMARK  Name = 
REMARK  8 active torsions:
REMARK  status: ('A' for Active; 'I' for Inactive)
REMARK    1  A    between atoms: N_6  and  C_9
REMARK    2  A    between atoms: C_12  and  C_14
REMARK    3  A    between atoms: C_14  and  O_15
REMARK    4  A    between atoms: C_16  and  O_18
REMARK    5  A    between atoms: O_18  and  P_19
REMARK    6  A    between atoms: P_19  and  O_20
REMARK    7  A    between atoms: P_19  and  O_21
REMARK    8  A    between atoms: C_23  and  O_25
REMARK                            x       y       z     vdW  Elec       q    Type
REMARK                         _______ _______ _______ _____ _____    ______ ____
ROOT
ATOM      1  C   UNL     1       9.413  -2.334  23.142  0.00  0.00    +0.255 C 
ATOM      2  C   UNL     1       8.893  -1.265  22.154  0.00  0.00    +0.196 C 
ATOM      3  C   UNL     1       8.864   0.047  22.945  0.00  0.00    +0.194 C 
ATOM      4  C   UNL     1       9.570  -0.299  24.250  0.00  0.00    +0.178 C 
ATOM      5  O   UNL     1      10.189  -1.596  24.104  0.00  0.00    -0.346 OA
ENDROOT
BRANCH   1  12
ATOM      6  N   UNL     1       5.698  -5.685  25.484  0.00  0.00    -0.343 N 
ATOM      7  H   UNL     1       4.799  -5.321  25.766  0.00  0.00    +0.144 HD
ATOM      8  H   UNL     1       6.118  -6.314  26.162  0.00  0.00    +0.144 HD
ATOM      9  C   UNL     1       6.598  -4.819  24.930  0.00  0.00    +0.123 A 
ATOM     10  C   UNL     1       6.102  -3.626  24.222  0.00  0.00    +0.061 A 
ATOM     11  C   UNL     1       7.030  -2.827  23.705  0.00  0.00    +0.096 A 
ATOM     12  N   UNL     1       8.366  -3.132  23.787  0.00  0.00    -0.270 N 
ATOM     13  C   UNL     1       8.801  -4.246  24.509  0.00  0.00    +0.352 A 
ATOM     14  O   UNL     1      10.002  -4.483  24.646  0.00  0.00    -0.244 OA
ATOM     15  N   UNL     1       7.855  -5.082  25.073  0.00  0.00    -0.178 NA
ENDBRANCH   1  12
BRANCH   2  16
ATOM     16  O   UNL     1       9.783  -1.039  21.042  0.00  0.00    -0.385 OA
ATOM     17  H   UNL     1       9.844  -1.853  20.511  0.00  0.00    +0.210 HD
ENDBRANCH   2  16
BRANCH   3  18
ATOM     18  O   UNL     1       7.556   0.552  23.236  0.00  0.00    -0.278 OA
BRANCH  18  19
ATOM     19  P   UNL     1       7.209   2.041  22.426  0.00  0.00    +0.473 P 
ATOM     20  O   UNL     1       6.899   3.373  21.702  0.00  0.00    -0.228 OA
BRANCH  19  21
ATOM     21  O   UNL     1       8.596   1.762  21.611  0.00  0.00    -0.303 OA
ATOM     22  H   UNL     1       8.761   2.496  20.994  0.00  0.00    +0.222 HD
ENDBRANCH  19  21
BRANCH  19  23
ATOM     23  O   UNL     1       7.890   2.784  23.707  0.00  0.00    -0.303 OA
ATOM     24  H   UNL     1       7.809   2.163  24.460  0.00  0.00    +0.222 HD
ENDBRANCH  19  23
ENDBRANCH  18  19
ENDBRANCH   3  18
BRANCH   4  25
ATOM     25  C   UNL     1      10.654   0.697  24.644  0.00  0.00    +0.190 C 
BRANCH  25  26
ATOM     26  O   UNL     1      10.585   1.833  23.784  0.00  0.00    -0.392 OA
ATOM     27  H   UNL     1       9.651   2.125  23.792  0.00  0.00    +0.210 HD
ENDBRANCH  25  26
ENDBRANCH   4  25
TORSDOF 8
ENDMDL
MODEL 3
REMARK VINA RESULT:      -6.3      2.514      3.983
REMARK  Name = 
REMARK  8 active torsions:
REMARK  status: ('A' for Active; 'I' for Inactive)
REMARK    1  A    between atoms: N_6  and  C_9
REMARK    2  A    between atoms: C_12  and  C_14
REMARK    3  A    between atoms: C_14  and  O_15
REMARK    4  A    between atoms: C_16  and  O_18
REMARK    5  A    between atoms: O_18  and  P_19
REMARK    6  A    between atoms: P_19  and  O_20
REMARK    7  A    between atoms: P_19  and  O_21
REMARK    8  A    between atoms: C_23  and  O_25
REMARK                            x       y       z     vdW  Elec       q    Type
REMARK                         _______ _______ _______ _____ _____    ______ ____
ROOT
ATOM      1  C   UNL     1       8.123  -1.445  25.019  0.00  0.00    +0.255 C 
ATOM      2  C   UNL     1       6.854  -2.190  24.547  0.00  0.00    +0.196 C 
ATOM      3  C   UNL     1       7.337  -3.562  24.066  0.00  0.00    +0.194 C 
ATOM      4  C   UNL     1       8.799  -3.604  24.493  0.00  0.00    +0.178 C 
ATOM      5  O   UNL     1       9.048  -2.488  25.377  0.00  0.00    -0.346 OA
ENDROOT
BRANCH   1  12
ATOM      6  N   UNL     1      10.333   2.294  21.604  0.00  0.00    -0.343 N 
ATOM      7  H   UNL     1      10.321   2.135  20.608  0.00  0.00    +0.144 HD
ATOM      8  H   UNL     1      11.215   2.660  21.951  0.00  0.00    +0.144 HD
ATOM      9  C   UNL     1       9.798   1.335  22.417  0.00  0.00    +0.123 A 
ATOM     10  C   UNL     1       8.738   0.459  21.888  0.00  0.00    +0.061 A 
ATOM     11  C   UNL     1       8.259  -0.451  22.731  0.00  0.00    +0.096 A 
ATOM     12  N   UNL     1       8.697  -0.527  24.030  0.00  0.00    -0.270 N 
ATOM     13  C   UNL     1       9.738   0.288  24.481  0.00  0.00    +0.352 A 
ATOM     14  O   UNL     1      10.184   0.173  25.624  0.00  0.00    -0.244 OA
ATOM     15  N   UNL     1      10.267   1.229  23.617  0.00  0.00    -0.178 NA
ENDBRANCH   1  12
BRANCH   2  16
ATOM     16  O   UNL     1       5.919  -2.448  25.614  0.00  0.00    -0.385 OA
ATOM     17  H   UNL     1       6.090  -3.333  25.982  0.00  0.00    +0.210 HD
ENDBRANCH   2  16
BRANCH   3  18
ATOM     18  O   UNL     1       7.253  -3.775  22.653  0.00  0.00    -0.278 OA
BRANCH  18  19
ATOM     19  P   UNL     1       6.017  -4.902  22.210  0.00  0.00    +0.473 P 
ATOM     20  O   UNL     1       4.911  -5.910  21.813  0.00  0.00    -0.228 OA
BRANCH  19  21
ATOM     21  O   UNL     1       7.224  -5.732  21.488  0.00  0.00    -0.303 OA
ATOM     22  H   UNL     1       7.619  -5.183  20.788  0.00  0.00    +0.222 HD
ENDBRANCH  19  21
BRANCH  19  23
ATOM     23  O   UNL     1       5.696  -3.909  20.957  0.00  0.00    -0.303 OA
ATOM     24  H   UNL     1       4.720  -3.857  20.892  0.00  0.00    +0.222 HD
ENDBRANCH  19  23
ENDBRANCH  18  19
ENDBRANCH   3  18
BRANCH   4  25
ATOM     25  C   UNL     1       9.188  -4.881  25.228  0.00  0.00    +0.190 C 
BRANCH  25  26
ATOM     26  O   UNL     1      10.556  -5.181  24.959  0.00  0.00    -0.392 OA
ATOM     27  H   UNL     1      10.564  -5.694  24.126  0.00  0.00    +0.210 HD
ENDBRANCH  25  26
ENDBRANCH   4  25
TORSDOF 8
ENDMDL
MODEL 4
REMARK VINA RESULT:      -6.2      3.399      6.391
REMARK  Name = 
REMARK  8 active torsions:
REMARK  status: ('A' for Active; 'I' for Inactive)
REMARK    1  A    between atoms: N_6  and  C_9
REMARK    2  A    between atoms: C_12  and  C_14
REMARK    3  A    between atoms: C_14  and  O_15
REMARK    4  A    between atoms: C_16  and  O_18
REMARK    5  A    between atoms: O_18  and  P_19
REMARK    6  A    between atoms: P_19  and  O_20
REMARK    7  A    between atoms: P_19  and  O_21
REMARK    8  A    between atoms: C_23  and  O_25
REMARK                            x       y       z     vdW  Elec       q    Type
REMARK                         _______ _______ _______ _____ _____    ______ ____
ROOT
ATOM      1  C   UNL     1       7.621  -5.189  25.579  0.00  0.00    +0.255 C 
ATOM      2  C   UNL     1       8.652  -4.700  24.536  0.00  0.00    +0.196 C 
ATOM      3  C   UNL     1       8.504  -3.175  24.495  0.00  0.00    +0.194 C 
ATOM      4  C   UNL     1       7.571  -2.868  25.659  0.00  0.00    +0.178 C 
ATOM      5  O   UNL     1       7.427  -4.064  26.457  0.00  0.00    -0.346 OA
ENDROOT
BRANCH   1  12
ATOM      6  N   UNL     1       2.889  -7.312  23.677  0.00  0.00    -0.343 N 
ATOM      7  H   UNL     1       2.409  -6.865  22.909  0.00  0.00    +0.144 HD
ATOM      8  H   UNL     1       2.273  -7.614  24.426  0.00  0.00    +0.144 HD
ATOM      9  C   UNL     1       4.044  -6.743  24.135  0.00  0.00    +0.123 A 
ATOM     10  C   UNL     1       4.859  -5.936  23.210  0.00  0.00    +0.061 A 
ATOM     11  C   UNL     1       5.971  -5.412  23.717  0.00  0.00    +0.096 A 
ATOM     12  N   UNL     1       6.353  -5.659  25.013  0.00  0.00    -0.270 N 
ATOM     13  C   UNL     1       5.530  -6.388  25.874  0.00  0.00    +0.352 A 
ATOM     14  O   UNL     1       5.834  -6.550  27.057  0.00  0.00    -0.244 OA
ATOM     15  N   UNL     1       4.358  -6.926  25.375  0.00  0.00    -0.178 NA
ENDBRANCH   1  12
BRANCH   2  16
ATOM     16  O   UNL     1      10.016  -4.957  24.924  0.00  0.00    -0.385 OA
ATOM     17  H   UNL     1      10.114  -4.794  25.879  0.00  0.00    +0.210 HD
ENDBRANCH   2  16
BRANCH   3  18
ATOM     18  O   UNL     1       7.939  -2.652  23.287  0.00  0.00    -0.278 OA
BRANCH  18  19
ATOM     19  P   UNL     1       9.047  -1.674  22.389  0.00  0.00    +0.473 P 
ATOM     20  O   UNL     1      10.039  -0.797  21.586  0.00  0.00    -0.228 OA
BRANCH  19  21
ATOM     21  O   UNL     1      10.152  -2.153  23.493  0.00  0.00    -0.303 OA
ATOM     22  H   UNL     1      10.742  -1.408  23.702  0.00  0.00    +0.222 HD
ENDBRANCH  19  21
BRANCH  19  23
ATOM     23  O   UNL     1       8.468  -0.409  23.239  0.00  0.00    -0.303 OA
ATOM     24  H   UNL     1       9.242   0.010  23.669  0.00  0.00    +0.222 HD
ENDBRANCH  19  23
ENDBRANCH  18  19
ENDBRANCH   3  18
BRANCH   4  25
ATOM     25  C   UNL     1       8.072  -1.754  26.570  0.00  0.00    +0.190 C 
BRANCH  25  26
ATOM     26  O   UNL     1       9.086  -1.013  25.892  0.00  0.00    -0.392 OA
ATOM     27  H   UNL     1       9.840  -0.954  26.512  0.00  0.00    +0.210 HD
ENDBRANCH  25  26
ENDBRANCH   4  25
TORSDOF 8
ENDMDL
MODEL 5
REMARK VINA RESULT:      -6.1      3.099      5.422
REMARK  Name = 
REMARK  8 active torsions:
REMARK  status: ('A' for Active; 'I' for Inactive)
REMARK    1  A    between atoms: N_6  and  C_9
REMARK    2  A    between atoms: C_12  and  C_14
REMARK    3  A    between atoms: C_14  and  O_15
REMARK    4  A    between atoms: C_16  and  O_18
REMARK    5  A    between atoms: O_18  and  P_19
REMARK    6  A    between atoms: P_19  and  O_20
REMARK    7  A    between atoms: P_19  and  O_21
REMARK    8  A    between atoms: C_23  and  O_25
REMARK                            x       y       z     vdW  Elec       q    Type
REMARK                         _______ _______ _______ _____ _____    ______ ____
ROOT
ATOM      1  C   UNL     1       6.501  -1.959  23.899  0.00  0.00    +0.255 C 
ATOM      2  C   UNL     1       7.675  -2.245  24.863  0.00  0.00    +0.196 C 
ATOM      3  C   UNL     1       8.918  -2.358  23.974  0.00  0.00    +0.194 C 
ATOM      4  C   UNL     1       8.427  -1.915  22.602  0.00  0.00    +0.178 C 
ATOM      5  O   UNL     1       7.111  -1.338  22.753  0.00  0.00    -0.346 OA
ENDROOT
BRANCH   1  12
ATOM      6  N   UNL     1       3.463  -6.461  22.888  0.00  0.00    -0.343 N 
ATOM      7  H   UNL     1       3.463  -6.872  21.966  0.00  0.00    +0.144 HD
ATOM      8  H   UNL     1       2.543  -6.410  23.315  0.00  0.00    +0.144 HD
ATOM      9  C   UNL     1       4.208  -5.335  23.092  0.00  0.00    +0.123 A 
ATOM     10  C   UNL     1       5.394  -5.099  22.250  0.00  0.00    +0.061 A 
ATOM     11  C   UNL     1       6.076  -3.986  22.501  0.00  0.00    +0.096 A 
ATOM     12  N   UNL     1       5.717  -3.140  23.522  0.00  0.00    -0.270 N 
ATOM     13  C   UNL     1       4.559  -3.371  24.267  0.00  0.00    +0.352 A 
ATOM     14  O   UNL     1       4.194  -2.576  25.134  0.00  0.00    -0.244 OA
ATOM     15  N   UNL     1       3.821  -4.512  24.010  0.00  0.00    -0.178 NA
ENDBRANCH   1  12
BRANCH   2  16
ATOM     16  O   UNL     1       7.935  -1.161  25.776  0.00  0.00    -0.385 OA
ATOM     17  H   UNL     1       7.876  -1.491  26.690  0.00  0.00    +0.210 HD
ENDBRANCH   2  16
BRANCH   3  18
ATOM     18  O   UNL     1       9.475  -3.673  23.873  0.00  0.00    -0.278 OA
BRANCH  18  19
ATOM     19  P   UNL     1       8.860  -4.763  25.068  0.00  0.00    +0.473 P 
ATOM     20  O   UNL     1       8.310  -5.739  26.137  0.00  0.00    -0.228 OA
BRANCH  19  21
ATOM     21  O   UNL     1      10.420  -5.202  25.273  0.00  0.00    -0.303 OA
ATOM     22  H   UNL     1      10.883  -4.519  25.787  0.00  0.00    +0.222 HD
ENDBRANCH  19  21
BRANCH  19  23
ATOM     23  O   UNL     1       8.539  -5.780  23.835  0.00  0.00    -0.303 OA
ATOM     24  H   UNL     1       8.159  -5.231  23.118  0.00  0.00    +0.222 HD
ENDBRANCH  19  23
ENDBRANCH  18  19
ENDBRANCH   3  18
BRANCH   4  25
ATOM     25  C   UNL     1       9.322  -0.876  21.936  0.00  0.00    +0.190 C 
BRANCH  25  26
ATOM     26  O   UNL     1      10.537  -1.498  21.522  0.00  0.00    -0.392 OA
ATOM     27  H   UNL     1      10.583  -2.351  21.999  0.00  0.00    +0.210 HD
ENDBRANCH  25  26
ENDBRANCH   4  25
TORSDOF 8
ENDMDL
MODEL 6
REMARK VINA RESULT:      -6.0      1.886      2.336
REMARK  Name = 
REMARK  8 active torsions:
REMARK  status: ('A' for Active; 'I' for Inactive)
REMARK    1  A    between atoms: N_6  and  C_9
REMARK    2  A    between atoms: C_12  and  C_14
REMARK    3  A    between atoms: C_14  and  O_15
REMARK    4  A    between atoms: C_16  and  O_18
REMARK    5  A    between atoms: O_18  and  P_19
REMARK    6  A    between atoms: P_19  and  O_20
REMARK    7  A    between atoms: P_19  and  O_21
REMARK    8  A    between atoms: C_23  and  O_25
REMARK                            x       y       z     vdW  Elec       q    Type
REMARK                         _______ _______ _______ _____ _____    ______ ____
ROOT
ATOM      1  C   UNL     1       9.524  -1.740  22.956  0.00  0.00    +0.255 C 
ATOM      2  C   UNL     1       9.406  -2.580  24.249  0.00  0.00    +0.196 C 
ATOM      3  C   UNL     1       7.940  -3.022  24.319  0.00  0.00    +0.194 C 
ATOM      4  C   UNL     1       7.368  -2.605  22.970  0.00  0.00    +0.178 C 
ATOM      5  O   UNL     1       8.463  -2.220  22.110  0.00  0.00    -0.346 OA
ENDROOT
BRANCH   1  12
ATOM      6  N   UNL     1       9.468   3.767  23.385  0.00  0.00    -0.343 N 
ATOM      7  H   UNL     1       9.061   4.205  24.199  0.00  0.00    +0.144 HD
ATOM      8  H   UNL     1       9.224   4.220  22.510  0.00  0.00    +0.144 HD
ATOM      9  C   UNL     1       9.441   2.403  23.306  0.00  0.00    +0.123 A 
ATOM     10  C   UNL     1       9.409   1.614  24.549  0.00  0.00    +0.061 A 
ATOM     11  C   UNL     1       9.386   0.293  24.401  0.00  0.00    +0.096 A 
ATOM     12  N   UNL     1       9.442  -0.291  23.159  0.00  0.00    -0.270 N 
ATOM     13  C   UNL     1       9.422   0.491  22.002  0.00  0.00    +0.352 A 
ATOM     14  O   UNL     1       9.399  -0.030  20.885  0.00  0.00    -0.244 OA
ATOM     15  N   UNL     1       9.426   1.868  22.130  0.00  0.00    -0.178 NA
ENDBRANCH   1  12
BRANCH   2  16
ATOM     16  O   UNL     1      10.186  -3.792  24.210  0.00  0.00    -0.385 OA
ATOM     17  H   UNL     1      11.068  -3.593  23.851  0.00  0.00    +0.210 HD
ENDBRANCH   2  16
BRANCH   3  18
ATOM     18  O   UNL     1       7.173  -2.416  25.365  0.00  0.00    -0.278 OA
BRANCH  18  19
ATOM     19  P   UNL     1       6.834  -3.498  26.671  0.00  0.00    +0.473 P 
ATOM     20  O   UNL     1       6.531  -4.467  27.840  0.00  0.00    -0.228 OA
BRANCH  19  21
ATOM     21  O   UNL     1       7.561  -4.628  25.743  0.00  0.00    -0.303 OA
ATOM     22  H   UNL     1       7.008  -5.428  25.717  0.00  0.00    +0.222 HD
ENDBRANCH  19  21
BRANCH  19  23
ATOM     23  O   UNL     1       5.345  -3.656  26.028  0.00  0.00    -0.303 OA
ATOM     24  H   UNL     1       5.329  -3.086  25.231  0.00  0.00    +0.222 HD
ENDBRANCH  19  23
ENDBRANCH  18  19
ENDBRANCH   3  18
BRANCH   4  25
ATOM     25  C   UNL     1       6.584  -3.706  22.269  0.00  0.00    +0.190 C 
BRANCH  25  26
ATOM     26  O   UNL     1       5.930  -4.514  23.246  0.00  0.00    -0.392 OA
ATOM     27  H   UNL     1       5.730  -3.923  23.999  0.00  0.00    +0.210 HD
ENDBRANCH  25  26
ENDBRANCH   4  25
TORSDOF 8
ENDMDL
MODEL 7
REMARK VINA RESULT:      -6.0      3.766      5.868
REMARK  Name = 
REMARK  8 active torsions:
REMARK  status: ('A' for Active; 'I' for Inactive)
REMARK    1  A    between atoms: N_6  and  C_9
REMARK    2  A    between atoms: C_12  and  C_14
REMARK    3  A    between atoms: C_14  and  O_15
REMARK    4  A    between atoms: C_16  and  O_18
REMARK    5  A    between atoms: O_18  and  P_19
REMARK    6  A    between atoms: P_19  and  O_20
REMARK    7  A    between atoms: P_19  and  O_21
REMARK    8  A    between atoms: C_23  and  O_25
REMARK                            x       y       z     vdW  Elec       q    Type
REMARK                         _______ _______ _______ _____ _____    ______ ____
ROOT
ATOM      1  C   UNL     1       6.684  -2.292  22.664  0.00  0.00    +0.255 C 
ATOM      2  C   UNL     1       6.785  -1.098  23.640  0.00  0.00    +0.196 C 
ATOM      3  C   UNL     1       8.257  -1.035  24.061  0.00  0.00    +0.194 C 
ATOM      4  C   UNL     1       8.943  -2.039  23.144  0.00  0.00    +0.178 C 
ATOM      5  O   UNL     1       8.007  -2.428  22.113  0.00  0.00    -0.346 OA
ENDROOT
BRANCH   1  12
ATOM      6  N   UNL     1       4.622  -7.007  24.674  0.00  0.00    -0.343 N 
ATOM      7  H   UNL     1       4.978  -7.383  25.541  0.00  0.00    +0.144 HD
ATOM      8  H   UNL     1       4.481  -7.706  23.951  0.00  0.00    +0.144 HD
ATOM      9  C   UNL     1       5.175  -5.851  24.198  0.00  0.00    +0.123 A 
ATOM     10  C   UNL     1       5.773  -4.899  25.150  0.00  0.00    +0.061 A 
ATOM     11  C   UNL     1       6.291  -3.795  24.621  0.00  0.00    +0.096 A 
ATOM     12  N   UNL     1       6.220  -3.543  23.273  0.00  0.00    -0.270 N 
ATOM     13  C   UNL     1       5.689  -4.492  22.397  0.00  0.00    +0.352 A 
ATOM     14  O   UNL     1       5.689  -4.301  21.179  0.00  0.00    -0.244 OA
ATOM     15  N   UNL     1       5.162  -5.658  22.920  0.00  0.00    -0.178 NA
ENDBRANCH   1  12
BRANCH   2  16
ATOM     16  O   UNL     1       6.494   0.169  23.017  0.00  0.00    -0.385 OA
ATOM     17  H   UNL     1       7.329   0.639  22.841  0.00  0.00    +0.210 HD
ENDBRANCH   2  16
BRANCH   3  18
ATOM     18  O   UNL     1       8.514  -1.389  25.424  0.00  0.00    -0.278 OA
BRANCH  18  19
ATOM     19  P   UNL     1       7.895  -0.234  26.554  0.00  0.00    +0.473 P 
ATOM     20  O   UNL     1       7.342   0.800  27.565  0.00  0.00    -0.228 OA
BRANCH  19  21
ATOM     21  O   UNL     1       8.709   0.868  25.664  0.00  0.00    -0.303 OA
ATOM     22  H   UNL     1       9.565   0.494  25.393  0.00  0.00    +0.222 HD
ENDBRANCH  19  21
BRANCH  19  23
ATOM     23  O   UNL     1       9.141  -0.654  27.518  0.00  0.00    -0.303 OA
ATOM     24  H   UNL     1       9.892  -0.081  27.260  0.00  0.00    +0.222 HD
ENDBRANCH  19  23
ENDBRANCH  18  19
ENDBRANCH   3  18
BRANCH   4  25
ATOM     25  C   UNL     1      10.192  -1.495  22.462  0.00  0.00    +0.190 C 
BRANCH  25  26
ATOM     26  O   UNL     1       9.828  -0.897  21.219  0.00  0.00    -0.392 OA
ATOM     27  H   UNL     1      10.146   0.027  21.258  0.00  0.00    +0.210 HD
ENDBRANCH  25  26
ENDBRANCH   4  25
TORSDOF 8
ENDMDL
MODEL 8
REMARK VINA RESULT:      -5.9      3.424      5.982
REMARK  Name = 
REMARK  8 active torsions:
REMARK  status: ('A' for Active; 'I' for Inactive)
REMARK    1  A    between atoms: N_6  and  C_9
REMARK    2  A    between atoms: C_12  and  C_14
REMARK    3  A    between atoms: C_14  and  O_15
REMARK    4  A    between atoms: C_16  and  O_18
REMARK    5  A    between atoms: O_18  and  P_19
REMARK    6  A    between atoms: P_19  and  O_20
REMARK    7  A    between atoms: P_19  and  O_21
REMARK    8  A    between atoms: C_23  and  O_25
REMARK                            x       y       z     vdW  Elec       q    Type
REMARK                         _______ _______ _______ _____ _____    ______ ____
ROOT
ATOM      1  C   UNL     1       9.482  -2.512  23.627  0.00  0.00    +0.255 C 
ATOM      2  C   UNL     1       8.915  -1.820  22.366  0.00  0.00    +0.196 C 
ATOM      3  C   UNL     1       8.500  -0.416  22.819  0.00  0.00    +0.194 C 
ATOM      4  C   UNL     1       9.052  -0.311  24.235  0.00  0.00    +0.178 C 
ATOM      5  O   UNL     1       9.935  -1.432  24.465  0.00  0.00    -0.346 OA
ENDROOT
BRANCH   1  12
ATOM      6  N   UNL     1       6.126  -6.110  26.139  0.00  0.00    -0.343 N 
ATOM      7  H   UNL     1       5.253  -5.793  26.536  0.00  0.00    +0.144 HD
ATOM      8  H   UNL     1       6.632  -6.763  26.729  0.00  0.00    +0.144 HD
ATOM      9  C   UNL     1       6.939  -5.186  25.547  0.00  0.00    +0.123 A 
ATOM     10  C   UNL     1       6.339  -3.970  24.969  0.00  0.00    +0.061 A 
ATOM     11  C   UNL     1       7.186  -3.113  24.407  0.00  0.00    +0.096 A 
ATOM     12  N   UNL     1       8.531  -3.379  24.329  0.00  0.00    -0.270 N 
ATOM     13  C   UNL     1       9.069  -4.518  24.932  0.00  0.00    +0.352 A 
ATOM     14  O   UNL     1      10.283  -4.724  24.927  0.00  0.00    -0.244 OA
ATOM     15  N   UNL     1       8.211  -5.416  25.541  0.00  0.00    -0.178 NA
ENDBRANCH   1  12
BRANCH   2  16
ATOM     16  O   UNL     1       9.901  -1.630  21.332  0.00  0.00    -0.385 OA
ATOM     17  H   UNL     1       9.454  -1.369  20.508  0.00  0.00    +0.210 HD
ENDBRANCH   2  16
BRANCH   3  18
ATOM     18  O   UNL     1       7.088  -0.178  22.845  0.00  0.00    -0.278 OA
BRANCH  18  19
ATOM     19  P   UNL     1       6.626   1.036  23.987  0.00  0.00    +0.473 P 
ATOM     20  O   UNL     1       6.211   2.123  25.009  0.00  0.00    -0.228 OA
BRANCH  19  21
ATOM     21  O   UNL     1       5.457  -0.017  24.427  0.00  0.00    -0.303 OA
ATOM     22  H   UNL     1       5.642  -0.348  25.323  0.00  0.00    +0.222 HD
ENDBRANCH  19  21
BRANCH  19  23
ATOM     23  O   UNL     1       5.801   1.733  22.766  0.00  0.00    -0.303 OA
ATOM     24  H   UNL     1       6.135   1.325  21.941  0.00  0.00    +0.222 HD
ENDBRANCH  19  23
ENDBRANCH  18  19
ENDBRANCH   3  18
BRANCH   4  25
ATOM     25  C   UNL     1       9.838   0.967  24.495  0.00  0.00    +0.190 C 
BRANCH  25  26
ATOM     26  O   UNL     1      11.212   0.641  24.702  0.00  0.00    -0.392 OA
ATOM     27  H   UNL     1      11.726   1.267  24.154  0.00  0.00    +0.210 HD
ENDBRANCH  25  26
ENDBRANCH   4  25
TORSDOF 8
ENDMDL
MODEL 9
REMARK VINA RESULT:      -5.8      3.427      5.863
REMARK  Name = 
REMARK  8 active torsions:
REMARK  status: ('A' for Active; 'I' for Inactive)
REMARK    1  A    between atoms: N_6  and  C_9
REMARK    2  A    between atoms: C_12  and  C_14
REMARK    3  A    between atoms: C_14  and  O_15
REMARK    4  A    between atoms: C_16  and  O_18
REMARK    5  A    between atoms: O_18  and  P_19
REMARK    6  A    between atoms: P_19  and  O_20
REMARK    7  A    between atoms: P_19  and  O_21
REMARK    8  A    between atoms: C_23  and  O_25
REMARK                            x       y       z     vdW  Elec       q    Type
REMARK                         _______ _______ _______ _____ _____    ______ ____
ROOT
ATOM      1  C   UNL     1       8.466  -4.309  25.623  0.00  0.00    +0.255 C 
ATOM      2  C   UNL     1       8.770  -3.498  24.342  0.00  0.00    +0.196 C 
ATOM      3  C   UNL     1       8.325  -2.064  24.648  0.00  0.00    +0.194 C 
ATOM      4  C   UNL     1       8.007  -2.091  26.138  0.00  0.00    +0.178 C 
ATOM      5  O   UNL     1       8.491  -3.338  26.685  0.00  0.00    -0.346 OA
ENDROOT
BRANCH   1  12
ATOM      6  N   UNL     1       3.882  -7.390  25.748  0.00  0.00    -0.343 N 
ATOM      7  H   UNL     1       3.100  -7.153  25.155  0.00  0.00    +0.144 HD
ATOM      8  H   UNL     1       3.617  -7.649  26.694  0.00  0.00    +0.144 HD
ATOM      9  C   UNL     1       4.989  -6.589  25.706  0.00  0.00    +0.123 A 
ATOM     10  C   UNL     1       5.282  -5.839  24.472  0.00  0.00    +0.061 A 
ATOM     11  C   UNL     1       6.374  -5.081  24.496  0.00  0.00    +0.096 A 
ATOM     12  N   UNL     1       7.200  -5.048  25.593  0.00  0.00    -0.270 N 
ATOM     13  C   UNL     1       6.863  -5.734  26.761  0.00  0.00    +0.352 A 
ATOM     14  O   UNL     1       7.564  -5.649  27.772  0.00  0.00    -0.244 OA
ATOM     15  N   UNL     1       5.721  -6.514  26.768  0.00  0.00    -0.178 NA
ENDBRANCH   1  12
BRANCH   2  16
ATOM     16  O   UNL     1      10.178  -3.422  24.040  0.00  0.00    -0.385 OA
ATOM     17  H   UNL     1      10.688  -3.526  24.862  0.00  0.00    +0.210 HD
ENDBRANCH   2  16
BRANCH   3  18
ATOM     18  O   UNL     1       7.171  -1.619  23.928  0.00  0.00    -0.278 OA
BRANCH  18  19
ATOM     19  P   UNL     1       5.808  -1.318  24.950  0.00  0.00    +0.473 P 
ATOM     20  O   UNL     1       4.589  -1.047  25.865  0.00  0.00    -0.228 OA
BRANCH  19  21
ATOM     21  O   UNL     1       4.967  -2.190  23.856  0.00  0.00    -0.303 OA
ATOM     22  H   UNL     1       4.016  -2.020  23.970  0.00  0.00    +0.222 HD
ENDBRANCH  19  21
BRANCH  19  23
ATOM     23  O   UNL     1       5.676   0.118  24.188  0.00  0.00    -0.303 OA
ATOM     24  H   UNL     1       5.460   0.777  24.879  0.00  0.00    +0.222 HD
ENDBRANCH  19  23
ENDBRANCH  18  19
ENDBRANCH   3  18
BRANCH   4  25
ATOM     25  C   UNL     1       8.648  -0.954  26.923  0.00  0.00    +0.190 C 
BRANCH  25  26
ATOM     26  O   UNL     1       9.172   0.011  26.012  0.00  0.00    -0.392 OA
ATOM     27  H   UNL     1       9.972   0.380  26.436  0.00  0.00    +0.210 HD
ENDBRANCH  25  26
ENDBRANCH   4  25
TORSDOF 8
ENDMDL
