MODEL 1
REMARK VINA RESULT:      -4.7      0.000      0.000
REMARK  Name = 
REMARK  3 active torsions:
REMARK  status: ('A' for Active; 'I' for Inactive)
REMARK    1  A    between atoms: O_1  and  C_2
REMARK    2  A    between atoms: C_2  and  C_4
REMARK    3  A    between atoms: C_7  and  O_8
REMARK                            x       y       z     vdW  Elec       q    Type
REMARK                         _______ _______ _______ _____ _____    ______ ____
ROOT
ATOM      1  C   UNL     1       9.639  -1.350  23.514  0.00  0.00    +0.059 A 
ATOM      2  C   UNL     1       9.315  -1.218  22.157  0.00  0.00    +0.018 A 
ATOM      3  C   UNL     1       9.524   0.002  21.511  0.00  0.00    +0.046 A 
ATOM      4  C   UNL     1      10.035   1.084  22.223  0.00  0.00    +0.117 A 
ATOM      5  C   UNL     1      10.349   0.970  23.573  0.00  0.00    +0.046 A 
ATOM      6  C   UNL     1      10.147  -0.252  24.221  0.00  0.00    +0.018 A 
ENDROOT
BRANCH   1   7
ATOM      7  C   UNL     1       9.417  -2.616  24.253  0.00  0.00    +0.337 C 
ATOM      8  O   UNL     1      10.151  -3.582  24.147  0.00  0.00    -0.245 OA
BRANCH   7   9
ATOM      9  O   UNL     1       8.301  -2.612  25.013  0.00  0.00    -0.477 OA
ATOM     10  H   UNL     1       8.456  -2.511  25.970  0.00  0.00    +0.295 HD
ENDBRANCH   7   9
ENDBRANCH   1   7
BRANCH   4  11
ATOM     11  O   UNL     1      10.200   2.259  21.553  0.00  0.00    -0.507 OA
ATOM     12  H   UNL     1       9.735   2.201  20.701  0.00  0.00    +0.292 HD
ENDBRANCH   4  11
TORSDOF 3
ENDMDL
MODEL 2
REMARK VINA RESULT:      -4.7      0.056      1.534
REMARK  Name = 
REMARK  3 active torsions:
REMARK  status: ('A' for Active; 'I' for Inactive)
REMARK    1  A    between atoms: O_1  and  C_2
REMARK    2  A    between atoms: C_2  and  C_4
REMARK    3  A    between atoms: C_7  and  O_8
REMARK                            x       y       z     vdW  Elec       q    Type
REMARK                         _______ _______ _______ _____ _____    ______ ____
ROOT
ATOM      1  C   UNL     1       9.609  -1.310  23.574  0.00  0.00    +0.059 A 
ATOM      2  C   UNL     1      10.107  -0.183  24.243  0.00  0.00    +0.018 A 
ATOM      3  C   UNL     1      10.296   1.010  23.543  0.00  0.00    +0.046 A 
ATOM      4  C   UNL     1      10.005   1.068  22.183  0.00  0.00    +0.117 A 
ATOM      5  C   UNL     1       9.522  -0.046  21.505  0.00  0.00    +0.046 A 
ATOM      6  C   UNL     1       9.326  -1.240  22.204  0.00  0.00    +0.018 A 
ENDROOT
BRANCH   1   7
ATOM      7  C   UNL     1       9.411  -2.607  24.265  0.00  0.00    +0.337 C 
ATOM      8  O   UNL     1      10.149  -3.562  24.104  0.00  0.00    -0.245 OA
BRANCH   7   9
ATOM      9  O   UNL     1       8.311  -2.643  25.046  0.00  0.00    -0.477 OA
ATOM     10  H   UNL     1       7.469  -2.742  24.566  0.00  0.00    +0.295 HD
ENDBRANCH   7   9
ENDBRANCH   1   7
BRANCH   4  11
ATOM     11  O   UNL     1      10.226   2.250  21.541  0.00  0.00    -0.507 OA
ATOM     12  H   UNL     1      11.165   2.485  21.634  0.00  0.00    +0.292 HD
ENDBRANCH   4  11
TORSDOF 3
ENDMDL
MODEL 3
REMARK VINA RESULT:      -4.7      1.359      2.158
REMARK  Name = 
REMARK  3 active torsions:
REMARK  status: ('A' for Active; 'I' for Inactive)
REMARK    1  A    between atoms: O_1  and  C_2
REMARK    2  A    between atoms: C_2  and  C_4
REMARK    3  A    between atoms: C_7  and  O_8
REMARK                            x       y       z     vdW  Elec       q    Type
REMARK                         _______ _______ _______ _____ _____    ______ ____
ROOT
ATOM      1  C   UNL     1       9.920  -0.489  23.033  0.00  0.00    +0.059 A 
ATOM      2  C   UNL     1      10.459   0.129  24.170  0.00  0.00    +0.018 A 
ATOM      3  C   UNL     1      10.704   1.504  24.160  0.00  0.00    +0.046 A 
ATOM      4  C   UNL     1      10.429   2.248  23.016  0.00  0.00    +0.117 A 
ATOM      5  C   UNL     1       9.906   1.644  21.877  0.00  0.00    +0.046 A 
ATOM      6  C   UNL     1       9.653   0.270  21.885  0.00  0.00    +0.018 A 
ENDROOT
BRANCH   1   7
ATOM      7  C   UNL     1       9.662  -1.948  22.983  0.00  0.00    +0.337 C 
ATOM      8  O   UNL     1      10.290  -2.755  23.644  0.00  0.00    -0.245 OA
BRANCH   7   9
ATOM      9  O   UNL     1       8.700  -2.298  22.102  0.00  0.00    -0.477 OA
ATOM     10  H   UNL     1       8.357  -1.567  21.557  0.00  0.00    +0.295 HD
ENDBRANCH   7   9
ENDBRANCH   1   7
BRANCH   4  11
ATOM     11  O   UNL     1      10.705   3.581  23.049  0.00  0.00    -0.507 OA
ATOM     12  H   UNL     1      10.384   3.989  22.227  0.00  0.00    +0.292 HD
ENDBRANCH   4  11
TORSDOF 3
ENDMDL
MODEL 4
REMARK VINA RESULT:      -4.6      2.097      4.423
REMARK  Name = 
REMARK  3 active torsions:
REMARK  status: ('A' for Active; 'I' for Inactive)
REMARK    1  A    between atoms: O_1  and  C_2
REMARK    2  A    between atoms: C_2  and  C_4
REMARK    3  A    between atoms: C_7  and  O_8
REMARK                            x       y       z     vdW  Elec       q    Type
REMARK                         _______ _______ _______ _____ _____    ______ ____
ROOT
ATOM      1  C   UNL     1       9.935   2.083  23.134  0.00  0.00    +0.059 A 
ATOM      2  C   UNL     1       9.360   1.797  21.888  0.00  0.00    +0.018 A 
ATOM      3  C   UNL     1       9.359   0.484  21.411  0.00  0.00    +0.046 A 
ATOM      4  C   UNL     1       9.945  -0.527  22.167  0.00  0.00    +0.117 A 
ATOM      5  C   UNL     1      10.530  -0.255  23.399  0.00  0.00    +0.046 A 
ATOM      6  C   UNL     1      10.526   1.056  23.882  0.00  0.00    +0.018 A 
ENDROOT
BRANCH   1   7
ATOM      7  C   UNL     1       9.982   3.462  23.677  0.00  0.00    +0.337 C 
ATOM      8  O   UNL     1       9.165   3.887  24.475  0.00  0.00    -0.245 OA
BRANCH   7   9
ATOM      9  O   UNL     1      10.982   4.211  23.168  0.00  0.00    -0.477 OA
ATOM     10  H   UNL     1      11.789   3.716  22.936  0.00  0.00    +0.295 HD
ENDBRANCH   7   9
ENDBRANCH   1   7
BRANCH   4  11
ATOM     11  O   UNL     1       9.937  -1.787  21.647  0.00  0.00    -0.507 OA
ATOM     12  H   UNL     1       9.771  -1.731  20.691  0.00  0.00    +0.292 HD
ENDBRANCH   4  11
TORSDOF 3
ENDMDL
MODEL 5
REMARK VINA RESULT:      -4.5      0.972      4.152
REMARK  Name = 
REMARK  3 active torsions:
REMARK  status: ('A' for Active; 'I' for Inactive)
REMARK    1  A    between atoms: O_1  and  C_2
REMARK    2  A    between atoms: C_2  and  C_4
REMARK    3  A    between atoms: C_7  and  O_8
REMARK                            x       y       z     vdW  Elec       q    Type
REMARK                         _______ _______ _______ _____ _____    ______ ____
ROOT
ATOM      1  C   UNL     1       9.967   0.711  22.880  0.00  0.00    +0.059 A 
ATOM      2  C   UNL     1       9.955  -0.301  21.910  0.00  0.00    +0.018 A 
ATOM      3  C   UNL     1       9.916  -1.639  22.307  0.00  0.00    +0.046 A 
ATOM      4  C   UNL     1       9.908  -1.959  23.662  0.00  0.00    +0.117 A 
ATOM      5  C   UNL     1       9.932  -0.965  24.634  0.00  0.00    +0.046 A 
ATOM      6  C   UNL     1       9.965   0.375  24.240  0.00  0.00    +0.018 A 
ENDROOT
BRANCH   1   7
ATOM      7  C   UNL     1      10.030   2.146  22.513  0.00  0.00    +0.337 C 
ATOM      8  O   UNL     1      10.740   2.948  23.094  0.00  0.00    -0.245 OA
BRANCH   7   9
ATOM      9  O   UNL     1       9.193   2.487  21.510  0.00  0.00    -0.477 OA
ATOM     10  H   UNL     1       8.380   1.953  21.455  0.00  0.00    +0.295 HD
ENDBRANCH   7   9
ENDBRANCH   1   7
BRANCH   4  11
ATOM     11  O   UNL     1       9.891  -3.280  23.998  0.00  0.00    -0.507 OA
ATOM     12  H   UNL     1       8.981  -3.612  23.919  0.00  0.00    +0.292 HD
ENDBRANCH   4  11
TORSDOF 3
ENDMDL
MODEL 6
REMARK VINA RESULT:      -4.3      2.196      4.438
REMARK  Name = 
REMARK  3 active torsions:
REMARK  status: ('A' for Active; 'I' for Inactive)
REMARK    1  A    between atoms: O_1  and  C_2
REMARK    2  A    between atoms: C_2  and  C_4
REMARK    3  A    between atoms: C_7  and  O_8
REMARK                            x       y       z     vdW  Elec       q    Type
REMARK                         _______ _______ _______ _____ _____    ______ ____
ROOT
ATOM      1  C   UNL     1       9.815   2.085  23.373  0.00  0.00    +0.059 A 
ATOM      2  C   UNL     1      10.430   1.027  24.056  0.00  0.00    +0.018 A 
ATOM      3  C   UNL     1      10.534  -0.223  23.444  0.00  0.00    +0.046 A 
ATOM      4  C   UNL     1      10.010  -0.416  22.169  0.00  0.00    +0.117 A 
ATOM      5  C   UNL     1       9.386   0.622  21.486  0.00  0.00    +0.046 A 
ATOM      6  C   UNL     1       9.286   1.877  22.092  0.00  0.00    +0.018 A 
ENDROOT
BRANCH   1   7
ATOM      7  C   UNL     1       9.658   3.427  23.985  0.00  0.00    +0.337 C 
ATOM      8  O   UNL     1      10.357   4.378  23.683  0.00  0.00    -0.245 OA
BRANCH   7   9
ATOM      9  O   UNL     1       8.705   3.480  24.939  0.00  0.00    -0.477 OA
ATOM     10  H   UNL     1       8.604   4.348  25.371  0.00  0.00    +0.295 HD
ENDBRANCH   7   9
ENDBRANCH   1   7
BRANCH   4  11
ATOM     11  O   UNL     1      10.118  -1.661  21.625  0.00  0.00    -0.507 OA
ATOM     12  H   UNL     1      10.741  -2.183  22.158  0.00  0.00    +0.292 HD
ENDBRANCH   4  11
TORSDOF 3
ENDMDL
MODEL 7
REMARK VINA RESULT:      -4.3      5.286      6.311
REMARK  Name = 
REMARK  3 active torsions:
REMARK  status: ('A' for Active; 'I' for Inactive)
REMARK    1  A    between atoms: O_1  and  C_2
REMARK    2  A    between atoms: C_2  and  C_4
REMARK    3  A    between atoms: C_7  and  O_8
REMARK                            x       y       z     vdW  Elec       q    Type
REMARK                         _______ _______ _______ _____ _____    ______ ____
ROOT
ATOM      1  C   UNL     1       7.306  -5.189  25.283  0.00  0.00    +0.059 A 
ATOM      2  C   UNL     1       7.911  -5.109  24.021  0.00  0.00    +0.018 A 
ATOM      3  C   UNL     1       7.161  -5.387  22.877  0.00  0.00    +0.046 A 
ATOM      4  C   UNL     1       5.826  -5.760  22.997  0.00  0.00    +0.117 A 
ATOM      5  C   UNL     1       5.217  -5.855  24.244  0.00  0.00    +0.046 A 
ATOM      6  C   UNL     1       5.962  -5.570  25.392  0.00  0.00    +0.018 A 
ENDROOT
BRANCH   1   7
ATOM      7  C   UNL     1       8.061  -4.924  26.532  0.00  0.00    +0.337 C 
ATOM      8  O   UNL     1       8.792  -3.960  26.672  0.00  0.00    -0.245 OA
BRANCH   7   9
ATOM      9  O   UNL     1       7.899  -5.877  27.475  0.00  0.00    -0.477 OA
ATOM     10  H   UNL     1       7.037  -5.864  27.928  0.00  0.00    +0.295 HD
ENDBRANCH   7   9
ENDBRANCH   1   7
BRANCH   4  11
ATOM     11  O   UNL     1       5.144  -6.042  21.851  0.00  0.00    -0.507 OA
ATOM     12  H   UNL     1       4.241  -6.318  22.083  0.00  0.00    +0.292 HD
ENDBRANCH   4  11
TORSDOF 3
ENDMDL
MODEL 8
REMARK VINA RESULT:      -4.3      1.483      4.337
REMARK  Name = 
REMARK  3 active torsions:
REMARK  status: ('A' for Active; 'I' for Inactive)
REMARK    1  A    between atoms: O_1  and  C_2
REMARK    2  A    between atoms: C_2  and  C_4
REMARK    3  A    between atoms: C_7  and  O_8
REMARK                            x       y       z     vdW  Elec       q    Type
REMARK                         _______ _______ _______ _____ _____    ______ ____
ROOT
ATOM      1  C   UNL     1       8.816   0.233  22.489  0.00  0.00    +0.059 A 
ATOM      2  C   UNL     1       8.063  -0.363  23.510  0.00  0.00    +0.018 A 
ATOM      3  C   UNL     1       8.481  -1.578  24.057  0.00  0.00    +0.046 A 
ATOM      4  C   UNL     1       9.629  -2.198  23.573  0.00  0.00    +0.117 A 
ATOM      5  C   UNL     1      10.378  -1.623  22.551  0.00  0.00    +0.046 A 
ATOM      6  C   UNL     1       9.967  -0.403  22.006  0.00  0.00    +0.018 A 
ENDROOT
BRANCH   1   7
ATOM      7  C   UNL     1       8.406   1.511  21.858  0.00  0.00    +0.337 C 
ATOM      8  O   UNL     1       7.244   1.866  21.775  0.00  0.00    -0.245 OA
BRANCH   7   9
ATOM      9  O   UNL     1       9.436   2.216  21.344  0.00  0.00    -0.477 OA
ATOM     10  H   UNL     1      10.319   1.845  21.524  0.00  0.00    +0.295 HD
ENDBRANCH   7   9
ENDBRANCH   1   7
BRANCH   4  11
ATOM     11  O   UNL     1       9.982  -3.393  24.125  0.00  0.00    -0.507 OA
ATOM     12  H   UNL     1       9.258  -3.699  24.698  0.00  0.00    +0.292 HD
ENDBRANCH   4  11
TORSDOF 3
ENDMDL
MODEL 9
REMARK VINA RESULT:      -4.3      5.395      6.734
REMARK  Name = 
REMARK  3 active torsions:
REMARK  status: ('A' for Active; 'I' for Inactive)
REMARK    1  A    between atoms: O_1  and  C_2
REMARK    2  A    between atoms: C_2  and  C_4
REMARK    3  A    between atoms: C_7  and  O_8
REMARK                            x       y       z     vdW  Elec       q    Type
REMARK                         _______ _______ _______ _____ _____    ______ ____
ROOT
ATOM      1  C   UNL     1       6.244  -5.185  23.656  0.00  0.00    +0.059 A 
ATOM      2  C   UNL     1       5.499  -5.559  24.782  0.00  0.00    +0.018 A 
ATOM      3  C   UNL     1       6.134  -5.688  26.020  0.00  0.00    +0.046 A 
ATOM      4  C   UNL     1       7.503  -5.461  26.122  0.00  0.00    +0.117 A 
ATOM      5  C   UNL     1       8.256  -5.100  25.009  0.00  0.00    +0.046 A 
ATOM      6  C   UNL     1       7.623  -4.965  23.771  0.00  0.00    +0.018 A 
ENDROOT
BRANCH   1   7
ATOM      7  C   UNL     1       5.625  -5.056  22.315  0.00  0.00    +0.337 C 
ATOM      8  O   UNL     1       5.191  -4.002  21.884  0.00  0.00    -0.245 OA
BRANCH   7   9
ATOM      9  O   UNL     1       5.544  -6.223  21.640  0.00  0.00    -0.477 OA
ATOM     10  H   UNL     1       6.401  -6.624  21.410  0.00  0.00    +0.295 HD
ENDBRANCH   7   9
ENDBRANCH   1   7
BRANCH   4  11
ATOM     11  O   UNL     1       8.079  -5.619  27.347  0.00  0.00    -0.507 OA
ATOM     12  H   UNL     1       8.269  -4.742  27.720  0.00  0.00    +0.292 HD
ENDBRANCH   4  11
TORSDOF 3
ENDMDL
