MODEL 1
REMARK VINA RESULT:      -6.4      0.000      0.000
REMARK  Name = 
REMARK  11 active torsions:
REMARK  status: ('A' for Active; 'I' for Inactive)
REMARK    1  A    between atoms: O_1  and  C_2
REMARK    2  A    between atoms: C_2  and  C_3
REMARK    3  A    between atoms: C_6  and  O_8
REMARK    4  A    between atoms: O_8  and  C_9
REMARK    5  A    between atoms: C_11  and  O_13
REMARK    6  A    between atoms: C_14  and  O_16
REMARK    7  A    between atoms: C_17  and  O_19
REMARK    8  A    between atoms: C_21  and  C_23
REMARK    9  A    between atoms: C_23  and  O_24
REMARK   10  A    between atoms: C_28  and  O_30
REMARK   11  A    between atoms: C_31  and  O_33
REMARK                            x       y       z     vdW  Elec       q    Type
REMARK                         _______ _______ _______ _____ _____    ______ ____
ROOT
ATOM      1  O   UNL     1       8.328  -1.736  23.938  0.00  0.00    -0.340 OA
ENDROOT
BRANCH   1   7
ATOM      2  C   UNL     1       8.250  -5.024  24.170  0.00  0.00    +0.178 C 
ATOM      3  C   UNL     1       7.486  -5.165  25.500  0.00  0.00    +0.177 C 
ATOM      4  C   UNL     1       7.001  -3.828  26.062  0.00  0.00    +0.184 C 
ATOM      5  C   UNL     1       8.122  -2.813  26.103  0.00  0.00    +0.252 C 
ATOM      6  F   UNL     1       8.972  -3.149  27.126  0.00  0.00    -0.237 F 
ATOM      7  C   UNL     1       8.916  -2.734  24.795  0.00  0.00    +0.288 C 
ATOM      8  O   UNL     1       9.207  -3.965  24.149  0.00  0.00    -0.340 OA
BRANCH   3   9
ATOM      9  O   UNL     1       8.371  -5.816  26.432  0.00  0.00    -0.386 OA
ATOM     10  H   UNL     1       9.246  -5.928  26.027  0.00  0.00    +0.210 HD
ENDBRANCH   3   9
BRANCH   4  11
ATOM     11  O   UNL     1       5.854  -3.328  25.380  0.00  0.00    -0.386 OA
ATOM     12  H   UNL     1       6.145  -3.000  24.496  0.00  0.00    +0.210 HD
ENDBRANCH   4  11
BRANCH   2  13
ATOM     13  C   UNL     1       7.355  -4.995  22.927  0.00  0.00    +0.190 C 
BRANCH  13  14
ATOM     14  O   UNL     1       7.543  -3.822  22.146  0.00  0.00    -0.392 OA
ATOM     15  H   UNL     1       8.184  -3.270  22.635  0.00  0.00    +0.210 HD
ENDBRANCH  13  14
ENDBRANCH   2  13
ENDBRANCH   1   7
BRANCH   1  16
ATOM     16  C   UNL     1       8.819  -0.394  24.124  0.00  0.00    +0.183 C 
ATOM     17  C   UNL     1       7.949   0.724  23.477  0.00  0.00    +0.178 C 
ATOM     18  O   UNL     1       7.931   0.637  22.042  0.00  0.00    -0.341 OA
ATOM     19  C   UNL     1       9.222   0.728  21.447  0.00  0.00    +0.279 C 
ATOM     20  C   UNL     1      10.151  -0.393  21.933  0.00  0.00    +0.201 C 
ATOM     21  C   UNL     1      10.230  -0.356  23.474  0.00  0.00    +0.179 C 
BRANCH  19  22
ATOM     22  O   UNL     1       9.813   1.994  21.733  0.00  0.00    -0.365 OA
ATOM     23  H   UNL     1       9.818   2.074  22.704  0.00  0.00    +0.213 HD
ENDBRANCH  19  22
BRANCH  20  24
ATOM     24  O   UNL     1       9.705  -1.663  21.452  0.00  0.00    -0.384 OA
ATOM     25  H   UNL     1       8.799  -1.534  21.106  0.00  0.00    +0.210 HD
ENDBRANCH  20  24
BRANCH  21  26
ATOM     26  O   UNL     1      10.952   0.804  23.922  0.00  0.00    -0.386 OA
ATOM     27  H   UNL     1      10.501   1.596  23.563  0.00  0.00    +0.210 HD
ENDBRANCH  21  26
BRANCH  17  28
ATOM     28  C   UNL     1       6.483   0.822  23.914  0.00  0.00    +0.190 C 
BRANCH  28  29
ATOM     29  O   UNL     1       5.871  -0.439  24.130  0.00  0.00    -0.392 OA
ATOM     30  H   UNL     1       5.276  -0.629  23.388  0.00  0.00    +0.210 HD
ENDBRANCH  28  29
ENDBRANCH  17  28
ENDBRANCH   1  16
TORSDOF 11
ENDMDL
MODEL 2
REMARK VINA RESULT:      -6.0      1.979      5.708
REMARK  Name = 
REMARK  11 active torsions:
REMARK  status: ('A' for Active; 'I' for Inactive)
REMARK    1  A    between atoms: O_1  and  C_2
REMARK    2  A    between atoms: C_2  and  C_3
REMARK    3  A    between atoms: C_6  and  O_8
REMARK    4  A    between atoms: O_8  and  C_9
REMARK    5  A    between atoms: C_11  and  O_13
REMARK    6  A    between atoms: C_14  and  O_16
REMARK    7  A    between atoms: C_17  and  O_19
REMARK    8  A    between atoms: C_21  and  C_23
REMARK    9  A    between atoms: C_23  and  O_24
REMARK   10  A    between atoms: C_28  and  O_30
REMARK   11  A    between atoms: C_31  and  O_33
REMARK                            x       y       z     vdW  Elec       q    Type
REMARK                         _______ _______ _______ _____ _____    ______ ____
ROOT
ATOM      1  O   UNL     1       8.096  -2.352  23.897  0.00  0.00    -0.340 OA
ENDROOT
BRANCH   1   7
ATOM      2  C   UNL     1       9.175   0.677  24.627  0.00  0.00    +0.178 C 
ATOM      3  C   UNL     1       8.850   1.388  23.300  0.00  0.00    +0.177 C 
ATOM      4  C   UNL     1       8.100   0.498  22.307  0.00  0.00    +0.184 C 
ATOM      5  C   UNL     1       8.794  -0.835  22.135  0.00  0.00    +0.252 C 
ATOM      6  F   UNL     1       9.929  -0.638  21.390  0.00  0.00    -0.237 F 
ATOM      7  C   UNL     1       9.173  -1.497  23.464  0.00  0.00    +0.288 C 
ATOM      8  O   UNL     1       9.690  -0.646  24.477  0.00  0.00    -0.340 OA
BRANCH   3   9
ATOM      9  O   UNL     1      10.100   1.833  22.739  0.00  0.00    -0.386 OA
ATOM     10  H   UNL     1      10.273   2.747  23.014  0.00  0.00    +0.210 HD
ENDBRANCH   3   9
BRANCH   4  11
ATOM     11  O   UNL     1       6.723   0.343  22.638  0.00  0.00    -0.386 OA
ATOM     12  H   UNL     1       6.510   0.983  23.359  0.00  0.00    +0.210 HD
ENDBRANCH   4  11
BRANCH   2  13
ATOM     13  C   UNL     1       8.047   0.725  25.663  0.00  0.00    +0.190 C 
BRANCH  13  14
ATOM     14  O   UNL     1       7.052  -0.264  25.432  0.00  0.00    -0.392 OA
ATOM     15  H   UNL     1       6.365  -0.122  26.111  0.00  0.00    +0.210 HD
ENDBRANCH  13  14
ENDBRANCH   2  13
ENDBRANCH   1   7
BRANCH   1  16
ATOM     16  C   UNL     1       8.395  -3.761  23.916  0.00  0.00    +0.183 C 
ATOM     17  C   UNL     1       7.186  -4.690  24.230  0.00  0.00    +0.178 C 
ATOM     18  O   UNL     1       6.685  -4.500  25.564  0.00  0.00    -0.341 OA
ATOM     19  C   UNL     1       7.657  -4.737  26.578  0.00  0.00    +0.279 C 
ATOM     20  C   UNL     1       8.866  -3.803  26.437  0.00  0.00    +0.201 C 
ATOM     21  C   UNL     1       9.467  -3.961  25.023  0.00  0.00    +0.179 C 
BRANCH  19  22
ATOM     22  O   UNL     1       8.095  -6.093  26.539  0.00  0.00    -0.365 OA
ATOM     23  H   UNL     1       7.345  -6.607  26.186  0.00  0.00    +0.213 HD
ENDBRANCH  19  22
BRANCH  20  24
ATOM     24  O   UNL     1       8.495  -2.450  26.710  0.00  0.00    -0.384 OA
ATOM     25  H   UNL     1       9.175  -1.879  26.298  0.00  0.00    +0.210 HD
ENDBRANCH  20  24
BRANCH  21  26
ATOM     26  O   UNL     1      10.100  -5.243  24.877  0.00  0.00    -0.386 OA
ATOM     27  H   UNL     1       9.945  -5.751  25.700  0.00  0.00    +0.210 HD
ENDBRANCH  21  26
BRANCH  17  28
ATOM     28  C   UNL     1       5.968  -4.602  23.304  0.00  0.00    +0.190 C 
BRANCH  28  29
ATOM     29  O   UNL     1       6.197  -3.828  22.138  0.00  0.00    -0.392 OA
ATOM     30  H   UNL     1       6.998  -3.297  22.267  0.00  0.00    +0.210 HD
ENDBRANCH  28  29
ENDBRANCH  17  28
ENDBRANCH   1  16
TORSDOF 11
ENDMDL
MODEL 3
REMARK VINA RESULT:      -5.9      2.336      3.699
REMARK  Name = 
REMARK  11 active torsions:
REMARK  status: ('A' for Active; 'I' for Inactive)
REMARK    1  A    between atoms: O_1  and  C_2
REMARK    2  A    between atoms: C_2  and  C_3
REMARK    3  A    between atoms: C_6  and  O_8
REMARK    4  A    between atoms: O_8  and  C_9
REMARK    5  A    between atoms: C_11  and  O_13
REMARK    6  A    between atoms: C_14  and  O_16
REMARK    7  A    between atoms: C_17  and  O_19
REMARK    8  A    between atoms: C_21  and  C_23
REMARK    9  A    between atoms: C_23  and  O_24
REMARK   10  A    between atoms: C_28  and  O_30
REMARK   11  A    between atoms: C_31  and  O_33
REMARK                            x       y       z     vdW  Elec       q    Type
REMARK                         _______ _______ _______ _____ _____    ______ ____
ROOT
ATOM      1  O   UNL     1       7.138  -2.479  23.122  0.00  0.00    -0.340 OA
ENDROOT
BRANCH   1   7
ATOM      2  C   UNL     1       4.345  -4.231  23.143  0.00  0.00    +0.178 C 
ATOM      3  C   UNL     1       4.937  -5.648  23.262  0.00  0.00    +0.177 C 
ATOM      4  C   UNL     1       6.456  -5.655  23.437  0.00  0.00    +0.184 C 
ATOM      5  C   UNL     1       7.132  -4.794  22.393  0.00  0.00    +0.252 C 
ATOM      6  F   UNL     1       7.079  -5.452  21.190  0.00  0.00    -0.237 F 
ATOM      7  C   UNL     1       6.487  -3.412  22.238  0.00  0.00    +0.288 C 
ATOM      8  O   UNL     1       5.068  -3.361  22.272  0.00  0.00    -0.340 OA
BRANCH   3   9
ATOM      9  O   UNL     1       4.561  -6.368  22.072  0.00  0.00    -0.386 OA
ATOM     10  H   UNL     1       5.048  -7.205  22.029  0.00  0.00    +0.210 HD
ENDBRANCH   3   9
BRANCH   4  11
ATOM     11  O   UNL     1       6.859  -5.304  24.759  0.00  0.00    -0.386 OA
ATOM     12  H   UNL     1       6.189  -5.666  25.387  0.00  0.00    +0.210 HD
ENDBRANCH   4  11
BRANCH   2  13
ATOM     13  C   UNL     1       4.045  -3.557  24.485  0.00  0.00    +0.190 C 
BRANCH  13  14
ATOM     14  O   UNL     1       5.179  -2.895  25.029  0.00  0.00    -0.392 OA
ATOM     15  H   UNL     1       4.865  -2.018  25.325  0.00  0.00    +0.210 HD
ENDBRANCH  13  14
ENDBRANCH   2  13
ENDBRANCH   1   7
BRANCH   1  16
ATOM     16  C   UNL     1       8.577  -2.462  23.053  0.00  0.00    +0.183 C 
ATOM     17  C   UNL     1       9.298  -2.083  24.380  0.00  0.00    +0.178 C 
ATOM     18  O   UNL     1       9.029  -0.728  24.778  0.00  0.00    -0.341 OA
ATOM     19  C   UNL     1       9.419   0.241  23.810  0.00  0.00    +0.279 C 
ATOM     20  C   UNL     1       8.692   0.034  22.475  0.00  0.00    +0.201 C 
ATOM     21  C   UNL     1       8.946  -1.405  21.975  0.00  0.00    +0.179 C 
BRANCH  19  22
ATOM     22  O   UNL     1      10.829   0.192  23.598  0.00  0.00    -0.365 OA
ATOM     23  H   UNL     1      11.231   0.140  24.484  0.00  0.00    +0.213 HD
ENDBRANCH  19  22
BRANCH  20  24
ATOM     24  O   UNL     1       7.297   0.313  22.610  0.00  0.00    -0.384 OA
ATOM     25  H   UNL     1       7.101   0.326  23.569  0.00  0.00    +0.210 HD
ENDBRANCH  20  24
BRANCH  21  26
ATOM     26  O   UNL     1      10.313  -1.571  21.565  0.00  0.00    -0.386 OA
ATOM     27  H   UNL     1      10.603  -2.467  21.836  0.00  0.00    +0.210 HD
ENDBRANCH  21  26
BRANCH  17  28
ATOM     28  C   UNL     1       9.016  -2.951  25.612  0.00  0.00    +0.190 C 
BRANCH  28  29
ATOM     29  O   UNL     1       7.694  -2.817  26.108  0.00  0.00    -0.392 OA
ATOM     30  H   UNL     1       7.074  -2.861  25.363  0.00  0.00    +0.210 HD
ENDBRANCH  28  29
ENDBRANCH  17  28
ENDBRANCH   1  16
TORSDOF 11
ENDMDL
MODEL 4
REMARK VINA RESULT:      -5.9      1.646      2.075
REMARK  Name = 
REMARK  11 active torsions:
REMARK  status: ('A' for Active; 'I' for Inactive)
REMARK    1  A    between atoms: O_1  and  C_2
REMARK    2  A    between atoms: C_2  and  C_3
REMARK    3  A    between atoms: C_6  and  O_8
REMARK    4  A    between atoms: O_8  and  C_9
REMARK    5  A    between atoms: C_11  and  O_13
REMARK    6  A    between atoms: C_14  and  O_16
REMARK    7  A    between atoms: C_17  and  O_19
REMARK    8  A    between atoms: C_21  and  C_23
REMARK    9  A    between atoms: C_23  and  O_24
REMARK   10  A    between atoms: C_28  and  O_30
REMARK   11  A    between atoms: C_31  and  O_33
REMARK                            x       y       z     vdW  Elec       q    Type
REMARK                         _______ _______ _______ _____ _____    ______ ____
ROOT
ATOM      1  O   UNL     1       8.231  -0.726  22.997  0.00  0.00    -0.340 OA
ENDROOT
BRANCH   1   7
ATOM      2  C   UNL     1       7.200  -3.817  22.495  0.00  0.00    +0.178 C 
ATOM      3  C   UNL     1       7.517  -4.417  23.878  0.00  0.00    +0.177 C 
ATOM      4  C   UNL     1       8.024  -3.382  24.882  0.00  0.00    +0.184 C 
ATOM      5  C   UNL     1       9.149  -2.557  24.299  0.00  0.00    +0.252 C 
ATOM      6  F   UNL     1      10.277  -3.338  24.250  0.00  0.00    -0.237 F 
ATOM      7  C   UNL     1       8.845  -2.026  22.893  0.00  0.00    +0.288 C 
ATOM      8  O   UNL     1       8.191  -2.916  22.002  0.00  0.00    -0.340 OA
BRANCH   3   9
ATOM      9  O   UNL     1       8.499  -5.452  23.677  0.00  0.00    -0.386 OA
ATOM     10  H   UNL     1       8.506  -6.048  24.442  0.00  0.00    +0.210 HD
ENDBRANCH   3   9
BRANCH   4  11
ATOM     11  O   UNL     1       6.979  -2.564  25.403  0.00  0.00    -0.386 OA
ATOM     12  H   UNL     1       7.394  -1.782  25.839  0.00  0.00    +0.210 HD
ENDBRANCH   4  11
BRANCH   2  13
ATOM     13  C   UNL     1       5.792  -3.226  22.370  0.00  0.00    +0.190 C 
BRANCH  13  14
ATOM     14  O   UNL     1       5.707  -1.906  22.891  0.00  0.00    -0.392 OA
ATOM     15  H   UNL     1       6.553  -1.739  23.349  0.00  0.00    +0.210 HD
ENDBRANCH  13  14
ENDBRANCH   2  13
ENDBRANCH   1   7
BRANCH   1  16
ATOM     16  C   UNL     1       8.829   0.166  23.957  0.00  0.00    +0.183 C 
ATOM     17  C   UNL     1       7.910   1.324  24.446  0.00  0.00    +0.178 C 
ATOM     18  O   UNL     1       7.582   2.242  23.388  0.00  0.00    -0.341 OA
ATOM     19  C   UNL     1       8.721   2.850  22.786  0.00  0.00    +0.279 C 
ATOM     20  C   UNL     1       9.664   1.807  22.171  0.00  0.00    +0.201 C 
ATOM     21  C   UNL     1      10.070   0.787  23.257  0.00  0.00    +0.179 C 
BRANCH  19  22
ATOM     22  O   UNL     1       9.433   3.630  23.744  0.00  0.00    -0.365 OA
ATOM     23  H   UNL     1      10.272   3.160  23.902  0.00  0.00    +0.213 HD
ENDBRANCH  19  22
BRANCH  20  24
ATOM     24  O   UNL     1       9.051   1.172  21.046  0.00  0.00    -0.384 OA
ATOM     25  H   UNL     1       8.839   1.878  20.402  0.00  0.00    +0.210 HD
ENDBRANCH  20  24
BRANCH  21  26
ATOM     26  O   UNL     1      10.937   1.392  24.229  0.00  0.00    -0.386 OA
ATOM     27  H   UNL     1      10.976   2.353  24.041  0.00  0.00    +0.210 HD
ENDBRANCH  21  26
BRANCH  17  28
ATOM     28  C   UNL     1       6.579   0.942  25.102  0.00  0.00    +0.190 C 
BRANCH  28  29
ATOM     29  O   UNL     1       5.593   0.515  24.177  0.00  0.00    -0.392 OA
ATOM     30  H   UNL     1       4.970  -0.073  24.632  0.00  0.00    +0.210 HD
ENDBRANCH  28  29
ENDBRANCH  17  28
ENDBRANCH   1  16
TORSDOF 11
ENDMDL
MODEL 5
REMARK VINA RESULT:      -5.9      2.059      5.737
REMARK  Name = 
REMARK  11 active torsions:
REMARK  status: ('A' for Active; 'I' for Inactive)
REMARK    1  A    between atoms: O_1  and  C_2
REMARK    2  A    between atoms: C_2  and  C_3
REMARK    3  A    between atoms: C_6  and  O_8
REMARK    4  A    between atoms: O_8  and  C_9
REMARK    5  A    between atoms: C_11  and  O_13
REMARK    6  A    between atoms: C_14  and  O_16
REMARK    7  A    between atoms: C_17  and  O_19
REMARK    8  A    between atoms: C_21  and  C_23
REMARK    9  A    between atoms: C_23  and  O_24
REMARK   10  A    between atoms: C_28  and  O_30
REMARK   11  A    between atoms: C_31  and  O_33
REMARK                            x       y       z     vdW  Elec       q    Type
REMARK                         _______ _______ _______ _____ _____    ______ ____
ROOT
ATOM      1  O   UNL     1       9.025  -2.468  24.527  0.00  0.00    -0.340 OA
ENDROOT
BRANCH   1   7
ATOM      2  C   UNL     1      10.565   0.180  23.308  0.00  0.00    +0.178 C 
ATOM      3  C   UNL     1       9.352   0.933  22.729  0.00  0.00    +0.177 C 
ATOM      4  C   UNL     1       8.017   0.260  23.045  0.00  0.00    +0.184 C 
ATOM      5  C   UNL     1       8.049  -1.212  22.694  0.00  0.00    +0.252 C 
ATOM      6  F   UNL     1       8.001  -1.331  21.327  0.00  0.00    -0.237 F 
ATOM      7  C   UNL     1       9.297  -1.932  23.217  0.00  0.00    +0.288 C 
ATOM      8  O   UNL     1      10.529  -1.233  23.113  0.00  0.00    -0.340 OA
BRANCH   3   9
ATOM      9  O   UNL     1       9.550   1.027  21.305  0.00  0.00    -0.386 OA
ATOM     10  H   UNL     1       8.914   1.655  20.928  0.00  0.00    +0.210 HD
ENDBRANCH   3   9
BRANCH   4  11
ATOM     11  O   UNL     1       7.595   0.477  24.388  0.00  0.00    -0.386 OA
ATOM     12  H   UNL     1       8.396   0.668  24.931  0.00  0.00    +0.210 HD
ENDBRANCH   4  11
BRANCH   2  13
ATOM     13  C   UNL     1      10.897   0.537  24.760  0.00  0.00    +0.190 C 
BRANCH  13  14
ATOM     14  O   UNL     1       9.929   0.045  25.677  0.00  0.00    -0.392 OA
ATOM     15  H   UNL     1      10.296   0.201  26.569  0.00  0.00    +0.210 HD
ENDBRANCH  13  14
ENDBRANCH   2  13
ENDBRANCH   1   7
BRANCH   1  16
ATOM     16  C   UNL     1       7.786  -3.193  24.654  0.00  0.00    +0.183 C 
ATOM     17  C   UNL     1       7.206  -3.264  26.097  0.00  0.00    +0.178 C 
ATOM     18  O   UNL     1       8.051  -4.013  26.987  0.00  0.00    -0.341 OA
ATOM     19  C   UNL     1       8.275  -5.356  26.569  0.00  0.00    +0.279 C 
ATOM     20  C   UNL     1       8.943  -5.418  25.189  0.00  0.00    +0.201 C 
ATOM     21  C   UNL     1       8.081  -4.640  24.171  0.00  0.00    +0.179 C 
BRANCH  19  22
ATOM     22  O   UNL     1       7.045  -6.077  26.536  0.00  0.00    -0.365 OA
ATOM     23  H   UNL     1       6.370  -5.441  26.236  0.00  0.00    +0.213 HD
ENDBRANCH  19  22
BRANCH  20  24
ATOM     24  O   UNL     1      10.279  -4.914  25.251  0.00  0.00    -0.384 OA
ATOM     25  H   UNL     1      10.846  -5.646  25.568  0.00  0.00    +0.210 HD
ENDBRANCH  20  24
BRANCH  21  26
ATOM     26  O   UNL     1       6.852  -5.335  23.905  0.00  0.00    -0.386 OA
ATOM     27  H   UNL     1       6.578  -5.123  22.989  0.00  0.00    +0.210 HD
ENDBRANCH  21  26
BRANCH  17  28
ATOM     28  C   UNL     1       6.911  -1.938  26.807  0.00  0.00    +0.190 C 
BRANCH  28  29
ATOM     29  O   UNL     1       8.066  -1.146  27.029  0.00  0.00    -0.392 OA
ATOM     30  H   UNL     1       8.176  -1.012  27.983  0.00  0.00    +0.210 HD
ENDBRANCH  28  29
ENDBRANCH  17  28
ENDBRANCH   1  16
TORSDOF 11
ENDMDL
MODEL 6
REMARK VINA RESULT:      -5.7      1.946      5.878
REMARK  Name = 
REMARK  11 active torsions:
REMARK  status: ('A' for Active; 'I' for Inactive)
REMARK    1  A    between atoms: O_1  and  C_2
REMARK    2  A    between atoms: C_2  and  C_3
REMARK    3  A    between atoms: C_6  and  O_8
REMARK    4  A    between atoms: O_8  and  C_9
REMARK    5  A    between atoms: C_11  and  O_13
REMARK    6  A    between atoms: C_14  and  O_16
REMARK    7  A    between atoms: C_17  and  O_19
REMARK    8  A    between atoms: C_21  and  C_23
REMARK    9  A    between atoms: C_23  and  O_24
REMARK   10  A    between atoms: C_28  and  O_30
REMARK   11  A    between atoms: C_31  and  O_33
REMARK                            x       y       z     vdW  Elec       q    Type
REMARK                         _______ _______ _______ _____ _____    ______ ____
ROOT
ATOM      1  O   UNL     1       8.215  -2.578  24.147  0.00  0.00    -0.340 OA
ENDROOT
BRANCH   1   7
ATOM      2  C   UNL     1       9.317   0.485  24.675  0.00  0.00    +0.178 C 
ATOM      3  C   UNL     1       8.915   1.132  23.336  0.00  0.00    +0.177 C 
ATOM      4  C   UNL     1       8.116   0.196  22.429  0.00  0.00    +0.184 C 
ATOM      5  C   UNL     1       8.806  -1.142  22.280  0.00  0.00    +0.252 C 
ATOM      6  F   UNL     1       9.898  -0.977  21.465  0.00  0.00    -0.237 F 
ATOM      7  C   UNL     1       9.262  -1.741  23.616  0.00  0.00    +0.288 C 
ATOM      8  O   UNL     1       9.829  -0.842  24.558  0.00  0.00    -0.340 OA
BRANCH   3   9
ATOM      9  O   UNL     1      10.129   1.555  22.687  0.00  0.00    -0.386 OA
ATOM     10  H   UNL     1       9.944   2.311  22.108  0.00  0.00    +0.210 HD
ENDBRANCH   3   9
BRANCH   4  11
ATOM     11  O   UNL     1       6.760   0.053  22.843  0.00  0.00    -0.386 OA
ATOM     12  H   UNL     1       6.313  -0.561  22.212  0.00  0.00    +0.210 HD
ENDBRANCH   4  11
BRANCH   2  13
ATOM     13  C   UNL     1       8.247   0.578  25.768  0.00  0.00    +0.190 C 
BRANCH  13  14
ATOM     14  O   UNL     1       8.571  -0.198  26.915  0.00  0.00    -0.392 OA
ATOM     15  H   UNL     1       9.025  -0.996  26.583  0.00  0.00    +0.210 HD
ENDBRANCH  13  14
ENDBRANCH   2  13
ENDBRANCH   1   7
BRANCH   1  16
ATOM     16  C   UNL     1       8.632  -3.886  24.584  0.00  0.00    +0.183 C 
ATOM     17  C   UNL     1       7.667  -5.048  24.206  0.00  0.00    +0.178 C 
ATOM     18  O   UNL     1       6.393  -4.933  24.864  0.00  0.00    -0.341 OA
ATOM     19  C   UNL     1       6.482  -4.922  26.285  0.00  0.00    +0.279 C 
ATOM     20  C   UNL     1       7.333  -3.750  26.792  0.00  0.00    +0.201 C 
ATOM     21  C   UNL     1       8.729  -3.813  26.133  0.00  0.00    +0.179 C 
BRANCH  19  22
ATOM     22  O   UNL     1       7.032  -6.150  26.758  0.00  0.00    -0.365 OA
ATOM     23  H   UNL     1       6.464  -6.430  27.499  0.00  0.00    +0.213 HD
ENDBRANCH  19  22
BRANCH  20  24
ATOM     24  O   UNL     1       6.680  -2.504  26.538  0.00  0.00    -0.384 OA
ATOM     25  H   UNL     1       7.363  -1.806  26.606  0.00  0.00    +0.210 HD
ENDBRANCH  20  24
BRANCH  21  26
ATOM     26  O   UNL     1       9.482  -4.928  26.637  0.00  0.00    -0.386 OA
ATOM     27  H   UNL     1      10.425  -4.663  26.673  0.00  0.00    +0.210 HD
ENDBRANCH  21  26
BRANCH  17  28
ATOM     28  C   UNL     1       7.359  -5.256  22.719  0.00  0.00    +0.190 C 
BRANCH  28  29
ATOM     29  O   UNL     1       6.828  -4.105  22.084  0.00  0.00    -0.392 OA
ATOM     30  H   UNL     1       7.216  -4.029  21.198  0.00  0.00    +0.210 HD
ENDBRANCH  28  29
ENDBRANCH  17  28
ENDBRANCH   1  16
TORSDOF 11
ENDMDL
MODEL 7
REMARK VINA RESULT:      -5.7      1.469      1.751
REMARK  Name = 
REMARK  11 active torsions:
REMARK  status: ('A' for Active; 'I' for Inactive)
REMARK    1  A    between atoms: O_1  and  C_2
REMARK    2  A    between atoms: C_2  and  C_3
REMARK    3  A    between atoms: C_6  and  O_8
REMARK    4  A    between atoms: O_8  and  C_9
REMARK    5  A    between atoms: C_11  and  O_13
REMARK    6  A    between atoms: C_14  and  O_16
REMARK    7  A    between atoms: C_17  and  O_19
REMARK    8  A    between atoms: C_21  and  C_23
REMARK    9  A    between atoms: C_23  and  O_24
REMARK   10  A    between atoms: C_28  and  O_30
REMARK   11  A    between atoms: C_31  and  O_33
REMARK                            x       y       z     vdW  Elec       q    Type
REMARK                         _______ _______ _______ _____ _____    ______ ____
ROOT
ATOM      1  O   UNL     1       8.330  -1.762  24.556  0.00  0.00    -0.340 OA
ENDROOT
BRANCH   1   7
ATOM      2  C   UNL     1       8.846  -4.354  26.527  0.00  0.00    +0.178 C 
ATOM      3  C   UNL     1       7.450  -5.002  26.463  0.00  0.00    +0.177 C 
ATOM      4  C   UNL     1       6.505  -4.303  25.485  0.00  0.00    +0.184 C 
ATOM      5  C   UNL     1       6.478  -2.810  25.723  0.00  0.00    +0.252 C 
ATOM      6  F   UNL     1       5.769  -2.568  26.873  0.00  0.00    -0.237 F 
ATOM      7  C   UNL     1       7.874  -2.191  25.854  0.00  0.00    +0.288 C 
ATOM      8  O   UNL     1       8.832  -2.929  26.599  0.00  0.00    -0.340 OA
BRANCH   3   9
ATOM      9  O   UNL     1       6.908  -4.978  27.798  0.00  0.00    -0.386 OA
ATOM     10  H   UNL     1       6.933  -4.072  28.143  0.00  0.00    +0.210 HD
ENDBRANCH   3   9
BRANCH   4  11
ATOM     11  O   UNL     1       6.788  -4.621  24.125  0.00  0.00    -0.386 OA
ATOM     12  H   UNL     1       7.378  -3.916  23.765  0.00  0.00    +0.210 HD
ENDBRANCH   4  11
BRANCH   2  13
ATOM     13  C   UNL     1       9.824  -4.852  25.457  0.00  0.00    +0.190 C 
BRANCH  13  14
ATOM     14  O   UNL     1       9.823  -4.033  24.295  0.00  0.00    -0.392 OA
ATOM     15  H   UNL     1       9.655  -3.122  24.604  0.00  0.00    +0.210 HD
ENDBRANCH  13  14
ENDBRANCH   2  13
ENDBRANCH   1   7
BRANCH   1  16
ATOM     16  C   UNL     1       8.813  -0.407  24.487  0.00  0.00    +0.183 C 
ATOM     17  C   UNL     1       7.963   0.554  23.605  0.00  0.00    +0.178 C 
ATOM     18  O   UNL     1       7.989   0.185  22.216  0.00  0.00    -0.341 OA
ATOM     19  C   UNL     1       9.298   0.165  21.654  0.00  0.00    +0.279 C 
ATOM     20  C   UNL     1      10.213  -0.830  22.380  0.00  0.00    +0.201 C 
ATOM     21  C   UNL     1      10.244  -0.487  23.885  0.00  0.00    +0.179 C 
BRANCH  19  22
ATOM     22  O   UNL     1       9.878   1.467  21.700  0.00  0.00    -0.365 OA
ATOM     23  H   UNL     1       9.396   1.950  22.397  0.00  0.00    +0.213 HD
ENDBRANCH  19  22
BRANCH  20  24
ATOM     24  O   UNL     1       9.784  -2.173  22.148  0.00  0.00    -0.384 OA
ATOM     25  H   UNL     1       8.810  -2.183  22.249  0.00  0.00    +0.210 HD
ENDBRANCH  20  24
BRANCH  21  26
ATOM     26  O   UNL     1      10.950   0.743  24.115  0.00  0.00    -0.386 OA
ATOM     27  H   UNL     1      11.899   0.584  23.932  0.00  0.00    +0.210 HD
ENDBRANCH  21  26
BRANCH  17  28
ATOM     28  C   UNL     1       6.484   0.727  23.970  0.00  0.00    +0.190 C 
BRANCH  28  29
ATOM     29  O   UNL     1       5.770   1.554  23.066  0.00  0.00    -0.392 OA
ATOM     30  H   UNL     1       5.703   1.099  22.212  0.00  0.00    +0.210 HD
ENDBRANCH  28  29
ENDBRANCH  17  28
ENDBRANCH   1  16
TORSDOF 11
ENDMDL
MODEL 8
REMARK VINA RESULT:      -5.7      1.769      5.927
REMARK  Name = 
REMARK  11 active torsions:
REMARK  status: ('A' for Active; 'I' for Inactive)
REMARK    1  A    between atoms: O_1  and  C_2
REMARK    2  A    between atoms: C_2  and  C_3
REMARK    3  A    between atoms: C_6  and  O_8
REMARK    4  A    between atoms: O_8  and  C_9
REMARK    5  A    between atoms: C_11  and  O_13
REMARK    6  A    between atoms: C_14  and  O_16
REMARK    7  A    between atoms: C_17  and  O_19
REMARK    8  A    between atoms: C_21  and  C_23
REMARK    9  A    between atoms: C_23  and  O_24
REMARK   10  A    between atoms: C_28  and  O_30
REMARK   11  A    between atoms: C_31  and  O_33
REMARK                            x       y       z     vdW  Elec       q    Type
REMARK                         _______ _______ _______ _____ _____    ______ ____
ROOT
ATOM      1  O   UNL     1       7.320  -3.038  25.100  0.00  0.00    -0.340 OA
ENDROOT
BRANCH   1   7
ATOM      2  C   UNL     1       8.144  -0.060  23.951  0.00  0.00    +0.178 C 
ATOM      3  C   UNL     1       8.894  -0.480  22.674  0.00  0.00    +0.177 C 
ATOM      4  C   UNL     1       8.844  -1.986  22.413  0.00  0.00    +0.184 C 
ATOM      5  C   UNL     1       9.243  -2.769  23.644  0.00  0.00    +0.252 C 
ATOM      6  F   UNL     1      10.601  -2.652  23.809  0.00  0.00    -0.237 F 
ATOM      7  C   UNL     1       8.540  -2.292  24.920  0.00  0.00    +0.288 C 
ATOM      8  O   UNL     1       8.399  -0.888  25.085  0.00  0.00    -0.340 OA
BRANCH   3   9
ATOM      9  O   UNL     1      10.257  -0.035  22.814  0.00  0.00    -0.386 OA
ATOM     10  H   UNL     1      10.477   0.575  22.093  0.00  0.00    +0.210 HD
ENDBRANCH   3   9
BRANCH   4  11
ATOM     11  O   UNL     1       7.587  -2.413  21.895  0.00  0.00    -0.386 OA
ATOM     12  H   UNL     1       7.585  -3.400  21.878  0.00  0.00    +0.210 HD
ENDBRANCH   4  11
BRANCH   2  13
ATOM     13  C   UNL     1       6.643   0.174  23.755  0.00  0.00    +0.190 C 
BRANCH  13  14
ATOM     14  O   UNL     1       5.900  -1.037  23.735  0.00  0.00    -0.392 OA
ATOM     15  H   UNL     1       6.348  -1.642  24.357  0.00  0.00    +0.210 HD
ENDBRANCH  13  14
ENDBRANCH   2  13
ENDBRANCH   1   7
BRANCH   1  16
ATOM     16  C   UNL     1       7.482  -4.463  25.243  0.00  0.00    +0.183 C 
ATOM     17  C   UNL     1       6.307  -5.321  24.688  0.00  0.00    +0.178 C 
ATOM     18  O   UNL     1       5.087  -5.111  25.420  0.00  0.00    -0.341 OA
ATOM     19  C   UNL     1       5.194  -5.412  26.808  0.00  0.00    +0.279 C 
ATOM     20  C   UNL     1       6.260  -4.550  27.496  0.00  0.00    +0.201 C 
ATOM     21  C   UNL     1       7.610  -4.733  26.768  0.00  0.00    +0.179 C 
BRANCH  19  22
ATOM     22  O   UNL     1       5.503  -6.792  26.994  0.00  0.00    -0.365 OA
ATOM     23  H   UNL     1       6.067  -6.835  27.788  0.00  0.00    +0.213 HD
ENDBRANCH  19  22
BRANCH  20  24
ATOM     24  O   UNL     1       5.856  -3.180  27.533  0.00  0.00    -0.384 OA
ATOM     25  H   UNL     1       6.561  -2.663  27.092  0.00  0.00    +0.210 HD
ENDBRANCH  20  24
BRANCH  21  26
ATOM     26  O   UNL     1       8.140  -6.049  26.996  0.00  0.00    -0.386 OA
ATOM     27  H   UNL     1       8.854  -5.974  27.663  0.00  0.00    +0.210 HD
ENDBRANCH  21  26
BRANCH  17  28
ATOM     28  C   UNL     1       5.948  -5.155  23.207  0.00  0.00    +0.190 C 
BRANCH  28  29
ATOM     29  O   UNL     1       5.417  -3.877  22.894  0.00  0.00    -0.392 OA
ATOM     30  H   UNL     1       5.301  -3.376  23.715  0.00  0.00    +0.210 HD
ENDBRANCH  28  29
ENDBRANCH  17  28
ENDBRANCH   1  16
TORSDOF 11
ENDMDL
MODEL 9
REMARK VINA RESULT:      -5.6      2.381      5.682
REMARK  Name = 
REMARK  11 active torsions:
REMARK  status: ('A' for Active; 'I' for Inactive)
REMARK    1  A    between atoms: O_1  and  C_2
REMARK    2  A    between atoms: C_2  and  C_3
REMARK    3  A    between atoms: C_6  and  O_8
REMARK    4  A    between atoms: O_8  and  C_9
REMARK    5  A    between atoms: C_11  and  O_13
REMARK    6  A    between atoms: C_14  and  O_16
REMARK    7  A    between atoms: C_17  and  O_19
REMARK    8  A    between atoms: C_21  and  C_23
REMARK    9  A    between atoms: C_23  and  O_24
REMARK   10  A    between atoms: C_28  and  O_30
REMARK   11  A    between atoms: C_31  and  O_33
REMARK                            x       y       z     vdW  Elec       q    Type
REMARK                         _______ _______ _______ _____ _____    ______ ____
ROOT
ATOM      1  O   UNL     1       7.250  -1.070  23.603  0.00  0.00    -0.340 OA
ENDROOT
BRANCH   1   7
ATOM      2  C   UNL     1      10.191   0.253  22.914  0.00  0.00    +0.178 C 
ATOM      3  C   UNL     1       9.815   1.746  22.967  0.00  0.00    +0.177 C 
ATOM      4  C   UNL     1       8.371   1.989  23.409  0.00  0.00    +0.184 C 
ATOM      5  C   UNL     1       7.404   1.141  22.613  0.00  0.00    +0.252 C 
ATOM      6  F   UNL     1       7.305   1.669  21.350  0.00  0.00    -0.237 F 
ATOM      7  C   UNL     1       7.829  -0.328  22.511  0.00  0.00    +0.288 C 
ATOM      8  O   UNL     1       9.210  -0.580  22.297  0.00  0.00    -0.340 OA
BRANCH   3   9
ATOM      9  O   UNL     1      10.041   2.288  21.651  0.00  0.00    -0.386 OA
ATOM     10  H   UNL     1      10.738   2.962  21.691  0.00  0.00    +0.210 HD
ENDBRANCH   3   9
BRANCH   4  11
ATOM     11  O   UNL     1       8.191   1.826  24.813  0.00  0.00    -0.386 OA
ATOM     12  H   UNL     1       9.052   1.534  25.198  0.00  0.00    +0.210 HD
ENDBRANCH   4  11
BRANCH   2  13
ATOM     13  C   UNL     1      10.659  -0.328  24.252  0.00  0.00    +0.190 C 
BRANCH  13  14
ATOM     14  O   UNL     1      10.864   0.673  25.240  0.00  0.00    -0.392 OA
ATOM     15  H   UNL     1      11.816   0.891  25.212  0.00  0.00    +0.210 HD
ENDBRANCH  13  14
ENDBRANCH   2  13
ENDBRANCH   1   7
BRANCH   1  16
ATOM     16  C   UNL     1       6.142  -1.921  23.254  0.00  0.00    +0.183 C 
ATOM     17  C   UNL     1       5.496  -2.688  24.445  0.00  0.00    +0.178 C 
ATOM     18  O   UNL     1       6.398  -3.642  25.031  0.00  0.00    -0.341 OA
ATOM     19  C   UNL     1       6.863  -4.628  24.114  0.00  0.00    +0.279 C 
ATOM     20  C   UNL     1       7.614  -3.997  22.934  0.00  0.00    +0.201 C 
ATOM     21  C   UNL     1       6.698  -2.963  22.244  0.00  0.00    +0.179 C 
BRANCH  19  22
ATOM     22  O   UNL     1       5.771  -5.405  23.624  0.00  0.00    -0.365 OA
ATOM     23  H   UNL     1       5.490  -5.969  24.367  0.00  0.00    +0.213 HD
ENDBRANCH  19  22
BRANCH  20  24
ATOM     24  O   UNL     1       8.843  -3.413  23.371  0.00  0.00    -0.384 OA
ATOM     25  H   UNL     1       9.468  -4.149  23.527  0.00  0.00    +0.210 HD
ENDBRANCH  20  24
BRANCH  21  26
ATOM     26  O   UNL     1       5.618  -3.614  21.556  0.00  0.00    -0.386 OA
ATOM     27  H   UNL     1       4.863  -2.990  21.522  0.00  0.00    +0.210 HD
ENDBRANCH  21  26
BRANCH  17  28
ATOM     28  C   UNL     1       4.946  -1.855  25.608  0.00  0.00    +0.190 C 
BRANCH  28  29
ATOM     29  O   UNL     1       4.957  -0.458  25.359  0.00  0.00    -0.392 OA
ATOM     30  H   UNL     1       5.310  -0.301  24.470  0.00  0.00    +0.210 HD
ENDBRANCH  28  29
ENDBRANCH  17  28
ENDBRANCH   1  16
TORSDOF 11
ENDMDL
