MODEL 1
REMARK VINA RESULT:      -4.5      0.000      0.000
REMARK  Name = 
REMARK  9 active torsions:
REMARK  status: ('A' for Active; 'I' for Inactive)
REMARK    1  A    between atoms: O_1  and  C_2
REMARK    2  A    between atoms: C_2  and  C_4
REMARK    3  A    between atoms: C_4  and  N_5
REMARK    4  A    between atoms: N_5  and  C_6
REMARK    5  A    between atoms: N_5  and  C_10
REMARK    6  A    between atoms: C_6  and  C_7
REMARK    7  A    between atoms: C_7  and  O_8
REMARK    8  A    between atoms: C_10  and  C_11
REMARK    9  A    between atoms: C_11  and  O_12
REMARK                            x       y       z     vdW  Elec       q    Type
REMARK                         _______ _______ _______ _____ _____    ______ ____
ROOT
ATOM      1  N   UNL     1       8.216  -3.311  23.870  0.00  0.00    -0.272 NA
ENDROOT
BRANCH   1   2
ATOM      2  C   UNL     1       9.603  -2.717  23.677  0.00  0.00    +0.206 C 
BRANCH   2   3
ATOM      3  C   UNL     1       9.601  -1.454  22.818  0.00  0.00    +0.319 C 
ATOM      4  O   UNL     1       8.958  -0.449  23.076  0.00  0.00    -0.250 OA
BRANCH   3   5
ATOM      5  O   UNL     1      10.364  -1.571  21.707  0.00  0.00    -0.480 OA
ATOM      6  H   UNL     1      10.455  -0.700  21.279  0.00  0.00    +0.295 HD
ENDBRANCH   3   5
ENDBRANCH   2   3
ENDBRANCH   1   2
BRANCH   1   7
ATOM      7  C   UNL     1       8.438  -4.725  24.381  0.00  0.00    +0.206 C 
BRANCH   7   8
ATOM      8  C   UNL     1       9.204  -4.764  25.700  0.00  0.00    +0.319 C 
ATOM      9  O   UNL     1       8.848  -4.184  26.714  0.00  0.00    -0.250 OA
BRANCH   8  10
ATOM     10  O   UNL     1      10.316  -5.535  25.650  0.00  0.00    -0.480 OA
ATOM     11  H   UNL     1      10.207  -6.377  26.129  0.00  0.00    +0.295 HD
ENDBRANCH   8  10
ENDBRANCH   7   8
ENDBRANCH   1   7
BRANCH   1  12
ATOM     12  C   UNL     1       7.594  -3.452  22.493  0.00  0.00    +0.206 C 
BRANCH  12  13
ATOM     13  C   UNL     1       6.182  -2.870  22.433  0.00  0.00    +0.319 C 
ATOM     14  O   UNL     1       5.210  -3.469  22.005  0.00  0.00    -0.250 OA
BRANCH  13  15
ATOM     15  O   UNL     1       6.116  -1.594  22.886  0.00  0.00    -0.480 OA
ATOM     16  H   UNL     1       7.005  -1.192  22.911  0.00  0.00    +0.295 HD
ENDBRANCH  13  15
ENDBRANCH  12  13
ENDBRANCH   1  12
TORSDOF 9
ENDMDL
MODEL 2
REMARK VINA RESULT:      -4.4      3.137      4.869
REMARK  Name = 
REMARK  9 active torsions:
REMARK  status: ('A' for Active; 'I' for Inactive)
REMARK    1  A    between atoms: O_1  and  C_2
REMARK    2  A    between atoms: C_2  and  C_4
REMARK    3  A    between atoms: C_4  and  N_5
REMARK    4  A    between atoms: N_5  and  C_6
REMARK    5  A    between atoms: N_5  and  C_10
REMARK    6  A    between atoms: C_6  and  C_7
REMARK    7  A    between atoms: C_7  and  O_8
REMARK    8  A    between atoms: C_10  and  C_11
REMARK    9  A    between atoms: C_11  and  O_12
REMARK                            x       y       z     vdW  Elec       q    Type
REMARK                         _______ _______ _______ _____ _____    ______ ____
ROOT
ATOM      1  N   UNL     1       7.175  -5.291  23.986  0.00  0.00    -0.272 NA
ENDROOT
BRANCH   1   2
ATOM      2  C   UNL     1       8.195  -4.435  24.721  0.00  0.00    +0.206 C 
BRANCH   2   3
ATOM      3  C   UNL     1       8.754  -5.108  25.971  0.00  0.00    +0.319 C 
ATOM      4  O   UNL     1       8.216  -5.079  27.067  0.00  0.00    -0.250 OA
BRANCH   3   5
ATOM      5  O   UNL     1       9.942  -5.720  25.754  0.00  0.00    -0.480 OA
ATOM      6  H   UNL     1      10.337  -5.386  24.927  0.00  0.00    +0.295 HD
ENDBRANCH   3   5
ENDBRANCH   2   3
ENDBRANCH   1   2
BRANCH   1   7
ATOM      7  C   UNL     1       7.008  -4.654  22.616  0.00  0.00    +0.206 C 
BRANCH   7   8
ATOM      8  C   UNL     1       6.380  -5.600  21.596  0.00  0.00    +0.319 C 
ATOM      9  O   UNL     1       5.940  -5.242  20.514  0.00  0.00    -0.250 OA
BRANCH   8  10
ATOM     10  O   UNL     1       6.382  -6.893  21.994  0.00  0.00    -0.480 OA
ATOM     11  H   UNL     1       5.505  -7.189  22.299  0.00  0.00    +0.295 HD
ENDBRANCH   8  10
ENDBRANCH   7   8
ENDBRANCH   1   7
BRANCH   1  12
ATOM     12  C   UNL     1       5.846  -5.114  24.698  0.00  0.00    +0.206 C 
BRANCH  12  13
ATOM     13  C   UNL     1       5.288  -6.439  25.217  0.00  0.00    +0.319 C 
ATOM     14  O   UNL     1       4.624  -7.214  24.548  0.00  0.00    -0.250 OA
BRANCH  13  15
ATOM     15  O   UNL     1       5.584  -6.664  26.521  0.00  0.00    -0.480 OA
ATOM     16  H   UNL     1       6.363  -7.245  26.601  0.00  0.00    +0.295 HD
ENDBRANCH  13  15
ENDBRANCH  12  13
ENDBRANCH   1  12
TORSDOF 9
ENDMDL
MODEL 3
REMARK VINA RESULT:      -4.4      0.039      4.407
REMARK  Name = 
REMARK  9 active torsions:
REMARK  status: ('A' for Active; 'I' for Inactive)
REMARK    1  A    between atoms: O_1  and  C_2
REMARK    2  A    between atoms: C_2  and  C_4
REMARK    3  A    between atoms: C_4  and  N_5
REMARK    4  A    between atoms: N_5  and  C_6
REMARK    5  A    between atoms: N_5  and  C_10
REMARK    6  A    between atoms: C_6  and  C_7
REMARK    7  A    between atoms: C_7  and  O_8
REMARK    8  A    between atoms: C_10  and  C_11
REMARK    9  A    between atoms: C_11  and  O_12
REMARK                            x       y       z     vdW  Elec       q    Type
REMARK                         _______ _______ _______ _____ _____    ______ ____
ROOT
ATOM      1  N   UNL     1       8.222  -3.347  23.879  0.00  0.00    -0.272 NA
ENDROOT
BRANCH   1   2
ATOM      2  C   UNL     1       7.605  -3.439  22.491  0.00  0.00    +0.206 C 
BRANCH   2   3
ATOM      3  C   UNL     1       6.189  -2.871  22.426  0.00  0.00    +0.319 C 
ATOM      4  O   UNL     1       5.230  -3.469  21.964  0.00  0.00    -0.250 OA
BRANCH   3   5
ATOM      5  O   UNL     1       6.105  -1.608  22.904  0.00  0.00    -0.480 OA
ATOM      6  H   UNL     1       6.444  -0.982  22.238  0.00  0.00    +0.295 HD
ENDBRANCH   3   5
ENDBRANCH   2   3
ENDBRANCH   1   2
BRANCH   1   7
ATOM      7  C   UNL     1       9.605  -2.748  23.678  0.00  0.00    +0.206 C 
BRANCH   7   8
ATOM      8  C   UNL     1       9.584  -1.483  22.825  0.00  0.00    +0.319 C 
ATOM      9  O   UNL     1       8.972  -0.468  23.123  0.00  0.00    -0.250 OA
BRANCH   8  10
ATOM     10  O   UNL     1      10.339  -1.580  21.706  0.00  0.00    -0.480 OA
ATOM     11  H   UNL     1      11.218  -1.961  21.882  0.00  0.00    +0.295 HD
ENDBRANCH   8  10
ENDBRANCH   7   8
ENDBRANCH   1   7
BRANCH   1  12
ATOM     12  C   UNL     1       8.444  -4.767  24.365  0.00  0.00    +0.206 C 
BRANCH  12  13
ATOM     13  C   UNL     1       9.176  -4.812  25.706  0.00  0.00    +0.319 C 
ATOM     14  O   UNL     1       8.803  -4.231  26.712  0.00  0.00    -0.250 OA
BRANCH  13  15
ATOM     15  O   UNL     1      10.312  -5.550  25.665  0.00  0.00    -0.480 OA
ATOM     16  H   UNL     1      11.074  -5.026  25.976  0.00  0.00    +0.295 HD
ENDBRANCH  13  15
ENDBRANCH  12  13
ENDBRANCH   1  12
TORSDOF 9
ENDMDL
MODEL 4
REMARK VINA RESULT:      -4.4      3.206      5.400
REMARK  Name = 
REMARK  9 active torsions:
REMARK  status: ('A' for Active; 'I' for Inactive)
REMARK    1  A    between atoms: O_1  and  C_2
REMARK    2  A    between atoms: C_2  and  C_4
REMARK    3  A    between atoms: C_4  and  N_5
REMARK    4  A    between atoms: N_5  and  C_6
REMARK    5  A    between atoms: N_5  and  C_10
REMARK    6  A    between atoms: C_6  and  C_7
REMARK    7  A    between atoms: C_7  and  O_8
REMARK    8  A    between atoms: C_10  and  C_11
REMARK    9  A    between atoms: C_11  and  O_12
REMARK                            x       y       z     vdW  Elec       q    Type
REMARK                         _______ _______ _______ _____ _____    ______ ____
ROOT
ATOM      1  N   UNL     1       9.649   0.603  23.333  0.00  0.00    -0.272 NA
ENDROOT
BRANCH   1   2
ATOM      2  C   UNL     1       8.152   0.596  23.606  0.00  0.00    +0.206 C 
BRANCH   2   3
ATOM      3  C   UNL     1       7.333   1.216  22.477  0.00  0.00    +0.319 C 
ATOM      4  O   UNL     1       7.813   1.676  21.453  0.00  0.00    -0.250 OA
BRANCH   3   5
ATOM      5  O   UNL     1       6.006   1.240  22.740  0.00  0.00    -0.480 OA
ATOM      6  H   UNL     1       5.863   1.361  23.697  0.00  0.00    +0.295 HD
ENDBRANCH   3   5
ENDBRANCH   2   3
ENDBRANCH   1   2
BRANCH   1   7
ATOM      7  C   UNL     1      10.205  -0.620  24.045  0.00  0.00    +0.206 C 
BRANCH   7   8
ATOM      8  C   UNL     1      10.168  -1.877  23.181  0.00  0.00    +0.319 C 
ATOM      9  O   UNL     1       9.991  -3.003  23.620  0.00  0.00    -0.250 OA
BRANCH   8  10
ATOM     10  O   UNL     1      10.323  -1.623  21.860  0.00  0.00    -0.480 OA
ATOM     11  H   UNL     1       9.985  -2.345  21.300  0.00  0.00    +0.295 HD
ENDBRANCH   8  10
ENDBRANCH   7   8
ENDBRANCH   1   7
BRANCH   1  12
ATOM     12  C   UNL     1      10.229   1.809  24.048  0.00  0.00    +0.206 C 
BRANCH  12  13
ATOM     13  C   UNL     1      10.726   2.875  23.073  0.00  0.00    +0.319 C 
ATOM     14  O   UNL     1      11.243   3.927  23.410  0.00  0.00    -0.250 OA
BRANCH  13  15
ATOM     15  O   UNL     1      10.511   2.547  21.775  0.00  0.00    -0.480 OA
ATOM     16  H   UNL     1       9.561   2.407  21.609  0.00  0.00    +0.295 HD
ENDBRANCH  13  15
ENDBRANCH  12  13
ENDBRANCH   1  12
TORSDOF 9
ENDMDL
MODEL 5
REMARK VINA RESULT:      -4.4      1.870      4.070
REMARK  Name = 
REMARK  9 active torsions:
REMARK  status: ('A' for Active; 'I' for Inactive)
REMARK    1  A    between atoms: O_1  and  C_2
REMARK    2  A    between atoms: C_2  and  C_4
REMARK    3  A    between atoms: C_4  and  N_5
REMARK    4  A    between atoms: N_5  and  C_6
REMARK    5  A    between atoms: N_5  and  C_10
REMARK    6  A    between atoms: C_6  and  C_7
REMARK    7  A    between atoms: C_7  and  O_8
REMARK    8  A    between atoms: C_10  and  C_11
REMARK    9  A    between atoms: C_11  and  O_12
REMARK                            x       y       z     vdW  Elec       q    Type
REMARK                         _______ _______ _______ _____ _____    ______ ____
ROOT
ATOM      1  N   UNL     1       7.473  -4.274  23.356  0.00  0.00    -0.272 NA
ENDROOT
BRANCH   1   2
ATOM      2  C   UNL     1       7.305  -4.742  24.794  0.00  0.00    +0.206 C 
BRANCH   2   3
ATOM      3  C   UNL     1       8.578  -5.347  25.381  0.00  0.00    +0.319 C 
ATOM      4  O   UNL     1       9.650  -5.391  24.798  0.00  0.00    -0.250 OA
BRANCH   3   5
ATOM      5  O   UNL     1       8.393  -5.870  26.615  0.00  0.00    -0.480 OA
ATOM      6  H   UNL     1       8.833  -5.307  27.279  0.00  0.00    +0.295 HD
ENDBRANCH   3   5
ENDBRANCH   2   3
ENDBRANCH   1   2
BRANCH   1   7
ATOM      7  C   UNL     1       7.735  -2.779  23.436  0.00  0.00    +0.206 C 
BRANCH   7   8
ATOM      8  C   UNL     1       9.084  -2.381  22.842  0.00  0.00    +0.319 C 
ATOM      9  O   UNL     1       9.214  -1.769  21.793  0.00  0.00    -0.250 OA
BRANCH   8  10
ATOM     10  O   UNL     1      10.135  -2.751  23.609  0.00  0.00    -0.480 OA
ATOM     11  H   UNL     1       9.918  -3.489  24.207  0.00  0.00    +0.295 HD
ENDBRANCH   8  10
ENDBRANCH   7   8
ENDBRANCH   1   7
BRANCH   1  12
ATOM     12  C   UNL     1       6.127  -4.431  22.674  0.00  0.00    +0.206 C 
BRANCH  12  13
ATOM     13  C   UNL     1       6.147  -5.517  21.599  0.00  0.00    +0.319 C 
ATOM     14  O   UNL     1       5.990  -5.306  20.407  0.00  0.00    -0.250 OA
BRANCH  13  15
ATOM     15  O   UNL     1       6.334  -6.760  22.105  0.00  0.00    -0.480 OA
ATOM     16  H   UNL     1       5.736  -6.918  22.858  0.00  0.00    +0.295 HD
ENDBRANCH  13  15
ENDBRANCH  12  13
ENDBRANCH   1  12
TORSDOF 9
ENDMDL
MODEL 6
REMARK VINA RESULT:      -4.4      1.523      4.087
REMARK  Name = 
REMARK  9 active torsions:
REMARK  status: ('A' for Active; 'I' for Inactive)
REMARK    1  A    between atoms: O_1  and  C_2
REMARK    2  A    between atoms: C_2  and  C_4
REMARK    3  A    between atoms: C_4  and  N_5
REMARK    4  A    between atoms: N_5  and  C_6
REMARK    5  A    between atoms: N_5  and  C_10
REMARK    6  A    between atoms: C_6  and  C_7
REMARK    7  A    between atoms: C_7  and  O_8
REMARK    8  A    between atoms: C_10  and  C_11
REMARK    9  A    between atoms: C_11  and  O_12
REMARK                            x       y       z     vdW  Elec       q    Type
REMARK                         _______ _______ _______ _____ _____    ______ ____
ROOT
ATOM      1  N   UNL     1       8.328  -3.310  23.297  0.00  0.00    -0.272 NA
ENDROOT
BRANCH   1   2
ATOM      2  C   UNL     1       8.653  -3.425  24.779  0.00  0.00    +0.206 C 
BRANCH   2   3
ATOM      3  C   UNL     1       9.195  -4.798  25.170  0.00  0.00    +0.319 C 
ATOM      4  O   UNL     1       9.357  -5.721  24.388  0.00  0.00    -0.250 OA
BRANCH   3   5
ATOM      5  O   UNL     1       9.448  -4.907  26.495  0.00  0.00    -0.480 OA
ATOM      6  H   UNL     1      10.032  -4.178  26.778  0.00  0.00    +0.295 HD
ENDBRANCH   3   5
ENDBRANCH   2   3
ENDBRANCH   1   2
BRANCH   1   7
ATOM      7  C   UNL     1       8.452  -1.834  22.959  0.00  0.00    +0.206 C 
BRANCH   7   8
ATOM      8  C   UNL     1       9.696  -1.518  22.132  0.00  0.00    +0.319 C 
ATOM      9  O   UNL     1      10.827  -1.861  22.443  0.00  0.00    -0.250 OA
BRANCH   8  10
ATOM     10  O   UNL     1       9.423  -0.839  20.994  0.00  0.00    -0.480 OA
ATOM     11  H   UNL     1       8.624  -0.287  21.073  0.00  0.00    +0.295 HD
ENDBRANCH   8  10
ENDBRANCH   7   8
ENDBRANCH   1   7
BRANCH   1  12
ATOM     12  C   UNL     1       6.860  -3.660  23.132  0.00  0.00    +0.206 C 
BRANCH  12  13
ATOM     13  C   UNL     1       6.632  -4.689  22.025  0.00  0.00    +0.319 C 
ATOM     14  O   UNL     1       5.794  -4.576  21.146  0.00  0.00    -0.250 OA
BRANCH  13  15
ATOM     15  O   UNL     1       7.445  -5.768  22.129  0.00  0.00    -0.480 OA
ATOM     16  H   UNL     1       6.939  -6.592  22.009  0.00  0.00    +0.295 HD
ENDBRANCH  13  15
ENDBRANCH  12  13
ENDBRANCH   1  12
TORSDOF 9
ENDMDL
MODEL 7
REMARK VINA RESULT:      -4.4      3.316      5.211
REMARK  Name = 
REMARK  9 active torsions:
REMARK  status: ('A' for Active; 'I' for Inactive)
REMARK    1  A    between atoms: O_1  and  C_2
REMARK    2  A    between atoms: C_2  and  C_4
REMARK    3  A    between atoms: C_4  and  N_5
REMARK    4  A    between atoms: N_5  and  C_6
REMARK    5  A    between atoms: N_5  and  C_10
REMARK    6  A    between atoms: C_6  and  C_7
REMARK    7  A    between atoms: C_7  and  O_8
REMARK    8  A    between atoms: C_10  and  C_11
REMARK    9  A    between atoms: C_11  and  O_12
REMARK                            x       y       z     vdW  Elec       q    Type
REMARK                         _______ _______ _______ _____ _____    ______ ____
ROOT
ATOM      1  N   UNL     1       6.437  -5.347  24.461  0.00  0.00    -0.272 NA
ENDROOT
BRANCH   1   2
ATOM      2  C   UNL     1       6.183  -4.550  23.191  0.00  0.00    +0.206 C 
BRANCH   2   3
ATOM      3  C   UNL     1       6.033  -5.428  21.951  0.00  0.00    +0.319 C 
ATOM      4  O   UNL     1       5.892  -4.998  20.817  0.00  0.00    -0.250 OA
BRANCH   3   5
ATOM      5  O   UNL     1       6.036  -6.751  22.238  0.00  0.00    -0.480 OA
ATOM      6  H   UNL     1       6.955  -7.076  22.277  0.00  0.00    +0.295 HD
ENDBRANCH   3   5
ENDBRANCH   2   3
ENDBRANCH   1   2
BRANCH   1   7
ATOM      7  C   UNL     1       5.097  -5.430  25.174  0.00  0.00    +0.206 C 
BRANCH   7   8
ATOM      8  C   UNL     1       4.681  -6.864  25.489  0.00  0.00    +0.319 C 
ATOM      9  O   UNL     1       4.172  -7.621  24.677  0.00  0.00    -0.250 OA
BRANCH   8  10
ATOM     10  O   UNL     1       4.958  -7.233  26.762  0.00  0.00    -0.480 OA
ATOM     11  H   UNL     1       4.930  -8.200  26.883  0.00  0.00    +0.295 HD
ENDBRANCH   8  10
ENDBRANCH   7   8
ENDBRANCH   1   7
BRANCH   1  12
ATOM     12  C   UNL     1       7.336  -4.504  25.346  0.00  0.00    +0.206 C 
BRANCH  12  13
ATOM     13  C   UNL     1       8.056  -5.341  26.404  0.00  0.00    +0.319 C 
ATOM     14  O   UNL     1       7.568  -5.661  27.475  0.00  0.00    -0.250 OA
BRANCH  13  15
ATOM     15  O   UNL     1       9.318  -5.680  26.042  0.00  0.00    -0.480 OA
ATOM     16  H   UNL     1       9.314  -6.161  25.194  0.00  0.00    +0.295 HD
ENDBRANCH  13  15
ENDBRANCH  12  13
ENDBRANCH   1  12
TORSDOF 9
ENDMDL
MODEL 8
REMARK VINA RESULT:      -4.4      1.910      3.818
REMARK  Name = 
REMARK  9 active torsions:
REMARK  status: ('A' for Active; 'I' for Inactive)
REMARK    1  A    between atoms: O_1  and  C_2
REMARK    2  A    between atoms: C_2  and  C_4
REMARK    3  A    between atoms: C_4  and  N_5
REMARK    4  A    between atoms: N_5  and  C_6
REMARK    5  A    between atoms: N_5  and  C_10
REMARK    6  A    between atoms: C_6  and  C_7
REMARK    7  A    between atoms: C_7  and  O_8
REMARK    8  A    between atoms: C_10  and  C_11
REMARK    9  A    between atoms: C_11  and  O_12
REMARK                            x       y       z     vdW  Elec       q    Type
REMARK                         _______ _______ _______ _____ _____    ______ ____
ROOT
ATOM      1  N   UNL     1       7.419  -4.337  23.428  0.00  0.00    -0.272 NA
ENDROOT
BRANCH   1   2
ATOM      2  C   UNL     1       6.072  -4.534  22.749  0.00  0.00    +0.206 C 
BRANCH   2   3
ATOM      3  C   UNL     1       6.112  -5.567  21.625  0.00  0.00    +0.319 C 
ATOM      4  O   UNL     1       5.969  -5.301  20.442  0.00  0.00    -0.250 OA
BRANCH   3   5
ATOM      5  O   UNL     1       6.287  -6.831  22.076  0.00  0.00    -0.480 OA
ATOM      6  H   UNL     1       5.884  -6.922  22.960  0.00  0.00    +0.295 HD
ENDBRANCH   3   5
ENDBRANCH   2   3
ENDBRANCH   1   2
BRANCH   1   7
ATOM      7  C   UNL     1       7.258  -4.888  24.836  0.00  0.00    +0.206 C 
BRANCH   7   8
ATOM      8  C   UNL     1       8.575  -5.375  25.435  0.00  0.00    +0.319 C 
ATOM      9  O   UNL     1       9.649  -5.326  24.854  0.00  0.00    -0.250 OA
BRANCH   8  10
ATOM     10  O   UNL     1       8.445  -5.847  26.696  0.00  0.00    -0.480 OA
ATOM     11  H   UNL     1       9.306  -6.023  27.118  0.00  0.00    +0.295 HD
ENDBRANCH   8  10
ENDBRANCH   7   8
ENDBRANCH   1   7
BRANCH   1  12
ATOM     12  C   UNL     1       7.629  -2.842  23.581  0.00  0.00    +0.206 C 
BRANCH  12  13
ATOM     13  C   UNL     1       8.950  -2.378  22.968  0.00  0.00    +0.319 C 
ATOM     14  O   UNL     1       9.054  -1.872  21.863  0.00  0.00    -0.250 OA
BRANCH  13  15
ATOM     15  O   UNL     1      10.016  -2.606  23.773  0.00  0.00    -0.480 OA
ATOM     16  H   UNL     1      10.603  -3.279  23.382  0.00  0.00    +0.295 HD
ENDBRANCH  13  15
ENDBRANCH  12  13
ENDBRANCH   1  12
TORSDOF 9
ENDMDL
MODEL 9
REMARK VINA RESULT:      -4.3      1.714      3.861
REMARK  Name = 
REMARK  9 active torsions:
REMARK  status: ('A' for Active; 'I' for Inactive)
REMARK    1  A    between atoms: O_1  and  C_2
REMARK    2  A    between atoms: C_2  and  C_4
REMARK    3  A    between atoms: C_4  and  N_5
REMARK    4  A    between atoms: N_5  and  C_6
REMARK    5  A    between atoms: N_5  and  C_10
REMARK    6  A    between atoms: C_6  and  C_7
REMARK    7  A    between atoms: C_7  and  O_8
REMARK    8  A    between atoms: C_10  and  C_11
REMARK    9  A    between atoms: C_11  and  O_12
REMARK                            x       y       z     vdW  Elec       q    Type
REMARK                         _______ _______ _______ _____ _____    ______ ____
ROOT
ATOM      1  N   UNL     1       7.936  -3.574  22.896  0.00  0.00    -0.272 NA
ENDROOT
BRANCH   1   2
ATOM      2  C   UNL     1       8.147  -2.098  22.596  0.00  0.00    +0.206 C 
BRANCH   2   3
ATOM      3  C   UNL     1       9.610  -1.670  22.688  0.00  0.00    +0.319 C 
ATOM      4  O   UNL     1      10.183  -1.401  23.732  0.00  0.00    -0.250 OA
BRANCH   3   5
ATOM      5  O   UNL     1      10.210  -1.579  21.479  0.00  0.00    -0.480 OA
ATOM      6  H   UNL     1       9.681  -1.007  20.892  0.00  0.00    +0.295 HD
ENDBRANCH   3   5
ENDBRANCH   2   3
ENDBRANCH   1   2
BRANCH   1   7
ATOM      7  C   UNL     1       6.666  -3.969  22.161  0.00  0.00    +0.206 C 
BRANCH   7   8
ATOM      8  C   UNL     1       6.734  -5.377  21.576  0.00  0.00    +0.319 C 
ATOM      9  O   UNL     1       7.392  -6.287  22.060  0.00  0.00    -0.250 OA
BRANCH   8  10
ATOM     10  O   UNL     1       5.966  -5.536  20.473  0.00  0.00    -0.480 OA
ATOM     11  H   UNL     1       6.494  -5.577  19.655  0.00  0.00    +0.295 HD
ENDBRANCH   8  10
ENDBRANCH   7   8
ENDBRANCH   1   7
BRANCH   1  12
ATOM     12  C   UNL     1       7.622  -3.690  24.376  0.00  0.00    +0.206 C 
BRANCH  12  13
ATOM     13  C   UNL     1       8.650  -4.540  25.121  0.00  0.00    +0.319 C 
ATOM     14  O   UNL     1       8.977  -4.360  26.283  0.00  0.00    -0.250 OA
BRANCH  13  15
ATOM     15  O   UNL     1       9.190  -5.515  24.350  0.00  0.00    -0.480 OA
ATOM     16  H   UNL     1       8.640  -5.672  23.560  0.00  0.00    +0.295 HD
ENDBRANCH  13  15
ENDBRANCH  12  13
ENDBRANCH   1  12
TORSDOF 9
ENDMDL
