MODEL 1
REMARK VINA RESULT:      -4.7      0.000      0.000
REMARK  Name = 
REMARK  9 active torsions:
REMARK  status: ('A' for Active; 'I' for Inactive)
REMARK    1  A    between atoms: O_1  and  C_2
REMARK    2  A    between atoms: C_2  and  C_4
REMARK    3  A    between atoms: C_2  and  C_10
REMARK    4  A    between atoms: C_4  and  O_5
REMARK    5  A    between atoms: O_5  and  P_6
REMARK    6  A    between atoms: P_6  and  O_7
REMARK    7  A    between atoms: P_6  and  O_8
REMARK    8  A    between atoms: C_10  and  O_12
REMARK    9  A    between atoms: C_10  and  C_13
REMARK                            x       y       z     vdW  Elec       q    Type
REMARK                         _______ _______ _______ _____ _____    ______ ____
ROOT
ATOM      1  C   UNL     1       8.765  -3.828  24.470  0.00  0.00    +0.176 C 
ENDROOT
BRANCH   1   2
ATOM      2  O   UNL     1      10.084  -3.402  24.099  0.00  0.00    -0.387 OA
ATOM      3  H   UNL     1      10.725  -3.827  24.696  0.00  0.00    +0.210 HD
ENDBRANCH   1   2
BRANCH   1   4
ATOM      4  C   UNL     1       8.830  -5.188  25.176  0.00  0.00    +0.207 C 
BRANCH   4   5
ATOM      5  C   UNL     1       8.223  -5.076  26.547  0.00  0.00    +0.257 C 
ATOM      6  O   UNL     1       7.507  -5.944  27.042  0.00  0.00    -0.298 OA
ENDBRANCH   4   5
BRANCH   4   7
ATOM      7  O   UNL     1      10.180  -5.643  25.300  0.00  0.00    -0.382 OA
ATOM      8  H   UNL     1      10.447  -5.968  24.424  0.00  0.00    +0.210 HD
ENDBRANCH   4   7
ENDBRANCH   1   4
BRANCH   1   9
ATOM      9  C   UNL     1       7.890  -3.851  23.218  0.00  0.00    +0.206 C 
BRANCH   9  10
ATOM     10  O   UNL     1       7.105  -5.036  23.160  0.00  0.00    -0.284 OA
BRANCH  10  11
ATOM     11  P   UNL     1       6.505  -5.362  21.570  0.00  0.00    +0.472 P 
ATOM     12  O   UNL     1       5.968  -5.654  20.147  0.00  0.00    -0.228 OA
BRANCH  11  13
ATOM     13  O   UNL     1       5.255  -4.379  21.945  0.00  0.00    -0.303 OA
ATOM     14  H   UNL     1       5.263  -3.568  21.405  0.00  0.00    +0.222 HD
ENDBRANCH  11  13
BRANCH  11  15
ATOM     15  O   UNL     1       5.913  -6.747  22.213  0.00  0.00    -0.303 OA
ATOM     16  H   UNL     1       5.433  -6.535  23.033  0.00  0.00    +0.222 HD
ENDBRANCH  11  15
ENDBRANCH  10  11
ENDBRANCH   9  10
ENDBRANCH   1   9
TORSDOF 9
ENDMDL
MODEL 2
REMARK VINA RESULT:      -4.7      5.015      6.842
REMARK  Name = 
REMARK  9 active torsions:
REMARK  status: ('A' for Active; 'I' for Inactive)
REMARK    1  A    between atoms: O_1  and  C_2
REMARK    2  A    between atoms: C_2  and  C_4
REMARK    3  A    between atoms: C_2  and  C_10
REMARK    4  A    between atoms: C_4  and  O_5
REMARK    5  A    between atoms: O_5  and  P_6
REMARK    6  A    between atoms: P_6  and  O_7
REMARK    7  A    between atoms: P_6  and  O_8
REMARK    8  A    between atoms: C_10  and  O_12
REMARK    9  A    between atoms: C_10  and  C_13
REMARK                            x       y       z     vdW  Elec       q    Type
REMARK                         _______ _______ _______ _____ _____    ______ ____
ROOT
ATOM      1  C   UNL     1       7.888  -1.014  22.772  0.00  0.00    +0.176 C 
ENDROOT
BRANCH   1   2
ATOM      2  O   UNL     1       7.316  -1.966  23.681  0.00  0.00    -0.387 OA
ATOM      3  H   UNL     1       7.331  -1.584  24.577  0.00  0.00    +0.210 HD
ENDBRANCH   1   2
BRANCH   1   4
ATOM      4  C   UNL     1       9.087  -1.635  22.044  0.00  0.00    +0.207 C 
BRANCH   4   5
ATOM      5  C   UNL     1      10.192  -1.905  23.028  0.00  0.00    +0.257 C 
ATOM      6  O   UNL     1      10.211  -2.884  23.770  0.00  0.00    -0.298 OA
ENDBRANCH   4   5
BRANCH   4   7
ATOM      7  O   UNL     1       9.578  -0.765  21.020  0.00  0.00    -0.382 OA
ATOM      8  H   UNL     1      10.353  -1.204  20.629  0.00  0.00    +0.210 HD
ENDBRANCH   4   7
ENDBRANCH   1   4
BRANCH   1   9
ATOM      9  C   UNL     1       8.256   0.246  23.553  0.00  0.00    +0.206 C 
BRANCH   9  10
ATOM     10  O   UNL     1       8.402   1.365  22.687  0.00  0.00    -0.284 OA
BRANCH  10  11
ATOM     11  P   UNL     1       9.783   2.333  23.073  0.00  0.00    +0.472 P 
ATOM     12  O   UNL     1      11.019   3.200  23.419  0.00  0.00    -0.228 OA
BRANCH  11  13
ATOM     13  O   UNL     1       8.820   3.630  22.831  0.00  0.00    -0.303 OA
ATOM     14  H   UNL     1       7.980   3.550  23.319  0.00  0.00    +0.222 HD
ENDBRANCH  11  13
BRANCH  11  15
ATOM     15  O   UNL     1      10.236   2.086  21.519  0.00  0.00    -0.303 OA
ATOM     16  H   UNL     1      10.586   1.181  21.432  0.00  0.00    +0.222 HD
ENDBRANCH  11  15
ENDBRANCH  10  11
ENDBRANCH   9  10
ENDBRANCH   1   9
TORSDOF 9
ENDMDL
MODEL 3
REMARK VINA RESULT:      -4.7      4.846      6.518
REMARK  Name = 
REMARK  9 active torsions:
REMARK  status: ('A' for Active; 'I' for Inactive)
REMARK    1  A    between atoms: O_1  and  C_2
REMARK    2  A    between atoms: C_2  and  C_4
REMARK    3  A    between atoms: C_2  and  C_10
REMARK    4  A    between atoms: C_4  and  O_5
REMARK    5  A    between atoms: O_5  and  P_6
REMARK    6  A    between atoms: P_6  and  O_7
REMARK    7  A    between atoms: P_6  and  O_8
REMARK    8  A    between atoms: C_10  and  O_12
REMARK    9  A    between atoms: C_10  and  C_13
REMARK                            x       y       z     vdW  Elec       q    Type
REMARK                         _______ _______ _______ _____ _____    ______ ____
ROOT
ATOM      1  C   UNL     1       8.934   1.451  21.550  0.00  0.00    +0.176 C 
ENDROOT
BRANCH   1   2
ATOM      2  O   UNL     1      10.143   2.222  21.608  0.00  0.00    -0.387 OA
ATOM      3  H   UNL     1      10.687   2.002  20.831  0.00  0.00    +0.210 HD
ENDBRANCH   1   2
BRANCH   1   4
ATOM      4  C   UNL     1       8.023   1.809  22.731  0.00  0.00    +0.207 C 
BRANCH   4   5
ATOM      5  C   UNL     1       8.803   2.585  23.755  0.00  0.00    +0.257 C 
ATOM      6  O   UNL     1       9.578   2.061  24.553  0.00  0.00    -0.298 OA
ENDBRANCH   4   5
BRANCH   4   7
ATOM      7  O   UNL     1       7.487   0.634  23.345  0.00  0.00    -0.382 OA
ATOM      8  H   UNL     1       8.239   0.045  23.525  0.00  0.00    +0.210 HD
ENDBRANCH   4   7
ENDBRANCH   1   4
BRANCH   1   9
ATOM      9  C   UNL     1       9.302  -0.030  21.513  0.00  0.00    +0.206 C 
BRANCH   9  10
ATOM     10  O   UNL     1      10.346  -0.325  22.433  0.00  0.00    -0.284 OA
BRANCH  10  11
ATOM     11  P   UNL     1      10.120  -1.840  23.237  0.00  0.00    +0.472 P 
ATOM     12  O   UNL     1       9.917  -3.196  23.957  0.00  0.00    -0.228 OA
BRANCH  11  13
ATOM     13  O   UNL     1       8.685  -1.927  22.462  0.00  0.00    -0.303 OA
ATOM     14  H   UNL     1       7.945  -2.037  23.087  0.00  0.00    +0.222 HD
ENDBRANCH  11  13
BRANCH  11  15
ATOM     15  O   UNL     1       9.637  -0.945  24.521  0.00  0.00    -0.303 OA
ATOM     16  H   UNL     1       9.183  -0.147  24.197  0.00  0.00    +0.222 HD
ENDBRANCH  11  15
ENDBRANCH  10  11
ENDBRANCH   9  10
ENDBRANCH   1   9
TORSDOF 9
ENDMDL
MODEL 4
REMARK VINA RESULT:      -4.6      3.322      5.457
REMARK  Name = 
REMARK  9 active torsions:
REMARK  status: ('A' for Active; 'I' for Inactive)
REMARK    1  A    between atoms: O_1  and  C_2
REMARK    2  A    between atoms: C_2  and  C_4
REMARK    3  A    between atoms: C_2  and  C_10
REMARK    4  A    between atoms: C_4  and  O_5
REMARK    5  A    between atoms: O_5  and  P_6
REMARK    6  A    between atoms: P_6  and  O_7
REMARK    7  A    between atoms: P_6  and  O_8
REMARK    8  A    between atoms: C_10  and  O_12
REMARK    9  A    between atoms: C_10  and  C_13
REMARK                            x       y       z     vdW  Elec       q    Type
REMARK                         _______ _______ _______ _____ _____    ______ ____
ROOT
ATOM      1  C   UNL     1      10.017  -0.948  23.806  0.00  0.00    +0.176 C 
ENDROOT
BRANCH   1   2
ATOM      2  O   UNL     1       9.402   0.206  24.397  0.00  0.00    -0.387 OA
ATOM      3  H   UNL     1       9.741   1.000  23.948  0.00  0.00    +0.210 HD
ENDBRANCH   1   2
BRANCH   1   4
ATOM      4  C   UNL     1      10.332  -0.680  22.329  0.00  0.00    +0.207 C 
BRANCH   4   5
ATOM      5  C   UNL     1       9.613   0.560  21.876  0.00  0.00    +0.257 C 
ATOM      6  O   UNL     1      10.127   1.677  21.877  0.00  0.00    -0.298 OA
ENDBRANCH   4   5
BRANCH   4   7
ATOM      7  O   UNL     1       9.931  -1.779  21.506  0.00  0.00    -0.382 OA
ATOM      8  H   UNL     1       9.878  -1.441  20.596  0.00  0.00    +0.210 HD
ENDBRANCH   4   7
ENDBRANCH   1   4
BRANCH   1   9
ATOM      9  C   UNL     1       9.094  -2.149  24.007  0.00  0.00    +0.206 C 
BRANCH   9  10
ATOM     10  O   UNL     1       9.837  -3.357  24.118  0.00  0.00    -0.284 OA
BRANCH  10  11
ATOM     11  P   UNL     1       9.060  -4.529  25.124  0.00  0.00    +0.472 P 
ATOM     12  O   UNL     1       8.364  -5.579  26.026  0.00  0.00    -0.228 OA
BRANCH  11  13
ATOM     13  O   UNL     1      10.491  -5.317  25.147  0.00  0.00    -0.303 OA
ATOM     14  H   UNL     1      10.386  -6.244  25.427  0.00  0.00    +0.222 HD
ENDBRANCH  11  13
BRANCH  11  15
ATOM     15  O   UNL     1       8.472  -5.155  23.730  0.00  0.00    -0.303 OA
ATOM     16  H   UNL     1       9.189  -5.187  23.071  0.00  0.00    +0.222 HD
ENDBRANCH  11  15
ENDBRANCH  10  11
ENDBRANCH   9  10
ENDBRANCH   1   9
TORSDOF 9
ENDMDL
MODEL 5
REMARK VINA RESULT:      -4.6      4.102      5.552
REMARK  Name = 
REMARK  9 active torsions:
REMARK  status: ('A' for Active; 'I' for Inactive)
REMARK    1  A    between atoms: O_1  and  C_2
REMARK    2  A    between atoms: C_2  and  C_4
REMARK    3  A    between atoms: C_2  and  C_10
REMARK    4  A    between atoms: C_4  and  O_5
REMARK    5  A    between atoms: O_5  and  P_6
REMARK    6  A    between atoms: P_6  and  O_7
REMARK    7  A    between atoms: P_6  and  O_8
REMARK    8  A    between atoms: C_10  and  O_12
REMARK    9  A    between atoms: C_10  and  C_13
REMARK                            x       y       z     vdW  Elec       q    Type
REMARK                         _______ _______ _______ _____ _____    ______ ____
ROOT
ATOM      1  C   UNL     1       9.977  -1.829  23.814  0.00  0.00    +0.176 C 
ENDROOT
BRANCH   1   2
ATOM      2  O   UNL     1      10.756  -2.032  22.627  0.00  0.00    -0.387 OA
ATOM      3  H   UNL     1      10.867  -1.173  22.181  0.00  0.00    +0.210 HD
ENDBRANCH   1   2
BRANCH   1   4
ATOM      4  C   UNL     1       8.592  -2.470  23.652  0.00  0.00    +0.207 C 
BRANCH   4   5
ATOM      5  C   UNL     1       8.627  -3.885  24.159  0.00  0.00    +0.257 C 
ATOM      6  O   UNL     1       9.666  -4.468  24.462  0.00  0.00    -0.298 OA
ENDBRANCH   4   5
BRANCH   4   7
ATOM      7  O   UNL     1       8.182  -2.476  22.282  0.00  0.00    -0.382 OA
ATOM      8  H   UNL     1       8.594  -1.701  21.864  0.00  0.00    +0.210 HD
ENDBRANCH   4   7
ENDBRANCH   1   4
BRANCH   1   9
ATOM      9  C   UNL     1       9.906  -0.331  24.102  0.00  0.00    +0.206 C 
BRANCH   9  10
ATOM     10  O   UNL     1      10.372   0.429  22.993  0.00  0.00    -0.284 OA
BRANCH  10  11
ATOM     11  P   UNL     1       9.088   1.195  22.122  0.00  0.00    +0.472 P 
ATOM     12  O   UNL     1       7.939   1.880  21.342  0.00  0.00    -0.228 OA
BRANCH  11  13
ATOM     13  O   UNL     1       9.274   0.017  21.005  0.00  0.00    -0.303 OA
ATOM     14  H   UNL     1       8.447  -0.482  20.870  0.00  0.00    +0.222 HD
ENDBRANCH  11  13
BRANCH  11  15
ATOM     15  O   UNL     1      10.240   2.221  21.572  0.00  0.00    -0.303 OA
ATOM     16  H   UNL     1      10.156   3.071  22.040  0.00  0.00    +0.222 HD
ENDBRANCH  11  15
ENDBRANCH  10  11
ENDBRANCH   9  10
ENDBRANCH   1   9
TORSDOF 9
ENDMDL
MODEL 6
REMARK VINA RESULT:      -4.6      2.390      3.867
REMARK  Name = 
REMARK  9 active torsions:
REMARK  status: ('A' for Active; 'I' for Inactive)
REMARK    1  A    between atoms: O_1  and  C_2
REMARK    2  A    between atoms: C_2  and  C_4
REMARK    3  A    between atoms: C_2  and  C_10
REMARK    4  A    between atoms: C_4  and  O_5
REMARK    5  A    between atoms: O_5  and  P_6
REMARK    6  A    between atoms: P_6  and  O_7
REMARK    7  A    between atoms: P_6  and  O_8
REMARK    8  A    between atoms: C_10  and  O_12
REMARK    9  A    between atoms: C_10  and  C_13
REMARK                            x       y       z     vdW  Elec       q    Type
REMARK                         _______ _______ _______ _____ _____    ______ ____
ROOT
ATOM      1  C   UNL     1       8.017  -4.852  24.194  0.00  0.00    +0.176 C 
ENDROOT
BRANCH   1   2
ATOM      2  O   UNL     1       6.691  -5.348  24.425  0.00  0.00    -0.387 OA
ATOM      3  H   UNL     1       6.434  -5.127  25.338  0.00  0.00    +0.210 HD
ENDBRANCH   1   2
BRANCH   1   4
ATOM      4  C   UNL     1       8.972  -5.373  25.276  0.00  0.00    +0.207 C 
BRANCH   4   5
ATOM      5  C   UNL     1       8.690  -4.676  26.578  0.00  0.00    +0.257 C 
ATOM      6  O   UNL     1       7.760  -4.983  27.321  0.00  0.00    -0.298 OA
ENDBRANCH   4   5
BRANCH   4   7
ATOM      7  O   UNL     1      10.337  -5.150  24.914  0.00  0.00    -0.382 OA
ATOM      8  H   UNL     1      10.776  -4.775  25.697  0.00  0.00    +0.210 HD
ENDBRANCH   4   7
ENDBRANCH   1   4
BRANCH   1   9
ATOM      9  C   UNL     1       7.965  -3.327  24.135  0.00  0.00    +0.206 C 
BRANCH   9  10
ATOM     10  O   UNL     1       8.423  -2.843  22.878  0.00  0.00    -0.284 OA
BRANCH  10  11
ATOM     11  P   UNL     1       9.552  -1.542  23.034  0.00  0.00    +0.472 P 
ATOM     12  O   UNL     1      10.564  -0.378  23.174  0.00  0.00    -0.228 OA
BRANCH  11  13
ATOM     13  O   UNL     1       9.821  -1.711  21.431  0.00  0.00    -0.303 OA
ATOM     14  H   UNL     1       9.063  -2.128  20.982  0.00  0.00    +0.222 HD
ENDBRANCH  11  13
BRANCH  11  15
ATOM     15  O   UNL     1      10.601  -2.681  23.567  0.00  0.00    -0.303 OA
ATOM     16  H   UNL     1      11.349  -2.738  22.945  0.00  0.00    +0.222 HD
ENDBRANCH  11  15
ENDBRANCH  10  11
ENDBRANCH   9  10
ENDBRANCH   1   9
TORSDOF 9
ENDMDL
MODEL 7
REMARK VINA RESULT:      -4.5      4.858      6.344
REMARK  Name = 
REMARK  9 active torsions:
REMARK  status: ('A' for Active; 'I' for Inactive)
REMARK    1  A    between atoms: O_1  and  C_2
REMARK    2  A    between atoms: C_2  and  C_4
REMARK    3  A    between atoms: C_2  and  C_10
REMARK    4  A    between atoms: C_4  and  O_5
REMARK    5  A    between atoms: O_5  and  P_6
REMARK    6  A    between atoms: P_6  and  O_7
REMARK    7  A    between atoms: P_6  and  O_8
REMARK    8  A    between atoms: C_10  and  O_12
REMARK    9  A    between atoms: C_10  and  C_13
REMARK                            x       y       z     vdW  Elec       q    Type
REMARK                         _______ _______ _______ _____ _____    ______ ____
ROOT
ATOM      1  C   UNL     1       9.546  -1.314  21.738  0.00  0.00    +0.176 C 
ENDROOT
BRANCH   1   2
ATOM      2  O   UNL     1       8.354  -2.083  21.952  0.00  0.00    -0.387 OA
ATOM      3  H   UNL     1       7.889  -2.175  21.102  0.00  0.00    +0.210 HD
ENDBRANCH   1   2
BRANCH   1   4
ATOM      4  C   UNL     1      10.430  -1.353  22.991  0.00  0.00    +0.207 C 
BRANCH   4   5
ATOM      5  C   UNL     1       9.787  -2.219  24.038  0.00  0.00    +0.257 C 
ATOM      6  O   UNL     1       9.991  -3.428  24.132  0.00  0.00    -0.298 OA
ENDBRANCH   4   5
BRANCH   4   7
ATOM      7  O   UNL     1      10.626  -0.041  23.528  0.00  0.00    -0.382 OA
ATOM      8  H   UNL     1      11.561   0.018  23.786  0.00  0.00    +0.210 HD
ENDBRANCH   4   7
ENDBRANCH   1   4
BRANCH   1   9
ATOM      9  C   UNL     1       9.146   0.105  21.339  0.00  0.00    +0.206 C 
BRANCH   9  10
ATOM     10  O   UNL     1       8.060   0.576  22.129  0.00  0.00    -0.284 OA
BRANCH  10  11
ATOM     11  P   UNL     1       8.064   2.296  22.311  0.00  0.00    +0.472 P 
ATOM     12  O   UNL     1       8.068   3.837  22.473  0.00  0.00    -0.228 OA
BRANCH  11  13
ATOM     13  O   UNL     1       9.548   2.268  21.628  0.00  0.00    -0.303 OA
ATOM     14  H   UNL     1      10.179   1.752  22.162  0.00  0.00    +0.222 HD
ENDBRANCH  11  13
BRANCH  11  15
ATOM     15  O   UNL     1       8.514   2.008  23.858  0.00  0.00    -0.303 OA
ATOM     16  H   UNL     1       7.719   1.825  24.390  0.00  0.00    +0.222 HD
ENDBRANCH  11  15
ENDBRANCH  10  11
ENDBRANCH   9  10
ENDBRANCH   1   9
TORSDOF 9
ENDMDL
MODEL 8
REMARK VINA RESULT:      -4.4      4.325      6.152
REMARK  Name = 
REMARK  9 active torsions:
REMARK  status: ('A' for Active; 'I' for Inactive)
REMARK    1  A    between atoms: O_1  and  C_2
REMARK    2  A    between atoms: C_2  and  C_4
REMARK    3  A    between atoms: C_2  and  C_10
REMARK    4  A    between atoms: C_4  and  O_5
REMARK    5  A    between atoms: O_5  and  P_6
REMARK    6  A    between atoms: P_6  and  O_7
REMARK    7  A    between atoms: P_6  and  O_8
REMARK    8  A    between atoms: C_10  and  O_12
REMARK    9  A    between atoms: C_10  and  C_13
REMARK                            x       y       z     vdW  Elec       q    Type
REMARK                         _______ _______ _______ _____ _____    ______ ____
ROOT
ATOM      1  C   UNL     1      10.426  -1.609  22.826  0.00  0.00    +0.176 C 
ENDROOT
BRANCH   1   2
ATOM      2  O   UNL     1      10.068  -1.510  21.440  0.00  0.00    -0.387 OA
ATOM      3  H   UNL     1       9.103  -1.617  21.362  0.00  0.00    +0.210 HD
ENDBRANCH   1   2
BRANCH   1   4
ATOM      4  C   UNL     1       9.388  -2.451  23.579  0.00  0.00    +0.207 C 
BRANCH   4   5
ATOM      5  C   UNL     1       8.162  -2.624  22.727  0.00  0.00    +0.257 C 
ATOM      6  O   UNL     1       7.302  -1.755  22.597  0.00  0.00    -0.298 OA
ENDBRANCH   4   5
BRANCH   4   7
ATOM      7  O   UNL     1       9.015  -1.830  24.813  0.00  0.00    -0.382 OA
ATOM      8  H   UNL     1       8.584  -0.989  24.583  0.00  0.00    +0.210 HD
ENDBRANCH   4   7
ENDBRANCH   1   4
BRANCH   1   9
ATOM      9  C   UNL     1      10.569  -0.198  23.394  0.00  0.00    +0.206 C 
BRANCH   9  10
ATOM     10  O   UNL     1       9.532   0.655  22.923  0.00  0.00    -0.284 OA
BRANCH  10  11
ATOM     11  P   UNL     1       8.958   1.741  24.140  0.00  0.00    +0.472 P 
ATOM     12  O   UNL     1       8.443   2.714  25.230  0.00  0.00    -0.228 OA
BRANCH  11  13
ATOM     13  O   UNL     1       9.990   0.991  25.161  0.00  0.00    -0.303 OA
ATOM     14  H   UNL     1      10.904   1.307  25.043  0.00  0.00    +0.222 HD
ENDBRANCH  11  13
BRANCH  11  15
ATOM     15  O   UNL     1       7.694   0.711  24.288  0.00  0.00    -0.303 OA
ATOM     16  H   UNL     1       8.017  -0.136  24.644  0.00  0.00    +0.222 HD
ENDBRANCH  11  15
ENDBRANCH  10  11
ENDBRANCH   9  10
ENDBRANCH   1   9
TORSDOF 9
ENDMDL
MODEL 9
REMARK VINA RESULT:      -4.4      2.744      4.650
REMARK  Name = 
REMARK  9 active torsions:
REMARK  status: ('A' for Active; 'I' for Inactive)
REMARK    1  A    between atoms: O_1  and  C_2
REMARK    2  A    between atoms: C_2  and  C_4
REMARK    3  A    between atoms: C_2  and  C_10
REMARK    4  A    between atoms: C_4  and  O_5
REMARK    5  A    between atoms: O_5  and  P_6
REMARK    6  A    between atoms: P_6  and  O_7
REMARK    7  A    between atoms: P_6  and  O_8
REMARK    8  A    between atoms: C_10  and  O_12
REMARK    9  A    between atoms: C_10  and  C_13
REMARK                            x       y       z     vdW  Elec       q    Type
REMARK                         _______ _______ _______ _____ _____    ______ ____
ROOT
ATOM      1  C   UNL     1       8.024  -2.553  23.869  0.00  0.00    +0.176 C 
ENDROOT
BRANCH   1   2
ATOM      2  O   UNL     1       7.869  -3.316  22.664  0.00  0.00    -0.387 OA
ATOM      3  H   UNL     1       6.917  -3.445  22.500  0.00  0.00    +0.210 HD
ENDBRANCH   1   2
BRANCH   1   4
ATOM      4  C   UNL     1       9.512  -2.406  24.211  0.00  0.00    +0.207 C 
BRANCH   4   5
ATOM      5  C   UNL     1      10.188  -1.552  23.175  0.00  0.00    +0.257 C 
ATOM      6  O   UNL     1      10.162  -1.803  21.972  0.00  0.00    -0.298 OA
ENDBRANCH   4   5
BRANCH   4   7
ATOM      7  O   UNL     1      10.160  -3.681  24.260  0.00  0.00    -0.382 OA
ATOM      8  H   UNL     1      11.108  -3.517  24.121  0.00  0.00    +0.210 HD
ENDBRANCH   4   7
ENDBRANCH   1   4
BRANCH   1   9
ATOM      9  C   UNL     1       7.224  -3.228  24.980  0.00  0.00    +0.206 C 
BRANCH   9  10
ATOM     10  O   UNL     1       7.444  -4.634  24.994  0.00  0.00    -0.284 OA
BRANCH  10  11
ATOM     11  P   UNL     1       7.374  -5.306  26.586  0.00  0.00    +0.472 P 
ATOM     12  O   UNL     1       7.310  -5.907  28.012  0.00  0.00    -0.228 OA
BRANCH  11  13
ATOM     13  O   UNL     1       7.004  -3.800  27.100  0.00  0.00    -0.303 OA
ATOM     14  H   UNL     1       7.765  -3.372  27.534  0.00  0.00    +0.222 HD
ENDBRANCH  11  13
BRANCH  11  15
ATOM     15  O   UNL     1       9.004  -5.158  26.587  0.00  0.00    -0.303 OA
ATOM     16  H   UNL     1       9.380  -5.798  25.955  0.00  0.00    +0.222 HD
ENDBRANCH  11  15
ENDBRANCH  10  11
ENDBRANCH   9  10
ENDBRANCH   1   9
TORSDOF 9
ENDMDL
