MODEL 1
REMARK VINA RESULT:      -6.9      0.000      0.000
REMARK  Name = 
REMARK  14 active torsions:
REMARK  status: ('A' for Active; 'I' for Inactive)
REMARK    1  A    between atoms: N_1  and  C_2
REMARK    2  A    between atoms: C_2  and  C_4
REMARK    3  A    between atoms: C_2  and  C_8
REMARK    4  A    between atoms: C_4  and  C_5
REMARK    5  A    between atoms: C_5  and  O_6
REMARK    6  A    between atoms: C_8  and  O_10
REMARK    7  A    between atoms: O_10  and  P_11
REMARK    8  A    between atoms: P_11  and  O_12
REMARK    9  A    between atoms: P_11  and  O_14
REMARK   10  A    between atoms: O_14  and  C_15
REMARK   11  A    between atoms: C_15  and  C_16
REMARK   12  A    between atoms: C_19  and  N_27
REMARK   13  A    between atoms: C_21  and  O_23
REMARK   14  A    between atoms: C_24  and  O_26
REMARK                            x       y       z     vdW  Elec       q    Type
REMARK                         _______ _______ _______ _____ _____    ______ ____
ROOT
ATOM      1  C   UNL     1       8.568  -4.415  26.476  0.00  0.00    +0.178 C 
ATOM      2  C   UNL     1       8.852  -5.347  25.303  0.00  0.00    +0.178 C 
ATOM      3  C   UNL     1       8.532  -4.533  24.053  0.00  0.00    +0.195 C 
ATOM      4  C   UNL     1       8.165  -3.139  24.585  0.00  0.00    +0.253 C 
ATOM      5  O   UNL     1       8.652  -3.079  25.941  0.00  0.00    -0.346 OA
ENDROOT
BRANCH   4   6
ATOM      6  N   UNL     1       8.757  -2.065  23.806  0.00  0.00    -0.286 N 
ATOM      7  C   UNL     1       8.134  -0.882  23.508  0.00  0.00    +0.167 A 
ATOM      8  N   UNL     1       6.899  -0.490  23.869  0.00  0.00    -0.216 NA
ATOM      9  C   UNL     1       6.636   0.743  23.378  0.00  0.00    +0.225 A 
ATOM     10  N   UNL     1       7.421   1.530  22.611  0.00  0.00    -0.219 NA
ATOM     11  C   UNL     1       8.641   1.069  22.252  0.00  0.00    +0.147 A 
ATOM     12  N   UNL     1       9.437   1.867  21.442  0.00  0.00    -0.341 N 
ATOM     13  H   UNL     1      10.424   1.637  21.490  0.00  0.00    +0.144 HD
ATOM     14  H   UNL     1       9.177   2.844  21.486  0.00  0.00    +0.144 HD
ATOM     15  C   UNL     1       9.046  -0.188  22.730  0.00  0.00    +0.147 A 
ATOM     16  N   UNL     1      10.214  -0.908  22.584  0.00  0.00    -0.231 NA
ATOM     17  C   UNL     1      10.010  -2.022  23.257  0.00  0.00    +0.203 A 
ENDBRANCH   4   6
BRANCH   2  18
ATOM     18  O   UNL     1      10.248  -5.694  25.306  0.00  0.00    -0.386 OA
ATOM     19  H   UNL     1      10.754  -4.948  25.678  0.00  0.00    +0.210 HD
ENDBRANCH   2  18
BRANCH   3  20
ATOM     20  O   UNL     1       7.458  -5.122  23.311  0.00  0.00    -0.385 OA
ATOM     21  H   UNL     1       7.680  -6.073  23.228  0.00  0.00    +0.210 HD
ENDBRANCH   3  20
BRANCH   1  22
ATOM     22  C   UNL     1       7.209  -4.657  27.139  0.00  0.00    +0.207 C 
BRANCH  22  23
ATOM     23  O   UNL     1       6.643  -5.915  26.771  0.00  0.00    -0.274 OA
BRANCH  23  24
ATOM     24  P   UNL     1       4.975  -5.803  26.325  0.00  0.00    +0.533 P 
ATOM     25  O   UNL     1       5.288  -6.339  24.922  0.00  0.00    -0.215 OA
BRANCH  24  26
ATOM     26  O   UNL     1       4.647  -7.106  27.257  0.00  0.00    -0.293 OA
ATOM     27  H   UNL     1       4.159  -7.806  26.793  0.00  0.00    +0.223 HD
ENDBRANCH  24  26
BRANCH  24  28
ATOM     28  O   UNL     1       3.306  -5.690  25.879  0.00  0.00    -0.370 OA
BRANCH  28  29
ATOM     29  C   UNL     1       3.102  -4.940  24.780  0.00  0.00    +0.332 C 
ATOM     30  O   UNL     1       3.516  -3.791  24.676  0.00  0.00    -0.249 OA
BRANCH  29  31
ATOM     31  C   UNL     1       2.300  -5.686  23.710  0.00  0.00    +0.172 C 
BRANCH  31  32
ATOM     32  N   UNL     1       3.252  -6.211  22.706  0.00  0.00    -0.318 NA
ATOM     33  H   UNL     1       3.231  -7.232  22.708  0.00  0.00    +0.119 HD
ATOM     34  H   UNL     1       2.944  -5.918  21.770  0.00  0.00    +0.119 HD
ENDBRANCH  31  32
BRANCH  31  35
ATOM     35  C   UNL     1       1.451  -6.766  24.389  0.00  0.00    +0.150 C 
BRANCH  35  36
ATOM     36  C   UNL     1       1.980  -8.157  24.135  0.00  0.00    +0.307 C 
ATOM     37  O   UNL     1       1.566  -8.902  23.260  0.00  0.00    -0.251 OA
BRANCH  36  38
ATOM     38  O   UNL     1       3.020  -8.494  24.926  0.00  0.00    -0.481 OA
ATOM     39  H   UNL     1       3.807  -8.836  24.460  0.00  0.00    +0.295 HD
ENDBRANCH  36  38
ENDBRANCH  35  36
ENDBRANCH  31  35
ENDBRANCH  29  31
ENDBRANCH  28  29
ENDBRANCH  24  28
ENDBRANCH  23  24
ENDBRANCH  22  23
ENDBRANCH   1  22
TORSDOF 14
ENDMDL
MODEL 2
REMARK VINA RESULT:      -6.8      1.362      2.023
REMARK  Name = 
REMARK  14 active torsions:
REMARK  status: ('A' for Active; 'I' for Inactive)
REMARK    1  A    between atoms: N_1  and  C_2
REMARK    2  A    between atoms: C_2  and  C_4
REMARK    3  A    between atoms: C_2  and  C_8
REMARK    4  A    between atoms: C_4  and  C_5
REMARK    5  A    between atoms: C_5  and  O_6
REMARK    6  A    between atoms: C_8  and  O_10
REMARK    7  A    between atoms: O_10  and  P_11
REMARK    8  A    between atoms: P_11  and  O_12
REMARK    9  A    between atoms: P_11  and  O_14
REMARK   10  A    between atoms: O_14  and  C_15
REMARK   11  A    between atoms: C_15  and  C_16
REMARK   12  A    between atoms: C_19  and  N_27
REMARK   13  A    between atoms: C_21  and  O_23
REMARK   14  A    between atoms: C_24  and  O_26
REMARK                            x       y       z     vdW  Elec       q    Type
REMARK                         _______ _______ _______ _____ _____    ______ ____
ROOT
ATOM      1  C   UNL     1       8.575  -4.331  26.518  0.00  0.00    +0.178 C 
ATOM      2  C   UNL     1       8.786  -5.281  25.345  0.00  0.00    +0.178 C 
ATOM      3  C   UNL     1       8.453  -4.466  24.099  0.00  0.00    +0.195 C 
ATOM      4  C   UNL     1       8.154  -3.056  24.631  0.00  0.00    +0.253 C 
ATOM      5  O   UNL     1       8.688  -3.003  25.969  0.00  0.00    -0.346 OA
ENDROOT
BRANCH   4   6
ATOM      6  N   UNL     1       8.758  -2.010  23.823  0.00  0.00    -0.286 N 
ATOM      7  C   UNL     1       8.157  -0.819  23.512  0.00  0.00    +0.167 A 
ATOM      8  N   UNL     1       6.936  -0.392  23.884  0.00  0.00    -0.216 NA
ATOM      9  C   UNL     1       6.693   0.837  23.374  0.00  0.00    +0.225 A 
ATOM     10  N   UNL     1       7.483   1.592  22.580  0.00  0.00    -0.219 NA
ATOM     11  C   UNL     1       8.686   1.098  22.212  0.00  0.00    +0.147 A 
ATOM     12  N   UNL     1       9.487   1.862  21.375  0.00  0.00    -0.341 N 
ATOM     13  H   UNL     1      10.469   1.611  21.412  0.00  0.00    +0.144 HD
ATOM     14  H   UNL     1       9.250   2.846  21.405  0.00  0.00    +0.144 HD
ATOM     15  C   UNL     1       9.071  -0.159  22.708  0.00  0.00    +0.147 A 
ATOM     16  N   UNL     1      10.220  -0.908  22.557  0.00  0.00    -0.231 NA
ATOM     17  C   UNL     1      10.002  -2.005  23.254  0.00  0.00    +0.203 A 
ENDBRANCH   4   6
BRANCH   2  18
ATOM     18  O   UNL     1      10.168  -5.678  25.305  0.00  0.00    -0.386 OA
ATOM     19  H   UNL     1      10.719  -4.879  25.216  0.00  0.00    +0.210 HD
ENDBRANCH   2  18
BRANCH   3  20
ATOM     20  O   UNL     1       7.334  -5.021  23.399  0.00  0.00    -0.385 OA
ATOM     21  H   UNL     1       7.626  -5.127  22.470  0.00  0.00    +0.210 HD
ENDBRANCH   3  20
BRANCH   1  22
ATOM     22  C   UNL     1       7.231  -4.518  27.229  0.00  0.00    +0.207 C 
BRANCH  22  23
ATOM     23  O   UNL     1       7.034  -5.862  27.669  0.00  0.00    -0.274 OA
BRANCH  23  24
ATOM     24  P   UNL     1       5.383  -6.371  27.579  0.00  0.00    +0.533 P 
ATOM     25  O   UNL     1       5.655  -7.511  28.569  0.00  0.00    -0.215 OA
BRANCH  24  26
ATOM     26  O   UNL     1       4.944  -5.075  28.473  0.00  0.00    -0.293 OA
ATOM     27  H   UNL     1       5.402  -5.016  29.328  0.00  0.00    +0.223 HD
ENDBRANCH  24  26
BRANCH  24  28
ATOM     28  O   UNL     1       3.732  -6.880  27.488  0.00  0.00    -0.370 OA
BRANCH  28  29
ATOM     29  C   UNL     1       3.279  -6.985  26.224  0.00  0.00    +0.332 C 
ATOM     30  O   UNL     1       2.188  -7.472  25.951  0.00  0.00    -0.249 OA
BRANCH  29  31
ATOM     31  C   UNL     1       4.280  -6.440  25.202  0.00  0.00    +0.172 C 
BRANCH  31  32
ATOM     32  N   UNL     1       4.395  -7.424  24.103  0.00  0.00    -0.318 NA
ATOM     33  H   UNL     1       4.433  -8.370  24.486  0.00  0.00    +0.119 HD
ATOM     34  H   UNL     1       3.545  -7.380  23.526  0.00  0.00    +0.119 HD
ENDBRANCH  31  32
BRANCH  31  35
ATOM     35  C   UNL     1       3.818  -5.050  24.749  0.00  0.00    +0.150 C 
BRANCH  35  36
ATOM     36  C   UNL     1       3.626  -4.968  23.254  0.00  0.00    +0.307 C 
ATOM     37  O   UNL     1       4.496  -4.632  22.465  0.00  0.00    -0.251 OA
BRANCH  36  38
ATOM     38  O   UNL     1       2.407  -5.372  22.841  0.00  0.00    -0.481 OA
ATOM     39  H   UNL     1       1.981  -6.053  23.397  0.00  0.00    +0.295 HD
ENDBRANCH  36  38
ENDBRANCH  35  36
ENDBRANCH  31  35
ENDBRANCH  29  31
ENDBRANCH  28  29
ENDBRANCH  24  28
ENDBRANCH  23  24
ENDBRANCH  22  23
ENDBRANCH   1  22
TORSDOF 14
ENDMDL
MODEL 3
REMARK VINA RESULT:      -6.7      3.737      8.346
REMARK  Name = 
REMARK  14 active torsions:
REMARK  status: ('A' for Active; 'I' for Inactive)
REMARK    1  A    between atoms: N_1  and  C_2
REMARK    2  A    between atoms: C_2  and  C_4
REMARK    3  A    between atoms: C_2  and  C_8
REMARK    4  A    between atoms: C_4  and  C_5
REMARK    5  A    between atoms: C_5  and  O_6
REMARK    6  A    between atoms: C_8  and  O_10
REMARK    7  A    between atoms: O_10  and  P_11
REMARK    8  A    between atoms: P_11  and  O_12
REMARK    9  A    between atoms: P_11  and  O_14
REMARK   10  A    between atoms: O_14  and  C_15
REMARK   11  A    between atoms: C_15  and  C_16
REMARK   12  A    between atoms: C_19  and  N_27
REMARK   13  A    between atoms: C_21  and  O_23
REMARK   14  A    between atoms: C_24  and  O_26
REMARK                            x       y       z     vdW  Elec       q    Type
REMARK                         _______ _______ _______ _____ _____    ______ ____
ROOT
ATOM      1  C   UNL     1       6.326  -3.656  22.134  0.00  0.00    +0.178 C 
ATOM      2  C   UNL     1       7.161  -4.930  22.065  0.00  0.00    +0.178 C 
ATOM      3  C   UNL     1       7.204  -5.464  23.494  0.00  0.00    +0.195 C 
ATOM      4  C   UNL     1       6.307  -4.503  24.290  0.00  0.00    +0.253 C 
ATOM      5  O   UNL     1       5.518  -3.784  23.321  0.00  0.00    -0.346 OA
ENDROOT
BRANCH   4   6
ATOM      6  N   UNL     1       5.429  -5.192  25.219  0.00  0.00    -0.286 N 
ATOM      7  C   UNL     1       5.820  -5.707  26.428  0.00  0.00    +0.167 A 
ATOM      8  N   UNL     1       7.048  -5.672  26.977  0.00  0.00    -0.216 NA
ATOM      9  C   UNL     1       7.041  -6.293  28.179  0.00  0.00    +0.225 A 
ATOM     10  N   UNL     1       6.014  -6.907  28.806  0.00  0.00    -0.219 NA
ATOM     11  C   UNL     1       4.810  -6.938  28.190  0.00  0.00    +0.147 A 
ATOM     12  N   UNL     1       3.761  -7.592  28.822  0.00  0.00    -0.341 N 
ATOM     13  H   UNL     1       2.846  -7.299  28.497  0.00  0.00    +0.144 HD
ATOM     14  H   UNL     1       3.903  -7.676  29.821  0.00  0.00    +0.144 HD
ATOM     15  C   UNL     1       4.679  -6.295  26.948  0.00  0.00    +0.147 A 
ATOM     16  N   UNL     1       3.605  -6.115  26.101  0.00  0.00    -0.231 NA
ATOM     17  C   UNL     1       4.089  -5.435  25.081  0.00  0.00    +0.203 A 
ENDBRANCH   4   6
BRANCH   2  18
ATOM     18  O   UNL     1       6.495  -5.882  21.216  0.00  0.00    -0.386 OA
ATOM     19  H   UNL     1       6.603  -6.771  21.600  0.00  0.00    +0.210 HD
ENDBRANCH   2  18
BRANCH   3  20
ATOM     20  O   UNL     1       8.543  -5.487  23.999  0.00  0.00    -0.385 OA
ATOM     21  H   UNL     1       8.579  -4.794  24.692  0.00  0.00    +0.210 HD
ENDBRANCH   3  20
BRANCH   1  22
ATOM     22  C   UNL     1       7.162  -2.373  22.174  0.00  0.00    +0.207 C 
BRANCH  22  23
ATOM     23  O   UNL     1       8.564  -2.642  22.211  0.00  0.00    -0.274 OA
BRANCH  23  24
ATOM     24  P   UNL     1       9.389  -1.768  23.456  0.00  0.00    +0.533 P 
ATOM     25  O   UNL     1      10.005  -3.066  23.993  0.00  0.00    -0.215 OA
BRANCH  24  26
ATOM     26  O   UNL     1      10.435  -1.185  22.342  0.00  0.00    -0.293 OA
ATOM     27  H   UNL     1      10.349  -1.603  21.469  0.00  0.00    +0.223 HD
ENDBRANCH  24  26
BRANCH  24  28
ATOM     28  O   UNL     1      10.214  -0.894  24.701  0.00  0.00    -0.370 OA
BRANCH  28  29
ATOM     29  C   UNL     1      10.235   0.436  24.490  0.00  0.00    +0.332 C 
ATOM     30  O   UNL     1      11.277   1.072  24.378  0.00  0.00    -0.249 OA
BRANCH  29  31
ATOM     31  C   UNL     1       8.828   1.034  24.417  0.00  0.00    +0.172 C 
BRANCH  31  32
ATOM     32  N   UNL     1       8.389   1.344  25.796  0.00  0.00    -0.318 NA
ATOM     33  H   UNL     1       9.173   1.237  26.442  0.00  0.00    +0.119 HD
ATOM     34  H   UNL     1       8.109   2.332  25.842  0.00  0.00    +0.119 HD
ENDBRANCH  31  32
BRANCH  31  35
ATOM     35  C   UNL     1       8.853   2.249  23.483  0.00  0.00    +0.150 C 
BRANCH  35  36
ATOM     36  C   UNL     1       9.206   1.876  22.064  0.00  0.00    +0.307 C 
ATOM     37  O   UNL     1       8.494   1.209  21.329  0.00  0.00    -0.251 OA
BRANCH  36  38
ATOM     38  O   UNL     1      10.369   2.412  21.636  0.00  0.00    -0.481 OA
ATOM     39  H   UNL     1      10.692   2.079  20.777  0.00  0.00    +0.295 HD
ENDBRANCH  36  38
ENDBRANCH  35  36
ENDBRANCH  31  35
ENDBRANCH  29  31
ENDBRANCH  28  29
ENDBRANCH  24  28
ENDBRANCH  23  24
ENDBRANCH  22  23
ENDBRANCH   1  22
TORSDOF 14
ENDMDL
MODEL 4
REMARK VINA RESULT:      -6.7      2.212      3.514
REMARK  Name = 
REMARK  14 active torsions:
REMARK  status: ('A' for Active; 'I' for Inactive)
REMARK    1  A    between atoms: N_1  and  C_2
REMARK    2  A    between atoms: C_2  and  C_4
REMARK    3  A    between atoms: C_2  and  C_8
REMARK    4  A    between atoms: C_4  and  C_5
REMARK    5  A    between atoms: C_5  and  O_6
REMARK    6  A    between atoms: C_8  and  O_10
REMARK    7  A    between atoms: O_10  and  P_11
REMARK    8  A    between atoms: P_11  and  O_12
REMARK    9  A    between atoms: P_11  and  O_14
REMARK   10  A    between atoms: O_14  and  C_15
REMARK   11  A    between atoms: C_15  and  C_16
REMARK   12  A    between atoms: C_19  and  N_27
REMARK   13  A    between atoms: C_21  and  O_23
REMARK   14  A    between atoms: C_24  and  O_26
REMARK                            x       y       z     vdW  Elec       q    Type
REMARK                         _______ _______ _______ _____ _____    ______ ____
ROOT
ATOM      1  C   UNL     1       6.863  -4.687  24.133  0.00  0.00    +0.178 C 
ATOM      2  C   UNL     1       7.794  -5.131  25.255  0.00  0.00    +0.178 C 
ATOM      3  C   UNL     1       9.041  -4.263  25.114  0.00  0.00    +0.195 C 
ATOM      4  C   UNL     1       8.711  -3.301  23.963  0.00  0.00    +0.253 C 
ATOM      5  O   UNL     1       7.280  -3.351  23.786  0.00  0.00    -0.346 OA
ENDROOT
BRANCH   4   6
ATOM      6  N   UNL     1       9.120  -1.934  24.236  0.00  0.00    -0.286 N 
ATOM      7  C   UNL     1       9.325  -0.974  23.280  0.00  0.00    +0.167 A 
ATOM      8  N   UNL     1       9.186  -1.098  21.948  0.00  0.00    -0.216 NA
ATOM      9  C   UNL     1       9.483   0.070  21.334  0.00  0.00    +0.225 A 
ATOM     10  N   UNL     1       9.893   1.233  21.887  0.00  0.00    -0.219 NA
ATOM     11  C   UNL     1      10.046   1.289  23.229  0.00  0.00    +0.147 A 
ATOM     12  N   UNL     1      10.491   2.476  23.795  0.00  0.00    -0.341 N 
ATOM     13  H   UNL     1      10.265   2.565  24.780  0.00  0.00    +0.144 HD
ATOM     14  H   UNL     1      10.325   3.275  23.197  0.00  0.00    +0.144 HD
ATOM     15  C   UNL     1       9.732   0.147  23.985  0.00  0.00    +0.147 A 
ATOM     16  N   UNL     1       9.743  -0.105  25.341  0.00  0.00    -0.231 NA
ATOM     17  C   UNL     1       9.354  -1.359  25.456  0.00  0.00    +0.203 A 
ENDBRANCH   4   6
BRANCH   2  18
ATOM     18  O   UNL     1       7.164  -4.865  26.521  0.00  0.00    -0.386 OA
ATOM     19  H   UNL     1       6.258  -5.223  26.500  0.00  0.00    +0.210 HD
ENDBRANCH   2  18
BRANCH   3  20
ATOM     20  O   UNL     1      10.197  -5.059  24.831  0.00  0.00    -0.385 OA
ATOM     21  H   UNL     1      10.530  -5.365  25.700  0.00  0.00    +0.210 HD
ENDBRANCH   3  20
BRANCH   1  22
ATOM     22  C   UNL     1       6.890  -5.607  22.909  0.00  0.00    +0.207 C 
BRANCH  22  23
ATOM     23  O   UNL     1       5.582  -6.023  22.515  0.00  0.00    -0.274 OA
BRANCH  23  24
ATOM     24  P   UNL     1       4.421  -5.908  23.792  0.00  0.00    +0.533 P 
ATOM     25  O   UNL     1       3.302  -5.620  22.782  0.00  0.00    -0.215 OA
BRANCH  24  26
ATOM     26  O   UNL     1       4.474  -7.532  23.975  0.00  0.00    -0.293 OA
ATOM     27  H   UNL     1       4.144  -7.840  24.835  0.00  0.00    +0.223 HD
ENDBRANCH  24  26
BRANCH  24  28
ATOM     28  O   UNL     1       3.259  -5.792  25.070  0.00  0.00    -0.370 OA
BRANCH  28  29
ATOM     29  C   UNL     1       3.773  -5.290  26.209  0.00  0.00    +0.332 C 
ATOM     30  O   UNL     1       4.138  -4.125  26.312  0.00  0.00    -0.249 OA
BRANCH  29  31
ATOM     31  C   UNL     1       3.846  -6.337  27.323  0.00  0.00    +0.172 C 
BRANCH  31  32
ATOM     32  N   UNL     1       5.012  -7.209  27.057  0.00  0.00    -0.318 NA
ATOM     33  H   UNL     1       5.736  -6.681  26.567  0.00  0.00    +0.119 HD
ATOM     34  H   UNL     1       5.423  -7.498  27.954  0.00  0.00    +0.119 HD
ENDBRANCH  31  32
BRANCH  31  35
ATOM     35  C   UNL     1       3.900  -5.619  28.676  0.00  0.00    +0.150 C 
BRANCH  35  36
ATOM     36  C   UNL     1       5.153  -5.948  29.451  0.00  0.00    +0.307 C 
ATOM     37  O   UNL     1       6.208  -5.340  29.345  0.00  0.00    -0.251 OA
BRANCH  36  38
ATOM     38  O   UNL     1       4.992  -6.946  30.345  0.00  0.00    -0.481 OA
ATOM     39  H   UNL     1       4.473  -7.710  30.029  0.00  0.00    +0.295 HD
ENDBRANCH  36  38
ENDBRANCH  35  36
ENDBRANCH  31  35
ENDBRANCH  29  31
ENDBRANCH  28  29
ENDBRANCH  24  28
ENDBRANCH  23  24
ENDBRANCH  22  23
ENDBRANCH   1  22
TORSDOF 14
ENDMDL
MODEL 5
REMARK VINA RESULT:      -6.6      3.228      7.791
REMARK  Name = 
REMARK  14 active torsions:
REMARK  status: ('A' for Active; 'I' for Inactive)
REMARK    1  A    between atoms: N_1  and  C_2
REMARK    2  A    between atoms: C_2  and  C_4
REMARK    3  A    between atoms: C_2  and  C_8
REMARK    4  A    between atoms: C_4  and  C_5
REMARK    5  A    between atoms: C_5  and  O_6
REMARK    6  A    between atoms: C_8  and  O_10
REMARK    7  A    between atoms: O_10  and  P_11
REMARK    8  A    between atoms: P_11  and  O_12
REMARK    9  A    between atoms: P_11  and  O_14
REMARK   10  A    between atoms: O_14  and  C_15
REMARK   11  A    between atoms: C_15  and  C_16
REMARK   12  A    between atoms: C_19  and  N_27
REMARK   13  A    between atoms: C_21  and  O_23
REMARK   14  A    between atoms: C_24  and  O_26
REMARK                            x       y       z     vdW  Elec       q    Type
REMARK                         _______ _______ _______ _____ _____    ______ ____
ROOT
ATOM      1  C   UNL     1       8.793  -3.253  25.281  0.00  0.00    +0.178 C 
ATOM      2  C   UNL     1       9.257  -4.587  25.854  0.00  0.00    +0.178 C 
ATOM      3  C   UNL     1       7.984  -5.399  26.073  0.00  0.00    +0.195 C 
ATOM      4  C   UNL     1       6.861  -4.507  25.523  0.00  0.00    +0.253 C 
ATOM      5  O   UNL     1       7.498  -3.508  24.702  0.00  0.00    -0.346 OA
ENDROOT
BRANCH   4   6
ATOM      6  N   UNL     1       5.893  -5.246  24.730  0.00  0.00    -0.286 N 
ATOM      7  C   UNL     1       4.850  -5.969  25.246  0.00  0.00    +0.167 A 
ATOM      8  N   UNL     1       4.521  -6.129  26.541  0.00  0.00    -0.216 NA
ATOM      9  C   UNL     1       3.429  -6.919  26.654  0.00  0.00    +0.225 A 
ATOM     10  N   UNL     1       2.721  -7.524  25.676  0.00  0.00    -0.219 NA
ATOM     11  C   UNL     1       3.118  -7.354  24.395  0.00  0.00    +0.147 A 
ATOM     12  N   UNL     1       2.406  -7.997  23.391  0.00  0.00    -0.341 N 
ATOM     13  H   UNL     1       2.526  -7.577  22.476  0.00  0.00    +0.144 HD
ATOM     14  H   UNL     1       1.467  -8.242  23.679  0.00  0.00    +0.144 HD
ATOM     15  C   UNL     1       4.222  -6.522  24.143  0.00  0.00    +0.147 A 
ATOM     16  N   UNL     1       4.839  -6.121  22.976  0.00  0.00    -0.231 NA
ATOM     17  C   UNL     1       5.828  -5.342  23.367  0.00  0.00    +0.203 A 
ENDBRANCH   4   6
BRANCH   2  18
ATOM     18  O   UNL     1      10.090  -5.250  24.885  0.00  0.00    -0.386 OA
ATOM     19  H   UNL     1       9.585  -5.984  24.491  0.00  0.00    +0.210 HD
ENDBRANCH   2  18
BRANCH   3  20
ATOM     20  O   UNL     1       7.795  -5.704  27.459  0.00  0.00    -0.385 OA
ATOM     21  H   UNL     1       7.239  -6.510  27.481  0.00  0.00    +0.210 HD
ENDBRANCH   3  20
BRANCH   1  22
ATOM     22  C   UNL     1       8.719  -2.129  26.319  0.00  0.00    +0.207 C 
BRANCH  22  23
ATOM     23  O   UNL     1       7.651  -1.218  26.057  0.00  0.00    -0.274 OA
BRANCH  23  24
ATOM     24  P   UNL     1       8.197   0.312  25.462  0.00  0.00    +0.533 P 
ATOM     25  O   UNL     1       7.453   1.042  26.588  0.00  0.00    -0.215 OA
BRANCH  24  26
ATOM     26  O   UNL     1       9.695  -0.011  26.030  0.00  0.00    -0.293 OA
ATOM     27  H   UNL     1      10.401   0.139  25.379  0.00  0.00    +0.223 HD
ENDBRANCH  24  26
BRANCH  24  28
ATOM     28  O   UNL     1       8.741   1.843  24.866  0.00  0.00    -0.370 OA
BRANCH  28  29
ATOM     29  C   UNL     1       9.624   1.734  23.856  0.00  0.00    +0.332 C 
ATOM     30  O   UNL     1      10.833   1.861  24.017  0.00  0.00    -0.249 OA
BRANCH  29  31
ATOM     31  C   UNL     1       8.940   1.449  22.516  0.00  0.00    +0.172 C 
BRANCH  31  32
ATOM     32  N   UNL     1       8.700   2.742  21.839  0.00  0.00    -0.318 NA
ATOM     33  H   UNL     1       9.584   3.124  21.496  0.00  0.00    +0.119 HD
ATOM     34  H   UNL     1       8.115   2.580  21.010  0.00  0.00    +0.119 HD
ENDBRANCH  31  32
BRANCH  31  35
ATOM     35  C   UNL     1       9.811   0.476  21.713  0.00  0.00    +0.150 C 
BRANCH  35  36
ATOM     36  C   UNL     1       9.454  -0.967  21.976  0.00  0.00    +0.307 C 
ATOM     37  O   UNL     1       8.319  -1.369  22.184  0.00  0.00    -0.251 OA
BRANCH  36  38
ATOM     38  O   UNL     1      10.504  -1.810  21.891  0.00  0.00    -0.481 OA
ATOM     39  H   UNL     1      11.365  -1.388  21.704  0.00  0.00    +0.295 HD
ENDBRANCH  36  38
ENDBRANCH  35  36
ENDBRANCH  31  35
ENDBRANCH  29  31
ENDBRANCH  28  29
ENDBRANCH  24  28
ENDBRANCH  23  24
ENDBRANCH  22  23
ENDBRANCH   1  22
TORSDOF 14
ENDMDL
MODEL 6
REMARK VINA RESULT:      -6.5      3.458      8.506
REMARK  Name = 
REMARK  14 active torsions:
REMARK  status: ('A' for Active; 'I' for Inactive)
REMARK    1  A    between atoms: N_1  and  C_2
REMARK    2  A    between atoms: C_2  and  C_4
REMARK    3  A    between atoms: C_2  and  C_8
REMARK    4  A    between atoms: C_4  and  C_5
REMARK    5  A    between atoms: C_5  and  O_6
REMARK    6  A    between atoms: C_8  and  O_10
REMARK    7  A    between atoms: O_10  and  P_11
REMARK    8  A    between atoms: P_11  and  O_12
REMARK    9  A    between atoms: P_11  and  O_14
REMARK   10  A    between atoms: O_14  and  C_15
REMARK   11  A    between atoms: C_15  and  C_16
REMARK   12  A    between atoms: C_19  and  N_27
REMARK   13  A    between atoms: C_21  and  O_23
REMARK   14  A    between atoms: C_24  and  O_26
REMARK                            x       y       z     vdW  Elec       q    Type
REMARK                         _______ _______ _______ _____ _____    ______ ____
ROOT
ATOM      1  C   UNL     1       8.733  -3.345  25.454  0.00  0.00    +0.178 C 
ATOM      2  C   UNL     1       9.237  -4.677  25.998  0.00  0.00    +0.178 C 
ATOM      3  C   UNL     1       7.988  -5.529  26.205  0.00  0.00    +0.195 C 
ATOM      4  C   UNL     1       6.837  -4.658  25.679  0.00  0.00    +0.253 C 
ATOM      5  O   UNL     1       7.442  -3.624  24.875  0.00  0.00    -0.346 OA
ENDROOT
BRANCH   4   6
ATOM      6  N   UNL     1       5.887  -5.407  24.876  0.00  0.00    -0.286 N 
ATOM      7  C   UNL     1       4.773  -6.035  25.368  0.00  0.00    +0.167 A 
ATOM      8  N   UNL     1       4.348  -6.076  26.644  0.00  0.00    -0.216 NA
ATOM      9  C   UNL     1       3.209  -6.800  26.737  0.00  0.00    +0.225 A 
ATOM     10  N   UNL     1       2.537  -7.444  25.758  0.00  0.00    -0.219 NA
ATOM     11  C   UNL     1       3.029  -7.394  24.499  0.00  0.00    +0.147 A 
ATOM     12  N   UNL     1       2.352  -8.077  23.498  0.00  0.00    -0.341 N 
ATOM     13  H   UNL     1       2.557  -7.737  22.565  0.00  0.00    +0.144 HD
ATOM     14  H   UNL     1       1.384  -8.252  23.735  0.00  0.00    +0.144 HD
ATOM     15  C   UNL     1       4.192  -6.641  24.266  0.00  0.00    +0.147 A 
ATOM     16  N   UNL     1       4.908  -6.363  23.120  0.00  0.00    -0.231 NA
ATOM     17  C   UNL     1       5.909  -5.606  23.522  0.00  0.00    +0.203 A 
ENDBRANCH   4   6
BRANCH   2  18
ATOM     18  O   UNL     1      10.083  -5.297  25.012  0.00  0.00    -0.386 OA
ATOM     19  H   UNL     1      11.008  -5.236  25.312  0.00  0.00    +0.210 HD
ENDBRANCH   2  18
BRANCH   3  20
ATOM     20  O   UNL     1       7.815  -5.866  27.586  0.00  0.00    -0.385 OA
ATOM     21  H   UNL     1       7.358  -5.100  27.993  0.00  0.00    +0.210 HD
ENDBRANCH   3  20
BRANCH   1  22
ATOM     22  C   UNL     1       8.633  -2.245  26.515  0.00  0.00    +0.207 C 
BRANCH  22  23
ATOM     23  O   UNL     1       7.898  -1.112  26.052  0.00  0.00    -0.274 OA
BRANCH  23  24
ATOM     24  P   UNL     1       8.664  -0.301  24.729  0.00  0.00    +0.533 P 
ATOM     25  O   UNL     1       7.364  -0.352  23.915  0.00  0.00    -0.215 OA
BRANCH  24  26
ATOM     26  O   UNL     1       8.627   1.097  25.576  0.00  0.00    -0.293 OA
ATOM     27  H   UNL     1       7.742   1.493  25.638  0.00  0.00    +0.223 HD
ENDBRANCH  24  26
BRANCH  24  28
ATOM     28  O   UNL     1       9.430   0.508  23.406  0.00  0.00    -0.370 OA
BRANCH  28  29
ATOM     29  C   UNL     1      10.481   1.261  23.782  0.00  0.00    +0.332 C 
ATOM     30  O   UNL     1      11.257   0.918  24.667  0.00  0.00    -0.249 OA
BRANCH  29  31
ATOM     31  C   UNL     1      10.574   2.566  22.988  0.00  0.00    +0.172 C 
BRANCH  31  32
ATOM     32  N   UNL     1       9.982   2.333  21.652  0.00  0.00    -0.318 NA
ATOM     33  H   UNL     1       9.848   3.224  21.171  0.00  0.00    +0.119 HD
ATOM     34  H   UNL     1      10.648   1.795  21.082  0.00  0.00    +0.119 HD
ENDBRANCH  31  32
BRANCH  31  35
ATOM     35  C   UNL     1       9.891   3.682  23.786  0.00  0.00    +0.150 C 
BRANCH  35  36
ATOM     36  C   UNL     1       8.461   3.904  23.356  0.00  0.00    +0.307 C 
ATOM     37  O   UNL     1       7.516   3.228  23.732  0.00  0.00    -0.251 OA
BRANCH  36  38
ATOM     38  O   UNL     1       8.296   4.981  22.559  0.00  0.00    -0.481 OA
ATOM     39  H   UNL     1       8.685   5.812  22.893  0.00  0.00    +0.295 HD
ENDBRANCH  36  38
ENDBRANCH  35  36
ENDBRANCH  31  35
ENDBRANCH  29  31
ENDBRANCH  28  29
ENDBRANCH  24  28
ENDBRANCH  23  24
ENDBRANCH  22  23
ENDBRANCH   1  22
TORSDOF 14
ENDMDL
MODEL 7
REMARK VINA RESULT:      -6.5      4.300      8.656
REMARK  Name = 
REMARK  14 active torsions:
REMARK  status: ('A' for Active; 'I' for Inactive)
REMARK    1  A    between atoms: N_1  and  C_2
REMARK    2  A    between atoms: C_2  and  C_4
REMARK    3  A    between atoms: C_2  and  C_8
REMARK    4  A    between atoms: C_4  and  C_5
REMARK    5  A    between atoms: C_5  and  O_6
REMARK    6  A    between atoms: C_8  and  O_10
REMARK    7  A    between atoms: O_10  and  P_11
REMARK    8  A    between atoms: P_11  and  O_12
REMARK    9  A    between atoms: P_11  and  O_14
REMARK   10  A    between atoms: O_14  and  C_15
REMARK   11  A    between atoms: C_15  and  C_16
REMARK   12  A    between atoms: C_19  and  N_27
REMARK   13  A    between atoms: C_21  and  O_23
REMARK   14  A    between atoms: C_24  and  O_26
REMARK                            x       y       z     vdW  Elec       q    Type
REMARK                         _______ _______ _______ _____ _____    ______ ____
ROOT
ATOM      1  C   UNL     1       8.113  -1.148  23.263  0.00  0.00    +0.178 C 
ATOM      2  C   UNL     1       6.616  -1.007  23.005  0.00  0.00    +0.178 C 
ATOM      3  C   UNL     1       6.025  -2.384  23.292  0.00  0.00    +0.195 C 
ATOM      4  C   UNL     1       7.216  -3.218  23.789  0.00  0.00    +0.253 C 
ATOM      5  O   UNL     1       8.251  -2.279  24.146  0.00  0.00    -0.346 OA
ENDROOT
BRANCH   4   6
ATOM      6  N   UNL     1       6.885  -4.041  24.940  0.00  0.00    -0.286 N 
ATOM      7  C   UNL     1       6.032  -5.113  24.915  0.00  0.00    +0.167 A 
ATOM      8  N   UNL     1       5.362  -5.605  23.857  0.00  0.00    -0.216 NA
ATOM      9  C   UNL     1       4.614  -6.669  24.229  0.00  0.00    +0.225 A 
ATOM     10  N   UNL     1       4.477  -7.215  25.457  0.00  0.00    -0.219 NA
ATOM     11  C   UNL     1       5.151  -6.658  26.488  0.00  0.00    +0.147 A 
ATOM     12  N   UNL     1       4.989  -7.203  27.755  0.00  0.00    -0.341 N 
ATOM     13  H   UNL     1       5.746  -6.979  28.392  0.00  0.00    +0.144 HD
ATOM     14  H   UNL     1       4.664  -8.161  27.725  0.00  0.00    +0.144 HD
ATOM     15  C   UNL     1       5.992  -5.565  26.223  0.00  0.00    +0.147 A 
ATOM     16  N   UNL     1       6.826  -4.815  27.026  0.00  0.00    -0.231 NA
ATOM     17  C   UNL     1       7.358  -3.919  26.218  0.00  0.00    +0.203 A 
ENDBRANCH   4   6
BRANCH   2  18
ATOM     18  O   UNL     1       6.069  -0.048  23.927  0.00  0.00    -0.386 OA
ATOM     19  H   UNL     1       5.118   0.056  23.741  0.00  0.00    +0.210 HD
ENDBRANCH   2  18
BRANCH   3  20
ATOM     20  O   UNL     1       5.431  -2.948  22.118  0.00  0.00    -0.385 OA
ATOM     21  H   UNL     1       4.546  -3.269  22.394  0.00  0.00    +0.210 HD
ENDBRANCH   3  20
BRANCH   1  22
ATOM     22  C   UNL     1       8.942  -1.340  21.990  0.00  0.00    +0.207 C 
BRANCH  22  23
ATOM     23  O   UNL     1       9.525  -0.120  21.534  0.00  0.00    -0.274 OA
BRANCH  23  24
ATOM     24  P   UNL     1       9.748   1.039  22.799  0.00  0.00    +0.533 P 
ATOM     25  O   UNL     1      10.998   0.299  23.290  0.00  0.00    -0.215 OA
BRANCH  24  26
ATOM     26  O   UNL     1      10.260   2.132  21.696  0.00  0.00    -0.293 OA
ATOM     27  H   UNL     1      11.036   2.641  21.981  0.00  0.00    +0.223 HD
ENDBRANCH  24  26
BRANCH  24  28
ATOM     28  O   UNL     1       9.970   2.198  24.065  0.00  0.00    -0.370 OA
BRANCH  28  29
ATOM     29  C   UNL     1       8.819   2.552  24.667  0.00  0.00    +0.332 C 
ATOM     30  O   UNL     1       8.128   1.756  25.293  0.00  0.00    -0.249 OA
BRANCH  29  31
ATOM     31  C   UNL     1       8.491   4.034  24.466  0.00  0.00    +0.172 C 
BRANCH  31  32
ATOM     32  N   UNL     1       9.480   4.599  23.521  0.00  0.00    -0.318 NA
ATOM     33  H   UNL     1      10.228   5.064  24.038  0.00  0.00    +0.119 HD
ATOM     34  H   UNL     1       9.922   3.829  23.003  0.00  0.00    +0.119 HD
ENDBRANCH  31  32
BRANCH  31  35
ATOM     35  C   UNL     1       7.037   4.161  23.997  0.00  0.00    +0.150 C 
BRANCH  35  36
ATOM     36  C   UNL     1       6.844   3.668  22.583  0.00  0.00    +0.307 C 
ATOM     37  O   UNL     1       6.296   2.617  22.289  0.00  0.00    -0.251 OA
BRANCH  36  38
ATOM     38  O   UNL     1       7.272   4.537  21.643  0.00  0.00    -0.481 OA
ATOM     39  H   UNL     1       8.216   4.464  21.406  0.00  0.00    +0.295 HD
ENDBRANCH  36  38
ENDBRANCH  35  36
ENDBRANCH  31  35
ENDBRANCH  29  31
ENDBRANCH  28  29
ENDBRANCH  24  28
ENDBRANCH  23  24
ENDBRANCH  22  23
ENDBRANCH   1  22
TORSDOF 14
ENDMDL
MODEL 8
REMARK VINA RESULT:      -6.4      5.014      9.653
REMARK  Name = 
REMARK  14 active torsions:
REMARK  status: ('A' for Active; 'I' for Inactive)
REMARK    1  A    between atoms: N_1  and  C_2
REMARK    2  A    between atoms: C_2  and  C_4
REMARK    3  A    between atoms: C_2  and  C_8
REMARK    4  A    between atoms: C_4  and  C_5
REMARK    5  A    between atoms: C_5  and  O_6
REMARK    6  A    between atoms: C_8  and  O_10
REMARK    7  A    between atoms: O_10  and  P_11
REMARK    8  A    between atoms: P_11  and  O_12
REMARK    9  A    between atoms: P_11  and  O_14
REMARK   10  A    between atoms: O_14  and  C_15
REMARK   11  A    between atoms: C_15  and  C_16
REMARK   12  A    between atoms: C_19  and  N_27
REMARK   13  A    between atoms: C_21  and  O_23
REMARK   14  A    between atoms: C_24  and  O_26
REMARK                            x       y       z     vdW  Elec       q    Type
REMARK                         _______ _______ _______ _____ _____    ______ ____
ROOT
ATOM      1  C   UNL     1       9.036  -0.544  23.479  0.00  0.00    +0.178 C 
ATOM      2  C   UNL     1       9.959  -1.703  23.119  0.00  0.00    +0.178 C 
ATOM      3  C   UNL     1       9.184  -2.966  23.481  0.00  0.00    +0.195 C 
ATOM      4  C   UNL     1       7.813  -2.454  23.950  0.00  0.00    +0.253 C 
ATOM      5  O   UNL     1       7.704  -1.094  23.483  0.00  0.00    -0.346 OA
ENDROOT
BRANCH   4   6
ATOM      6  N   UNL     1       6.709  -3.240  23.425  0.00  0.00    -0.286 N 
ATOM      7  C   UNL     1       6.154  -4.323  24.054  0.00  0.00    +0.167 A 
ATOM      8  N   UNL     1       6.501  -4.851  25.242  0.00  0.00    -0.216 NA
ATOM      9  C   UNL     1       5.723  -5.921  25.526  0.00  0.00    +0.225 A 
ATOM     10  N   UNL     1       4.738  -6.469  24.781  0.00  0.00    -0.219 NA
ATOM     11  C   UNL     1       4.455  -5.914  23.580  0.00  0.00    +0.147 A 
ATOM     12  N   UNL     1       3.461  -6.493  22.803  0.00  0.00    -0.341 N 
ATOM     13  H   UNL     1       3.071  -5.864  22.109  0.00  0.00    +0.144 HD
ATOM     14  H   UNL     1       2.817  -7.049  23.351  0.00  0.00    +0.144 HD
ATOM     15  C   UNL     1       5.172  -4.772  23.187  0.00  0.00    +0.147 A 
ATOM     16  N   UNL     1       5.099  -3.965  22.070  0.00  0.00    -0.231 NA
ATOM     17  C   UNL     1       6.026  -3.047  22.256  0.00  0.00    +0.203 A 
ENDBRANCH   4   6
BRANCH   2  18
ATOM     18  O   UNL     1      10.208  -1.682  21.702  0.00  0.00    -0.386 OA
ATOM     19  H   UNL     1      10.873  -2.362  21.491  0.00  0.00    +0.210 HD
ENDBRANCH   2  18
BRANCH   3  20
ATOM     20  O   UNL     1       9.854  -3.711  24.503  0.00  0.00    -0.385 OA
ATOM     21  H   UNL     1       9.512  -4.627  24.435  0.00  0.00    +0.210 HD
ENDBRANCH   3  20
BRANCH   1  22
ATOM     22  C   UNL     1       9.365   0.108  24.825  0.00  0.00    +0.207 C 
BRANCH  22  23
ATOM     23  O   UNL     1       8.419   1.116  25.184  0.00  0.00    -0.274 OA
BRANCH  23  24
ATOM     24  P   UNL     1       8.604   2.575  24.273  0.00  0.00    +0.533 P 
ATOM     25  O   UNL     1       7.304   2.292  23.509  0.00  0.00    -0.215 OA
BRANCH  24  26
ATOM     26  O   UNL     1       8.186   3.442  25.595  0.00  0.00    -0.293 OA
ATOM     27  H   UNL     1       7.856   4.333  25.390  0.00  0.00    +0.223 HD
ENDBRANCH  24  26
BRANCH  24  28
ATOM     28  O   UNL     1       8.790   4.034  23.362  0.00  0.00    -0.370 OA
BRANCH  28  29
ATOM     29  C   UNL     1       9.674   4.891  23.907  0.00  0.00    +0.332 C 
ATOM     30  O   UNL     1       9.335   5.947  24.430  0.00  0.00    -0.249 OA
BRANCH  29  31
ATOM     31  C   UNL     1      11.116   4.392  23.786  0.00  0.00    +0.172 C 
BRANCH  31  32
ATOM     32  N   UNL     1      11.199   3.514  22.598  0.00  0.00    -0.318 NA
ATOM     33  H   UNL     1      10.473   2.797  22.644  0.00  0.00    +0.119 HD
ATOM     34  H   UNL     1      11.001   4.072  21.757  0.00  0.00    +0.119 HD
ENDBRANCH  31  32
BRANCH  31  35
ATOM     35  C   UNL     1      12.057   5.601  23.736  0.00  0.00    +0.150 C 
BRANCH  35  36
ATOM     36  C   UNL     1      13.183   5.412  22.749  0.00  0.00    +0.307 C 
ATOM     37  O   UNL     1      13.138   5.757  21.578  0.00  0.00    -0.251 OA
BRANCH  36  38
ATOM     38  O   UNL     1      14.299   4.883  23.294  0.00  0.00    -0.481 OA
ATOM     39  H   UNL     1      14.264   3.923  23.470  0.00  0.00    +0.295 HD
ENDBRANCH  36  38
ENDBRANCH  35  36
ENDBRANCH  31  35
ENDBRANCH  29  31
ENDBRANCH  28  29
ENDBRANCH  24  28
ENDBRANCH  23  24
ENDBRANCH  22  23
ENDBRANCH   1  22
TORSDOF 14
ENDMDL
MODEL 9
REMARK VINA RESULT:      -6.4      3.348      8.446
REMARK  Name = 
REMARK  14 active torsions:
REMARK  status: ('A' for Active; 'I' for Inactive)
REMARK    1  A    between atoms: N_1  and  C_2
REMARK    2  A    between atoms: C_2  and  C_4
REMARK    3  A    between atoms: C_2  and  C_8
REMARK    4  A    between atoms: C_4  and  C_5
REMARK    5  A    between atoms: C_5  and  O_6
REMARK    6  A    between atoms: C_8  and  O_10
REMARK    7  A    between atoms: O_10  and  P_11
REMARK    8  A    between atoms: P_11  and  O_12
REMARK    9  A    between atoms: P_11  and  O_14
REMARK   10  A    between atoms: O_14  and  C_15
REMARK   11  A    between atoms: C_15  and  C_16
REMARK   12  A    between atoms: C_19  and  N_27
REMARK   13  A    between atoms: C_21  and  O_23
REMARK   14  A    between atoms: C_24  and  O_26
REMARK                            x       y       z     vdW  Elec       q    Type
REMARK                         _______ _______ _______ _____ _____    ______ ____
ROOT
ATOM      1  C   UNL     1       5.981  -3.456  22.059  0.00  0.00    +0.178 C 
ATOM      2  C   UNL     1       6.770  -4.681  21.609  0.00  0.00    +0.178 C 
ATOM      3  C   UNL     1       6.929  -5.542  22.859  0.00  0.00    +0.195 C 
ATOM      4  C   UNL     1       6.138  -4.794  23.943  0.00  0.00    +0.253 C 
ATOM      5  O   UNL     1       5.283  -3.860  23.253  0.00  0.00    -0.346 OA
ENDROOT
BRANCH   4   6
ATOM      6  N   UNL     1       5.330  -5.681  24.762  0.00  0.00    -0.286 N 
ATOM      7  C   UNL     1       4.146  -6.247  24.367  0.00  0.00    +0.167 A 
ATOM      8  N   UNL     1       3.522  -6.106  23.183  0.00  0.00    -0.216 NA
ATOM      9  C   UNL     1       2.372  -6.817  23.172  0.00  0.00    +0.225 A 
ATOM     10  N   UNL     1       1.833  -7.566  24.159  0.00  0.00    -0.219 NA
ATOM     11  C   UNL     1       2.490  -7.645  25.338  0.00  0.00    +0.147 A 
ATOM     12  N   UNL     1       1.923  -8.393  26.361  0.00  0.00    -0.341 N 
ATOM     13  H   UNL     1       2.591  -8.688  27.066  0.00  0.00    +0.144 HD
ATOM     14  H   UNL     1       1.263  -9.080  26.019  0.00  0.00    +0.144 HD
ATOM     15  C   UNL     1       3.719  -6.977  25.464  0.00  0.00    +0.147 A 
ATOM     16  N   UNL     1       4.633  -6.894  26.494  0.00  0.00    -0.231 NA
ATOM     17  C   UNL     1       5.595  -6.121  26.031  0.00  0.00    +0.203 A 
ENDBRANCH   4   6
BRANCH   2  18
ATOM     18  O   UNL     1       6.002  -5.399  20.626  0.00  0.00    -0.386 OA
ATOM     19  H   UNL     1       6.615  -5.877  20.039  0.00  0.00    +0.210 HD
ENDBRANCH   2  18
BRANCH   3  20
ATOM     20  O   UNL     1       8.309  -5.692  23.212  0.00  0.00    -0.385 OA
ATOM     21  H   UNL     1       8.314  -6.138  24.085  0.00  0.00    +0.210 HD
ENDBRANCH   3  20
BRANCH   1  22
ATOM     22  C   UNL     1       6.854  -2.225  22.322  0.00  0.00    +0.207 C 
BRANCH  22  23
ATOM     23  O   UNL     1       8.247  -2.516  22.216  0.00  0.00    -0.274 OA
BRANCH  23  24
ATOM     24  P   UNL     1       9.198  -1.733  23.431  0.00  0.00    +0.533 P 
ATOM     25  O   UNL     1       9.780  -3.080  23.878  0.00  0.00    -0.215 OA
BRANCH  24  26
ATOM     26  O   UNL     1      10.195  -1.160  22.269  0.00  0.00    -0.293 OA
ATOM     27  H   UNL     1      10.457  -0.234  22.399  0.00  0.00    +0.223 HD
ENDBRANCH  24  26
BRANCH  24  28
ATOM     28  O   UNL     1      10.148  -0.950  24.647  0.00  0.00    -0.370 OA
BRANCH  28  29
ATOM     29  C   UNL     1      10.224   0.384  24.482  0.00  0.00    +0.332 C 
ATOM     30  O   UNL     1      11.290   0.975  24.355  0.00  0.00    -0.249 OA
BRANCH  29  31
ATOM     31  C   UNL     1       8.845   1.049  24.481  0.00  0.00    +0.172 C 
BRANCH  31  32
ATOM     32  N   UNL     1       8.442   1.270  25.888  0.00  0.00    -0.318 NA
ATOM     33  H   UNL     1       7.472   0.979  26.021  0.00  0.00    +0.119 HD
ATOM     34  H   UNL     1       9.011   0.667  26.496  0.00  0.00    +0.119 HD
ENDBRANCH  31  32
BRANCH  31  35
ATOM     35  C   UNL     1       8.911   2.330  23.643  0.00  0.00    +0.150 C 
BRANCH  35  36
ATOM     36  C   UNL     1       8.848   2.050  22.160  0.00  0.00    +0.307 C 
ATOM     37  O   UNL     1       7.811   1.955  21.521  0.00  0.00    -0.251 OA
BRANCH  36  38
ATOM     38  O   UNL     1      10.059   1.984  21.569  0.00  0.00    -0.481 OA
ATOM     39  H   UNL     1      10.641   1.267  21.887  0.00  0.00    +0.295 HD
ENDBRANCH  36  38
ENDBRANCH  35  36
ENDBRANCH  31  35
ENDBRANCH  29  31
ENDBRANCH  28  29
ENDBRANCH  24  28
ENDBRANCH  23  24
ENDBRANCH  22  23
ENDBRANCH   1  22
TORSDOF 14
ENDMDL
