MODEL 1
REMARK VINA RESULT:      -4.0      0.000      0.000
REMARK  Name = 
REMARK  47 active torsions:
REMARK  status: ('A' for Active; 'I' for Inactive)
REMARK    1  A    between atoms: C_1  and  C_2
REMARK    2  A    between atoms: C_2  and  C_3
REMARK    3  A    between atoms: C_3  and  C_4
REMARK    4  A    between atoms: C_4  and  C_5
REMARK    5  A    between atoms: C_5  and  C_6
REMARK    6  A    between atoms: C_6  and  C_7
REMARK    7  A    between atoms: C_7  and  C_8
REMARK    8  A    between atoms: C_8  and  C_9
REMARK    9  A    between atoms: C_9  and  C_10
REMARK   10  A    between atoms: C_10  and  C_11
REMARK   11  A    between atoms: C_11  and  C_12
REMARK   12  A    between atoms: C_12  and  C_13
REMARK   13  A    between atoms: C_13  and  C_14
REMARK   14  A    between atoms: C_14  and  C_15
REMARK   15  A    between atoms: C_15  and  C_16
REMARK   16  A    between atoms: C_16  and  C_17
REMARK   17  A    between atoms: C_17  and  C_18
REMARK   18  A    between atoms: C_18  and  O_20
REMARK   19  A    between atoms: O_20  and  C_21
REMARK   20  A    between atoms: C_21  and  C_22
REMARK   21  A    between atoms: C_22  and  C_24
REMARK   22  A    between atoms: C_22  and  O_36
REMARK   23  A    between atoms: C_24  and  O_25
REMARK   24  A    between atoms: O_25  and  P_26
REMARK   25  A    between atoms: P_26  and  O_27
REMARK   26  A    between atoms: P_26  and  O_29
REMARK   27  A    between atoms: O_29  and  C_30
REMARK   28  A    between atoms: C_30  and  C_31
REMARK   29  A    between atoms: C_31  and  N_32
REMARK   30  A    between atoms: O_36  and  C_37
REMARK   31  A    between atoms: C_37  and  C_39
REMARK   32  A    between atoms: C_39  and  C_40
REMARK   33  A    between atoms: C_40  and  C_41
REMARK   34  A    between atoms: C_41  and  C_42
REMARK   35  A    between atoms: C_42  and  C_43
REMARK   36  A    between atoms: C_43  and  C_44
REMARK   37  A    between atoms: C_44  and  C_45
REMARK   38  A    between atoms: C_45  and  C_46
REMARK   39  A    between atoms: C_46  and  C_47
REMARK   40  A    between atoms: C_47  and  C_48
REMARK   41  A    between atoms: C_48  and  C_49
REMARK   42  A    between atoms: C_49  and  C_50
REMARK   43  A    between atoms: C_50  and  C_51
REMARK   44  A    between atoms: C_51  and  C_52
REMARK   45  A    between atoms: C_52  and  C_53
REMARK   46  A    between atoms: C_53  and  C_54
REMARK   47  A    between atoms: C_54  and  C_55
REMARK                            x       y       z     vdW  Elec       q    Type
REMARK                         _______ _______ _______ _____ _____    ______ ____
ROOT
ATOM      1  C   UNL     1       5.140  -1.557  27.727  0.00  0.00    +0.240 C 
ENDROOT
BRANCH   1   2
ATOM      2  C   UNL     1       4.737  -3.043  27.705  0.00  0.00    +0.220 C 
BRANCH   2   3
ATOM      3  O   UNL     1       5.904  -3.848  27.448  0.00  0.00    -0.283 OA
BRANCH   3   4
ATOM      4  P   UNL     1       5.933  -5.441  27.910  0.00  0.00    +0.475 P 
ATOM      5  O   UNL     1       6.319  -5.480  29.382  0.00  0.00    -0.227 OA
BRANCH   4   6
ATOM      6  O   UNL     1       4.275  -5.371  28.396  0.00  0.00    -0.302 OA
ATOM      7  H   UNL     1       3.779  -5.715  27.622  0.00  0.00    +0.222 HD
ENDBRANCH   4   6
BRANCH   4   8
ATOM      8  O   UNL     1       7.591  -5.511  27.422  0.00  0.00    -0.281 OA
BRANCH   8   9
ATOM      9  C   UNL     1       8.122  -4.509  26.596  0.00  0.00    +0.223 C 
BRANCH   9  10
ATOM     10  C   UNL     1       8.748  -5.214  25.420  0.00  0.00    +0.156 C 
BRANCH  10  11
ATOM     11  N   UNL     1      10.156  -5.591  25.703  0.00  0.00    +0.220 N 
ATOM     12  H   UNL     1      10.594  -4.990  26.410  0.00  0.00    +0.199 HD
ATOM     13  H   UNL     1      10.753  -5.582  24.871  0.00  0.00    +0.199 HD
ATOM     14  H   UNL     1      10.181  -6.558  26.075  0.00  0.00    +0.199 HD
ENDBRANCH  10  11
ENDBRANCH   9  10
ENDBRANCH   8   9
ENDBRANCH   4   8
ENDBRANCH   3   4
ENDBRANCH   2   3
ENDBRANCH   1   2
BRANCH   1  15
ATOM     15  C   UNL     1       3.924  -0.629  27.915  0.00  0.00    +0.279 C 
BRANCH  15  16
ATOM     16  O   UNL     1       3.559   0.017  26.671  0.00  0.00    -0.461 OA
BRANCH  16  17
ATOM     17  C   UNL     1       3.200   1.318  26.778  0.00  0.00    +0.307 C 
ATOM     18  O   UNL     1       2.232   1.832  26.233  0.00  0.00    -0.251 OA
BRANCH  17  19
ATOM     19  C   UNL     1       4.147   2.056  27.703  0.00  0.00    +0.120 C 
BRANCH  19  20
ATOM     20  C   UNL     1       4.438   3.454  27.188  0.00  0.00    +0.011 C 
BRANCH  20  21
ATOM     21  C   UNL     1       5.902   3.835  27.410  0.00  0.00    +0.001 C 
BRANCH  21  22
ATOM     22  C   UNL     1       6.389   4.758  26.296  0.00  0.00    +0.000 C 
BRANCH  22  23
ATOM     23  C   UNL     1       7.704   4.274  25.690  0.00  0.00    +0.000 C 
BRANCH  23  24
ATOM     24  C   UNL     1       8.689   5.435  25.570  0.00  0.00    +0.000 C 
BRANCH  24  25
ATOM     25  C   UNL     1       9.268   5.526  24.162  0.00  0.00    -0.000 C 
BRANCH  25  26
ATOM     26  C   UNL     1       8.529   6.580  23.343  0.00  0.00    -0.000 C 
BRANCH  26  27
ATOM     27  C   UNL     1       7.760   5.937  22.194  0.00  0.00    -0.000 C 
BRANCH  27  28
ATOM     28  C   UNL     1       6.329   6.462  22.133  0.00  0.00    -0.000 C 
BRANCH  28  29
ATOM     29  C   UNL     1       5.929   7.095  23.461  0.00  0.00    -0.000 C 
BRANCH  29  30
ATOM     30  C   UNL     1       4.522   6.669  23.866  0.00  0.00    -0.000 C 
BRANCH  30  31
ATOM     31  C   UNL     1       4.179   5.308  23.271  0.00  0.00    -0.000 C 
BRANCH  31  32
ATOM     32  C   UNL     1       2.990   4.678  23.990  0.00  0.00    -0.000 C 
BRANCH  32  33
ATOM     33  C   UNL     1       2.436   3.499  23.195  0.00  0.00    -0.000 C 
BRANCH  33  35
ATOM     34  C   UNL     1       1.787   3.834  20.791  0.00  0.00    +0.004 C 
ATOM     35  C   UNL     1       2.925   3.529  21.750  0.00  0.00    -0.003 C 
ENDBRANCH  33  35
ENDBRANCH  32  33
ENDBRANCH  31  32
ENDBRANCH  30  31
ENDBRANCH  29  30
ENDBRANCH  28  29
ENDBRANCH  27  28
ENDBRANCH  26  27
ENDBRANCH  25  26
ENDBRANCH  24  25
ENDBRANCH  23  24
ENDBRANCH  22  23
ENDBRANCH  21  22
ENDBRANCH  20  21
ENDBRANCH  19  20
ENDBRANCH  17  19
ENDBRANCH  16  17
ENDBRANCH  15  16
ENDBRANCH   1  15
BRANCH   1  36
ATOM     36  O   UNL     1       5.773  -1.226  26.461  0.00  0.00    -0.456 OA
BRANCH  36  37
ATOM     37  C   UNL     1       6.960  -0.568  26.556  0.00  0.00    +0.308 C 
ATOM     38  O   UNL     1       7.974  -1.035  27.060  0.00  0.00    -0.251 OA
BRANCH  37  39
ATOM     39  C   UNL     1       6.915   0.773  25.868  0.00  0.00    +0.120 C 
BRANCH  39  40
ATOM     40  C   UNL     1       6.211   0.638  24.515  0.00  0.00    +0.011 C 
BRANCH  40  41
ATOM     41  C   UNL     1       5.653   1.961  23.987  0.00  0.00    +0.001 C 
BRANCH  41  42
ATOM     42  C   UNL     1       6.302   2.406  22.676  0.00  0.00    +0.000 C 
BRANCH  42  43
ATOM     43  C   UNL     1       7.529   1.558  22.360  0.00  0.00    +0.000 C 
BRANCH  43  44
ATOM     44  C   UNL     1       8.728   2.407  21.950  0.00  0.00    +0.000 C 
BRANCH  44  45
ATOM     45  C   UNL     1      10.039   1.911  22.565  0.00  0.00    -0.000 C 
BRANCH  45  46
ATOM     46  C   UNL     1       9.872   1.716  24.073  0.00  0.00    -0.000 C 
BRANCH  46  47
ATOM     47  C   UNL     1      10.505   0.415  24.563  0.00  0.00    -0.000 C 
BRANCH  47  48
ATOM     48  C   UNL     1      10.487  -0.636  23.451  0.00  0.00    -0.000 C 
BRANCH  48  49
ATOM     49  C   UNL     1       9.833  -1.933  23.917  0.00  0.00    -0.000 C 
BRANCH  49  50
ATOM     50  C   UNL     1       8.335  -1.932  23.615  0.00  0.00    -0.000 C 
BRANCH  50  51
ATOM     51  C   UNL     1       8.050  -2.589  22.266  0.00  0.00    -0.000 C 
BRANCH  51  52
ATOM     52  C   UNL     1       6.715  -3.332  22.284  0.00  0.00    -0.000 C 
BRANCH  52  53
ATOM     53  C   UNL     1       5.886  -2.932  23.504  0.00  0.00    -0.000 C 
BRANCH  53  54
ATOM     54  C   UNL     1       4.704  -3.876  23.704  0.00  0.00    -0.003 C 
ATOM     55  C   UNL     1       5.173  -5.276  24.066  0.00  0.00    +0.004 C 
ENDBRANCH  53  54
ENDBRANCH  52  53
ENDBRANCH  51  52
ENDBRANCH  50  51
ENDBRANCH  49  50
ENDBRANCH  48  49
ENDBRANCH  47  48
ENDBRANCH  46  47
ENDBRANCH  45  46
ENDBRANCH  44  45
ENDBRANCH  43  44
ENDBRANCH  42  43
ENDBRANCH  41  42
ENDBRANCH  40  41
ENDBRANCH  39  40
ENDBRANCH  37  39
ENDBRANCH  36  37
ENDBRANCH   1  36
TORSDOF 45
ENDMDL
MODEL 2
REMARK VINA RESULT:      -4.0      2.123      4.110
REMARK  Name = 
REMARK  47 active torsions:
REMARK  status: ('A' for Active; 'I' for Inactive)
REMARK    1  A    between atoms: C_1  and  C_2
REMARK    2  A    between atoms: C_2  and  C_3
REMARK    3  A    between atoms: C_3  and  C_4
REMARK    4  A    between atoms: C_4  and  C_5
REMARK    5  A    between atoms: C_5  and  C_6
REMARK    6  A    between atoms: C_6  and  C_7
REMARK    7  A    between atoms: C_7  and  C_8
REMARK    8  A    between atoms: C_8  and  C_9
REMARK    9  A    between atoms: C_9  and  C_10
REMARK   10  A    between atoms: C_10  and  C_11
REMARK   11  A    between atoms: C_11  and  C_12
REMARK   12  A    between atoms: C_12  and  C_13
REMARK   13  A    between atoms: C_13  and  C_14
REMARK   14  A    between atoms: C_14  and  C_15
REMARK   15  A    between atoms: C_15  and  C_16
REMARK   16  A    between atoms: C_16  and  C_17
REMARK   17  A    between atoms: C_17  and  C_18
REMARK   18  A    between atoms: C_18  and  O_20
REMARK   19  A    between atoms: O_20  and  C_21
REMARK   20  A    between atoms: C_21  and  C_22
REMARK   21  A    between atoms: C_22  and  C_24
REMARK   22  A    between atoms: C_22  and  O_36
REMARK   23  A    between atoms: C_24  and  O_25
REMARK   24  A    between atoms: O_25  and  P_26
REMARK   25  A    between atoms: P_26  and  O_27
REMARK   26  A    between atoms: P_26  and  O_29
REMARK   27  A    between atoms: O_29  and  C_30
REMARK   28  A    between atoms: C_30  and  C_31
REMARK   29  A    between atoms: C_31  and  N_32
REMARK   30  A    between atoms: O_36  and  C_37
REMARK   31  A    between atoms: C_37  and  C_39
REMARK   32  A    between atoms: C_39  and  C_40
REMARK   33  A    between atoms: C_40  and  C_41
REMARK   34  A    between atoms: C_41  and  C_42
REMARK   35  A    between atoms: C_42  and  C_43
REMARK   36  A    between atoms: C_43  and  C_44
REMARK   37  A    between atoms: C_44  and  C_45
REMARK   38  A    between atoms: C_45  and  C_46
REMARK   39  A    between atoms: C_46  and  C_47
REMARK   40  A    between atoms: C_47  and  C_48
REMARK   41  A    between atoms: C_48  and  C_49
REMARK   42  A    between atoms: C_49  and  C_50
REMARK   43  A    between atoms: C_50  and  C_51
REMARK   44  A    between atoms: C_51  and  C_52
REMARK   45  A    between atoms: C_52  and  C_53
REMARK   46  A    between atoms: C_53  and  C_54
REMARK   47  A    between atoms: C_54  and  C_55
REMARK                            x       y       z     vdW  Elec       q    Type
REMARK                         _______ _______ _______ _____ _____    ______ ____
ROOT
ATOM      1  C   UNL     1       4.772  -4.460  27.335  0.00  0.00    +0.240 C 
ENDROOT
BRANCH   1   2
ATOM      2  C   UNL     1       3.563  -4.939  26.511  0.00  0.00    +0.220 C 
BRANCH   2   3
ATOM      3  O   UNL     1       3.967  -5.128  25.141  0.00  0.00    -0.283 OA
BRANCH   3   4
ATOM      4  P   UNL     1       3.144  -4.365  23.919  0.00  0.00    +0.475 P 
ATOM      5  O   UNL     1       2.014  -5.290  23.487  0.00  0.00    -0.227 OA
BRANCH   4   6
ATOM      6  O   UNL     1       2.054  -3.642  25.050  0.00  0.00    -0.302 OA
ATOM      7  H   UNL     1       1.936  -4.326  25.745  0.00  0.00    +0.222 HD
ENDBRANCH   4   6
BRANCH   4   8
ATOM      8  O   UNL     1       4.235  -5.087  22.787  0.00  0.00    -0.281 OA
BRANCH   8   9
ATOM      9  C   UNL     1       5.376  -4.386  22.368  0.00  0.00    +0.223 C 
BRANCH   9  10
ATOM     10  C   UNL     1       6.209  -5.363  21.578  0.00  0.00    +0.156 C 
BRANCH  10  11
ATOM     11  N   UNL     1       6.031  -6.750  22.076  0.00  0.00    +0.220 N 
ATOM     12  H   UNL     1       6.217  -7.459  21.357  0.00  0.00    +0.199 HD
ATOM     13  H   UNL     1       5.096  -6.927  22.455  0.00  0.00    +0.199 HD
ATOM     14  H   UNL     1       6.700  -6.923  22.848  0.00  0.00    +0.199 HD
ENDBRANCH  10  11
ENDBRANCH   9  10
ENDBRANCH   8   9
ENDBRANCH   4   8
ENDBRANCH   3   4
ENDBRANCH   2   3
ENDBRANCH   1   2
BRANCH   1  15
ATOM     15  C   UNL     1       4.556  -3.050  27.916  0.00  0.00    +0.279 C 
BRANCH  15  16
ATOM     16  O   UNL     1       3.500  -2.349  27.215  0.00  0.00    -0.461 OA
BRANCH  16  17
ATOM     17  C   UNL     1       3.546  -0.999  27.300  0.00  0.00    +0.307 C 
ATOM     18  O   UNL     1       2.741  -0.230  26.790  0.00  0.00    -0.251 OA
BRANCH  17  19
ATOM     19  C   UNL     1       4.720  -0.559  28.152  0.00  0.00    +0.120 C 
BRANCH  19  20
ATOM     20  C   UNL     1       5.004   0.921  27.971  0.00  0.00    +0.011 C 
BRANCH  20  21
ATOM     21  C   UNL     1       6.399   1.286  28.482  0.00  0.00    +0.001 C 
BRANCH  21  22
ATOM     22  C   UNL     1       6.576   2.801  28.517  0.00  0.00    +0.000 C 
BRANCH  22  23
ATOM     23  C   UNL     1       6.945   3.363  27.147  0.00  0.00    +0.000 C 
BRANCH  23  24
ATOM     24  C   UNL     1       7.127   4.877  27.229  0.00  0.00    +0.000 C 
BRANCH  24  25
ATOM     25  C   UNL     1       7.865   5.412  26.007  0.00  0.00    -0.000 C 
BRANCH  25  26
ATOM     26  C   UNL     1       7.747   4.439  24.838  0.00  0.00    -0.000 C 
BRANCH  26  27
ATOM     27  C   UNL     1       7.583   5.187  23.519  0.00  0.00    -0.000 C 
BRANCH  27  28
ATOM     28  C   UNL     1       7.036   4.267  22.433  0.00  0.00    -0.000 C 
BRANCH  28  29
ATOM     29  C   UNL     1       6.546   2.954  23.034  0.00  0.00    -0.000 C 
BRANCH  29  30
ATOM     30  C   UNL     1       5.022   2.904  23.068  0.00  0.00    -0.000 C 
BRANCH  30  31
ATOM     31  C   UNL     1       4.522   2.662  24.488  0.00  0.00    -0.000 C 
BRANCH  31  32
ATOM     32  C   UNL     1       3.795   3.888  25.030  0.00  0.00    -0.000 C 
BRANCH  32  33
ATOM     33  C   UNL     1       3.759   5.004  23.989  0.00  0.00    -0.000 C 
BRANCH  33  35
ATOM     34  C   UNL     1       4.052   6.253  26.149  0.00  0.00    +0.004 C 
ATOM     35  C   UNL     1       3.863   6.377  24.648  0.00  0.00    -0.003 C 
ENDBRANCH  33  35
ENDBRANCH  32  33
ENDBRANCH  31  32
ENDBRANCH  30  31
ENDBRANCH  29  30
ENDBRANCH  28  29
ENDBRANCH  27  28
ENDBRANCH  26  27
ENDBRANCH  25  26
ENDBRANCH  24  25
ENDBRANCH  23  24
ENDBRANCH  22  23
ENDBRANCH  21  22
ENDBRANCH  20  21
ENDBRANCH  19  20
ENDBRANCH  17  19
ENDBRANCH  16  17
ENDBRANCH  15  16
ENDBRANCH   1  15
BRANCH   1  36
ATOM     36  O   UNL     1       5.940  -4.422  26.470  0.00  0.00    -0.456 OA
BRANCH  36  37
ATOM     37  C   UNL     1       7.083  -4.928  27.008  0.00  0.00    +0.308 C 
ATOM     38  O   UNL     1       7.177  -6.039  27.518  0.00  0.00    -0.251 OA
BRANCH  37  39
ATOM     39  C   UNL     1       8.256  -4.002  26.810  0.00  0.00    +0.120 C 
BRANCH  39  40
ATOM     40  C   UNL     1       9.334  -4.703  25.978  0.00  0.00    +0.011 C 
BRANCH  40  41
ATOM     41  C   UNL     1       8.947  -4.878  24.508  0.00  0.00    +0.001 C 
BRANCH  41  42
ATOM     42  C   UNL     1       8.615  -3.555  23.814  0.00  0.00    +0.000 C 
BRANCH  42  43
ATOM     43  C   UNL     1       9.842  -2.654  23.742  0.00  0.00    +0.000 C 
BRANCH  43  44
ATOM     44  C   UNL     1       9.909  -1.873  22.434  0.00  0.00    +0.000 C 
BRANCH  44  45
ATOM     45  C   UNL     1       8.548  -1.318  22.007  0.00  0.00    -0.000 C 
BRANCH  45  46
ATOM     46  C   UNL     1       8.664   0.173  21.689  0.00  0.00    -0.000 C 
BRANCH  46  47
ATOM     47  C   UNL     1      10.097   0.683  21.818  0.00  0.00    -0.000 C 
BRANCH  47  48
ATOM     48  C   UNL     1      10.103   2.132  22.308  0.00  0.00    -0.000 C 
BRANCH  48  49
ATOM     49  C   UNL     1      10.196   2.208  23.829  0.00  0.00    -0.000 C 
BRANCH  49  50
ATOM     50  C   UNL     1      10.985   1.026  24.391  0.00  0.00    -0.000 C 
BRANCH  50  51
ATOM     51  C   UNL     1      10.143   0.229  25.384  0.00  0.00    -0.000 C 
BRANCH  51  52
ATOM     52  C   UNL     1       8.706   0.744  25.429  0.00  0.00    -0.000 C 
BRANCH  52  53
ATOM     53  C   UNL     1       7.717  -0.410  25.588  0.00  0.00    -0.000 C 
BRANCH  53  54
ATOM     54  C   UNL     1       6.511  -0.238  24.670  0.00  0.00    -0.003 C 
ATOM     55  C   UNL     1       5.691  -1.515  24.594  0.00  0.00    +0.004 C 
ENDBRANCH  53  54
ENDBRANCH  52  53
ENDBRANCH  51  52
ENDBRANCH  50  51
ENDBRANCH  49  50
ENDBRANCH  48  49
ENDBRANCH  47  48
ENDBRANCH  46  47
ENDBRANCH  45  46
ENDBRANCH  44  45
ENDBRANCH  43  44
ENDBRANCH  42  43
ENDBRANCH  41  42
ENDBRANCH  40  41
ENDBRANCH  39  40
ENDBRANCH  37  39
ENDBRANCH  36  37
ENDBRANCH   1  36
TORSDOF 45
ENDMDL
MODEL 3
REMARK VINA RESULT:      -4.0      1.994      4.516
REMARK  Name = 
REMARK  47 active torsions:
REMARK  status: ('A' for Active; 'I' for Inactive)
REMARK    1  A    between atoms: C_1  and  C_2
REMARK    2  A    between atoms: C_2  and  C_3
REMARK    3  A    between atoms: C_3  and  C_4
REMARK    4  A    between atoms: C_4  and  C_5
REMARK    5  A    between atoms: C_5  and  C_6
REMARK    6  A    between atoms: C_6  and  C_7
REMARK    7  A    between atoms: C_7  and  C_8
REMARK    8  A    between atoms: C_8  and  C_9
REMARK    9  A    between atoms: C_9  and  C_10
REMARK   10  A    between atoms: C_10  and  C_11
REMARK   11  A    between atoms: C_11  and  C_12
REMARK   12  A    between atoms: C_12  and  C_13
REMARK   13  A    between atoms: C_13  and  C_14
REMARK   14  A    between atoms: C_14  and  C_15
REMARK   15  A    between atoms: C_15  and  C_16
REMARK   16  A    between atoms: C_16  and  C_17
REMARK   17  A    between atoms: C_17  and  C_18
REMARK   18  A    between atoms: C_18  and  O_20
REMARK   19  A    between atoms: O_20  and  C_21
REMARK   20  A    between atoms: C_21  and  C_22
REMARK   21  A    between atoms: C_22  and  C_24
REMARK   22  A    between atoms: C_22  and  O_36
REMARK   23  A    between atoms: C_24  and  O_25
REMARK   24  A    between atoms: O_25  and  P_26
REMARK   25  A    between atoms: P_26  and  O_27
REMARK   26  A    between atoms: P_26  and  O_29
REMARK   27  A    between atoms: O_29  and  C_30
REMARK   28  A    between atoms: C_30  and  C_31
REMARK   29  A    between atoms: C_31  and  N_32
REMARK   30  A    between atoms: O_36  and  C_37
REMARK   31  A    between atoms: C_37  and  C_39
REMARK   32  A    between atoms: C_39  and  C_40
REMARK   33  A    between atoms: C_40  and  C_41
REMARK   34  A    between atoms: C_41  and  C_42
REMARK   35  A    between atoms: C_42  and  C_43
REMARK   36  A    between atoms: C_43  and  C_44
REMARK   37  A    between atoms: C_44  and  C_45
REMARK   38  A    between atoms: C_45  and  C_46
REMARK   39  A    between atoms: C_46  and  C_47
REMARK   40  A    between atoms: C_47  and  C_48
REMARK   41  A    between atoms: C_48  and  C_49
REMARK   42  A    between atoms: C_49  and  C_50
REMARK   43  A    between atoms: C_50  and  C_51
REMARK   44  A    between atoms: C_51  and  C_52
REMARK   45  A    between atoms: C_52  and  C_53
REMARK   46  A    between atoms: C_53  and  C_54
REMARK   47  A    between atoms: C_54  and  C_55
REMARK                            x       y       z     vdW  Elec       q    Type
REMARK                         _______ _______ _______ _____ _____    ______ ____
ROOT
ATOM      1  C   UNL     1       6.512  -2.719  26.410  0.00  0.00    +0.240 C 
ENDROOT
BRANCH   1   2
ATOM      2  C   UNL     1       7.165  -4.074  26.741  0.00  0.00    +0.220 C 
BRANCH   2   3
ATOM      3  O   UNL     1       7.492  -4.755  25.514  0.00  0.00    -0.283 OA
BRANCH   3   4
ATOM      4  P   UNL     1       9.052  -5.242  25.224  0.00  0.00    +0.475 P 
ATOM      5  O   UNL     1       9.812  -4.033  24.694  0.00  0.00    -0.227 OA
BRANCH   4   6
ATOM      6  O   UNL     1       9.533  -4.784  26.820  0.00  0.00    -0.302 OA
ATOM      7  H   UNL     1       8.759  -5.006  27.381  0.00  0.00    +0.222 HD
ENDBRANCH   4   6
BRANCH   4   8
ATOM      8  O   UNL     1       8.570  -5.700  23.627  0.00  0.00    -0.281 OA
BRANCH   8   9
ATOM      9  C   UNL     1       7.399  -5.166  23.067  0.00  0.00    +0.223 C 
BRANCH   9  10
ATOM     10  C   UNL     1       7.159  -5.919  21.784  0.00  0.00    +0.156 C 
BRANCH  10  11
ATOM     11  N   UNL     1       5.717  -6.216  21.594  0.00  0.00    +0.220 N 
ATOM     12  H   UNL     1       5.142  -5.927  22.393  0.00  0.00    +0.199 HD
ATOM     13  H   UNL     1       5.527  -7.206  21.414  0.00  0.00    +0.199 HD
ATOM     14  H   UNL     1       5.367  -5.695  20.769  0.00  0.00    +0.199 HD
ENDBRANCH  10  11
ENDBRANCH   9  10
ENDBRANCH   8   9
ENDBRANCH   4   8
ENDBRANCH   3   4
ENDBRANCH   2   3
ENDBRANCH   1   2
BRANCH   1  15
ATOM     15  C   UNL     1       5.201  -2.886  25.618  0.00  0.00    +0.279 C 
BRANCH  15  16
ATOM     16  O   UNL     1       4.393  -1.685  25.680  0.00  0.00    -0.461 OA
BRANCH  16  17
ATOM     17  C   UNL     1       3.857  -1.410  26.892  0.00  0.00    +0.307 C 
ATOM     18  O   UNL     1       3.038  -2.106  27.478  0.00  0.00    -0.251 OA
BRANCH  17  19
ATOM     19  C   UNL     1       4.438  -0.126  27.452  0.00  0.00    +0.120 C 
BRANCH  19  20
ATOM     20  C   UNL     1       3.934   1.084  26.687  0.00  0.00    +0.011 C 
BRANCH  20  21
ATOM     21  C   UNL     1       2.445   1.322  26.942  0.00  0.00    +0.001 C 
BRANCH  21  22
ATOM     22  C   UNL     1       2.224   2.690  27.579  0.00  0.00    +0.000 C 
BRANCH  22  23
ATOM     23  C   UNL     1       2.812   2.764  28.986  0.00  0.00    +0.000 C 
BRANCH  23  24
ATOM     24  C   UNL     1       3.351   4.167  29.260  0.00  0.00    +0.000 C 
BRANCH  24  25
ATOM     25  C   UNL     1       4.782   4.116  29.786  0.00  0.00    -0.000 C 
BRANCH  25  26
ATOM     26  C   UNL     1       5.330   2.694  29.719  0.00  0.00    -0.000 C 
BRANCH  26  27
ATOM     27  C   UNL     1       6.584   2.634  28.854  0.00  0.00    -0.000 C 
BRANCH  27  28
ATOM     28  C   UNL     1       6.927   4.010  28.292  0.00  0.00    -0.000 C 
BRANCH  28  29
ATOM     29  C   UNL     1       7.064   3.955  26.774  0.00  0.00    -0.000 C 
BRANCH  29  30
ATOM     30  C   UNL     1       6.266   5.075  26.115  0.00  0.00    -0.000 C 
BRANCH  30  31
ATOM     31  C   UNL     1       4.796   4.689  25.991  0.00  0.00    -0.000 C 
BRANCH  31  32
ATOM     32  C   UNL     1       4.187   5.253  24.711  0.00  0.00    -0.000 C 
BRANCH  32  33
ATOM     33  C   UNL     1       2.983   4.425  24.270  0.00  0.00    -0.000 C 
BRANCH  33  35
ATOM     34  C   UNL     1       3.222   3.535  21.932  0.00  0.00    +0.004 C 
ATOM     35  C   UNL     1       3.414   3.239  23.410  0.00  0.00    -0.003 C 
ENDBRANCH  33  35
ENDBRANCH  32  33
ENDBRANCH  31  32
ENDBRANCH  30  31
ENDBRANCH  29  30
ENDBRANCH  28  29
ENDBRANCH  27  28
ENDBRANCH  26  27
ENDBRANCH  25  26
ENDBRANCH  24  25
ENDBRANCH  23  24
ENDBRANCH  22  23
ENDBRANCH  21  22
ENDBRANCH  20  21
ENDBRANCH  19  20
ENDBRANCH  17  19
ENDBRANCH  16  17
ENDBRANCH  15  16
ENDBRANCH   1  15
BRANCH   1  36
ATOM     36  O   UNL     1       7.436  -1.942  25.600  0.00  0.00    -0.456 OA
BRANCH  36  37
ATOM     37  C   UNL     1       8.075  -0.932  26.251  0.00  0.00    +0.308 C 
ATOM     38  O   UNL     1       9.015  -1.088  27.021  0.00  0.00    -0.251 OA
BRANCH  37  39
ATOM     39  C   UNL     1       7.560   0.422  25.831  0.00  0.00    +0.120 C 
BRANCH  39  40
ATOM     40  C   UNL     1       6.884   0.316  24.461  0.00  0.00    +0.011 C 
BRANCH  40  41
ATOM     41  C   UNL     1       6.574   1.676  23.832  0.00  0.00    +0.001 C 
BRANCH  41  42
ATOM     42  C   UNL     1       6.725   1.682  22.310  0.00  0.00    +0.000 C 
BRANCH  42  43
ATOM     43  C   UNL     1       7.300   3.007  21.824  0.00  0.00    +0.000 C 
BRANCH  43  44
ATOM     44  C   UNL     1       6.972   4.160  22.768  0.00  0.00    +0.000 C 
BRANCH  44  45
ATOM     45  C   UNL     1       7.198   5.531  22.125  0.00  0.00    -0.000 C 
BRANCH  45  46
ATOM     46  C   UNL     1       7.807   6.495  23.143  0.00  0.00    -0.000 C 
BRANCH  46  47
ATOM     47  C   UNL     1       9.333   6.437  23.155  0.00  0.00    -0.000 C 
BRANCH  47  48
ATOM     48  C   UNL     1       9.823   5.575  24.320  0.00  0.00    -0.000 C 
BRANCH  48  49
ATOM     49  C   UNL     1      11.146   4.890  23.992  0.00  0.00    -0.000 C 
BRANCH  49  50
ATOM     50  C   UNL     1      10.915   3.577  23.245  0.00  0.00    -0.000 C 
BRANCH  50  51
ATOM     51  C   UNL     1      10.098   2.604  24.092  0.00  0.00    -0.000 C 
BRANCH  51  52
ATOM     52  C   UNL     1      10.656   1.185  23.996  0.00  0.00    -0.000 C 
BRANCH  52  53
ATOM     53  C   UNL     1      10.150   0.485  22.736  0.00  0.00    -0.000 C 
BRANCH  53  54
ATOM     54  C   UNL     1       9.982  -1.014  22.965  0.00  0.00    -0.003 C 
ATOM     55  C   UNL     1       9.005  -1.617  21.968  0.00  0.00    +0.004 C 
ENDBRANCH  53  54
ENDBRANCH  52  53
ENDBRANCH  51  52
ENDBRANCH  50  51
ENDBRANCH  49  50
ENDBRANCH  48  49
ENDBRANCH  47  48
ENDBRANCH  46  47
ENDBRANCH  45  46
ENDBRANCH  44  45
ENDBRANCH  43  44
ENDBRANCH  42  43
ENDBRANCH  41  42
ENDBRANCH  40  41
ENDBRANCH  39  40
ENDBRANCH  37  39
ENDBRANCH  36  37
ENDBRANCH   1  36
TORSDOF 45
ENDMDL
MODEL 4
REMARK VINA RESULT:      -3.8      1.823      2.753
REMARK  Name = 
REMARK  47 active torsions:
REMARK  status: ('A' for Active; 'I' for Inactive)
REMARK    1  A    between atoms: C_1  and  C_2
REMARK    2  A    between atoms: C_2  and  C_3
REMARK    3  A    between atoms: C_3  and  C_4
REMARK    4  A    between atoms: C_4  and  C_5
REMARK    5  A    between atoms: C_5  and  C_6
REMARK    6  A    between atoms: C_6  and  C_7
REMARK    7  A    between atoms: C_7  and  C_8
REMARK    8  A    between atoms: C_8  and  C_9
REMARK    9  A    between atoms: C_9  and  C_10
REMARK   10  A    between atoms: C_10  and  C_11
REMARK   11  A    between atoms: C_11  and  C_12
REMARK   12  A    between atoms: C_12  and  C_13
REMARK   13  A    between atoms: C_13  and  C_14
REMARK   14  A    between atoms: C_14  and  C_15
REMARK   15  A    between atoms: C_15  and  C_16
REMARK   16  A    between atoms: C_16  and  C_17
REMARK   17  A    between atoms: C_17  and  C_18
REMARK   18  A    between atoms: C_18  and  O_20
REMARK   19  A    between atoms: O_20  and  C_21
REMARK   20  A    between atoms: C_21  and  C_22
REMARK   21  A    between atoms: C_22  and  C_24
REMARK   22  A    between atoms: C_22  and  O_36
REMARK   23  A    between atoms: C_24  and  O_25
REMARK   24  A    between atoms: O_25  and  P_26
REMARK   25  A    between atoms: P_26  and  O_27
REMARK   26  A    between atoms: P_26  and  O_29
REMARK   27  A    between atoms: O_29  and  C_30
REMARK   28  A    between atoms: C_30  and  C_31
REMARK   29  A    between atoms: C_31  and  N_32
REMARK   30  A    between atoms: O_36  and  C_37
REMARK   31  A    between atoms: C_37  and  C_39
REMARK   32  A    between atoms: C_39  and  C_40
REMARK   33  A    between atoms: C_40  and  C_41
REMARK   34  A    between atoms: C_41  and  C_42
REMARK   35  A    between atoms: C_42  and  C_43
REMARK   36  A    between atoms: C_43  and  C_44
REMARK   37  A    between atoms: C_44  and  C_45
REMARK   38  A    between atoms: C_45  and  C_46
REMARK   39  A    between atoms: C_46  and  C_47
REMARK   40  A    between atoms: C_47  and  C_48
REMARK   41  A    between atoms: C_48  and  C_49
REMARK   42  A    between atoms: C_49  and  C_50
REMARK   43  A    between atoms: C_50  and  C_51
REMARK   44  A    between atoms: C_51  and  C_52
REMARK   45  A    between atoms: C_52  and  C_53
REMARK   46  A    between atoms: C_53  and  C_54
REMARK   47  A    between atoms: C_54  and  C_55
REMARK                            x       y       z     vdW  Elec       q    Type
REMARK                         _______ _______ _______ _____ _____    ______ ____
ROOT
ATOM      1  C   UNL     1       6.128  -2.465  27.080  0.00  0.00    +0.240 C 
ENDROOT
BRANCH   1   2
ATOM      2  C   UNL     1       6.438  -3.888  26.581  0.00  0.00    +0.220 C 
BRANCH   2   3
ATOM      3  O   UNL     1       5.482  -4.807  27.145  0.00  0.00    -0.283 OA
BRANCH   3   4
ATOM      4  P   UNL     1       5.926  -5.808  28.391  0.00  0.00    +0.475 P 
ATOM      5  O   UNL     1       5.669  -7.239  27.936  0.00  0.00    -0.227 OA
BRANCH   4   6
ATOM      6  O   UNL     1       7.530  -5.947  27.760  0.00  0.00    -0.302 OA
ATOM      7  H   UNL     1       7.773  -5.030  27.508  0.00  0.00    +0.222 HD
ENDBRANCH   4   6
BRANCH   4   8
ATOM      8  O   UNL     1       4.322  -5.669  29.023  0.00  0.00    -0.281 OA
BRANCH   8   9
ATOM      9  C   UNL     1       3.477  -6.790  29.046  0.00  0.00    +0.223 C 
BRANCH   9  10
ATOM     10  C   UNL     1       2.214  -6.385  28.331  0.00  0.00    +0.156 C 
BRANCH  10  11
ATOM     11  N   UNL     1       2.428  -5.172  27.501  0.00  0.00    +0.220 N 
ATOM     12  H   UNL     1       3.036  -4.481  27.955  0.00  0.00    +0.199 HD
ATOM     13  H   UNL     1       1.558  -4.700  27.240  0.00  0.00    +0.199 HD
ATOM     14  H   UNL     1       2.893  -5.444  26.615  0.00  0.00    +0.199 HD
ENDBRANCH  10  11
ENDBRANCH   9  10
ENDBRANCH   8   9
ENDBRANCH   4   8
ENDBRANCH   3   4
ENDBRANCH   2   3
ENDBRANCH   1   2
BRANCH   1  15
ATOM     15  C   UNL     1       4.617  -2.234  27.272  0.00  0.00    +0.279 C 
BRANCH  15  16
ATOM     16  O   UNL     1       4.143  -1.141  26.447  0.00  0.00    -0.461 OA
BRANCH  16  17
ATOM     17  C   UNL     1       3.620  -0.091  27.123  0.00  0.00    +0.307 C 
ATOM     18  O   UNL     1       2.827   0.721  26.663  0.00  0.00    -0.251 OA
BRANCH  17  19
ATOM     19  C   UNL     1       4.124  -0.073  28.552  0.00  0.00    +0.120 C 
BRANCH  19  20
ATOM     20  C   UNL     1       5.120   1.051  28.769  0.00  0.00    +0.011 C 
BRANCH  20  21
ATOM     21  C   UNL     1       4.468   2.243  29.473  0.00  0.00    +0.001 C 
BRANCH  21  22
ATOM     22  C   UNL     1       4.755   3.534  28.712  0.00  0.00    +0.000 C 
BRANCH  22  23
ATOM     23  C   UNL     1       5.574   3.280  27.449  0.00  0.00    +0.000 C 
BRANCH  23  24
ATOM     24  C   UNL     1       6.898   4.040  27.516  0.00  0.00    +0.000 C 
BRANCH  24  25
ATOM     25  C   UNL     1       7.049   4.993  26.336  0.00  0.00    -0.000 C 
BRANCH  25  26
ATOM     26  C   UNL     1       8.320   4.680  25.552  0.00  0.00    -0.000 C 
BRANCH  26  27
ATOM     27  C   UNL     1       9.209   5.914  25.440  0.00  0.00    -0.000 C 
BRANCH  27  28
ATOM     28  C   UNL     1       8.616   6.928  24.467  0.00  0.00    -0.000 C 
BRANCH  28  29
ATOM     29  C   UNL     1       8.653   6.392  23.040  0.00  0.00    -0.000 C 
BRANCH  29  30
ATOM     30  C   UNL     1       7.311   6.598  22.346  0.00  0.00    -0.000 C 
BRANCH  30  31
ATOM     31  C   UNL     1       6.516   5.297  22.314  0.00  0.00    -0.000 C 
BRANCH  31  32
ATOM     32  C   UNL     1       5.314   5.366  23.252  0.00  0.00    -0.000 C 
BRANCH  32  33
ATOM     33  C   UNL     1       4.035   4.958  22.528  0.00  0.00    -0.000 C 
BRANCH  33  35
ATOM     34  C   UNL     1       3.585   3.319  24.378  0.00  0.00    +0.004 C 
ATOM     35  C   UNL     1       3.636   3.526  22.874  0.00  0.00    -0.003 C 
ENDBRANCH  33  35
ENDBRANCH  32  33
ENDBRANCH  31  32
ENDBRANCH  30  31
ENDBRANCH  29  30
ENDBRANCH  28  29
ENDBRANCH  27  28
ENDBRANCH  26  27
ENDBRANCH  25  26
ENDBRANCH  24  25
ENDBRANCH  23  24
ENDBRANCH  22  23
ENDBRANCH  21  22
ENDBRANCH  20  21
ENDBRANCH  19  20
ENDBRANCH  17  19
ENDBRANCH  16  17
ENDBRANCH  15  16
ENDBRANCH   1  15
BRANCH   1  36
ATOM     36  O   UNL     1       6.613  -1.510  26.095  0.00  0.00    -0.456 OA
BRANCH  36  37
ATOM     37  C   UNL     1       7.667  -0.747  26.492  0.00  0.00    +0.308 C 
ATOM     38  O   UNL     1       8.641  -1.171  27.102  0.00  0.00    -0.251 OA
BRANCH  37  39
ATOM     39  C   UNL     1       7.550   0.673  25.997  0.00  0.00    +0.120 C 
BRANCH  39  40
ATOM     40  C   UNL     1       6.530   0.742  24.856  0.00  0.00    +0.011 C 
BRANCH  40  41
ATOM     41  C   UNL     1       6.836   1.839  23.836  0.00  0.00    +0.001 C 
BRANCH  41  42
ATOM     42  C   UNL     1       6.774   1.347  22.389  0.00  0.00    +0.000 C 
BRANCH  42  43
ATOM     43  C   UNL     1       7.936   1.902  21.574  0.00  0.00    +0.000 C 
BRANCH  43  44
ATOM     44  C   UNL     1       8.894   2.731  22.423  0.00  0.00    +0.000 C 
BRANCH  44  45
ATOM     45  C   UNL     1      10.249   2.048  22.621  0.00  0.00    -0.000 C 
BRANCH  45  46
ATOM     46  C   UNL     1      10.524   1.847  24.111  0.00  0.00    -0.000 C 
BRANCH  46  47
ATOM     47  C   UNL     1      10.814   0.388  24.456  0.00  0.00    -0.000 C 
BRANCH  47  48
ATOM     48  C   UNL     1      10.546  -0.507  23.245  0.00  0.00    -0.000 C 
BRANCH  48  49
ATOM     49  C   UNL     1       9.473  -1.549  23.546  0.00  0.00    -0.000 C 
BRANCH  49  50
ATOM     50  C   UNL     1       8.594  -1.801  22.322  0.00  0.00    -0.000 C 
BRANCH  50  51
ATOM     51  C   UNL     1       7.429  -2.726  22.667  0.00  0.00    -0.000 C 
BRANCH  51  52
ATOM     52  C   UNL     1       7.928  -4.066  23.204  0.00  0.00    -0.000 C 
BRANCH  52  53
ATOM     53  C   UNL     1       6.811  -5.109  23.189  0.00  0.00    -0.000 C 
BRANCH  53  54
ATOM     54  C   UNL     1       7.012  -6.120  22.064  0.00  0.00    -0.003 C 
ATOM     55  C   UNL     1       6.178  -5.760  20.845  0.00  0.00    +0.004 C 
ENDBRANCH  53  54
ENDBRANCH  52  53
ENDBRANCH  51  52
ENDBRANCH  50  51
ENDBRANCH  49  50
ENDBRANCH  48  49
ENDBRANCH  47  48
ENDBRANCH  46  47
ENDBRANCH  45  46
ENDBRANCH  44  45
ENDBRANCH  43  44
ENDBRANCH  42  43
ENDBRANCH  41  42
ENDBRANCH  40  41
ENDBRANCH  39  40
ENDBRANCH  37  39
ENDBRANCH  36  37
ENDBRANCH   1  36
TORSDOF 45
ENDMDL
MODEL 5
REMARK VINA RESULT:      -3.8      3.255      7.613
REMARK  Name = 
REMARK  47 active torsions:
REMARK  status: ('A' for Active; 'I' for Inactive)
REMARK    1  A    between atoms: C_1  and  C_2
REMARK    2  A    between atoms: C_2  and  C_3
REMARK    3  A    between atoms: C_3  and  C_4
REMARK    4  A    between atoms: C_4  and  C_5
REMARK    5  A    between atoms: C_5  and  C_6
REMARK    6  A    between atoms: C_6  and  C_7
REMARK    7  A    between atoms: C_7  and  C_8
REMARK    8  A    between atoms: C_8  and  C_9
REMARK    9  A    between atoms: C_9  and  C_10
REMARK   10  A    between atoms: C_10  and  C_11
REMARK   11  A    between atoms: C_11  and  C_12
REMARK   12  A    between atoms: C_12  and  C_13
REMARK   13  A    between atoms: C_13  and  C_14
REMARK   14  A    between atoms: C_14  and  C_15
REMARK   15  A    between atoms: C_15  and  C_16
REMARK   16  A    between atoms: C_16  and  C_17
REMARK   17  A    between atoms: C_17  and  C_18
REMARK   18  A    between atoms: C_18  and  O_20
REMARK   19  A    between atoms: O_20  and  C_21
REMARK   20  A    between atoms: C_21  and  C_22
REMARK   21  A    between atoms: C_22  and  C_24
REMARK   22  A    between atoms: C_22  and  O_36
REMARK   23  A    between atoms: C_24  and  O_25
REMARK   24  A    between atoms: O_25  and  P_26
REMARK   25  A    between atoms: P_26  and  O_27
REMARK   26  A    between atoms: P_26  and  O_29
REMARK   27  A    between atoms: O_29  and  C_30
REMARK   28  A    between atoms: C_30  and  C_31
REMARK   29  A    between atoms: C_31  and  N_32
REMARK   30  A    between atoms: O_36  and  C_37
REMARK   31  A    between atoms: C_37  and  C_39
REMARK   32  A    between atoms: C_39  and  C_40
REMARK   33  A    between atoms: C_40  and  C_41
REMARK   34  A    between atoms: C_41  and  C_42
REMARK   35  A    between atoms: C_42  and  C_43
REMARK   36  A    between atoms: C_43  and  C_44
REMARK   37  A    between atoms: C_44  and  C_45
REMARK   38  A    between atoms: C_45  and  C_46
REMARK   39  A    between atoms: C_46  and  C_47
REMARK   40  A    between atoms: C_47  and  C_48
REMARK   41  A    between atoms: C_48  and  C_49
REMARK   42  A    between atoms: C_49  and  C_50
REMARK   43  A    between atoms: C_50  and  C_51
REMARK   44  A    between atoms: C_51  and  C_52
REMARK   45  A    between atoms: C_52  and  C_53
REMARK   46  A    between atoms: C_53  and  C_54
REMARK   47  A    between atoms: C_54  and  C_55
REMARK                            x       y       z     vdW  Elec       q    Type
REMARK                         _______ _______ _______ _____ _____    ______ ____
ROOT
ATOM      1  C   UNL     1       5.126   0.026  26.536  0.00  0.00    +0.240 C 
ENDROOT
BRANCH   1   2
ATOM      2  C   UNL     1       6.092   0.303  27.703  0.00  0.00    +0.220 C 
BRANCH   2   3
ATOM      3  O   UNL     1       6.679   1.608  27.534  0.00  0.00    -0.283 OA
BRANCH   3   4
ATOM      4  P   UNL     1       6.268   2.843  28.563  0.00  0.00    +0.475 P 
ATOM      5  O   UNL     1       5.121   3.609  27.916  0.00  0.00    -0.227 OA
BRANCH   4   6
ATOM      6  O   UNL     1       5.093   1.849  29.351  0.00  0.00    -0.302 OA
ATOM      7  H   UNL     1       5.404   0.931  29.191  0.00  0.00    +0.222 HD
ENDBRANCH   4   6
BRANCH   4   8
ATOM      8  O   UNL     1       7.443   3.839  27.775  0.00  0.00    -0.281 OA
BRANCH   8   9
ATOM      9  C   UNL     1       7.042   4.738  26.775  0.00  0.00    +0.223 C 
BRANCH   9  10
ATOM     10  C   UNL     1       7.882   4.427  25.562  0.00  0.00    +0.156 C 
BRANCH  10  11
ATOM     11  N   UNL     1       7.742   5.481  24.525  0.00  0.00    +0.220 N 
ATOM     12  H   UNL     1       6.803   5.895  24.502  0.00  0.00    +0.199 HD
ATOM     13  H   UNL     1       7.962   5.151  23.581  0.00  0.00    +0.199 HD
ATOM     14  H   UNL     1       8.404   6.251  24.730  0.00  0.00    +0.199 HD
ENDBRANCH  10  11
ENDBRANCH   9  10
ENDBRANCH   8   9
ENDBRANCH   4   8
ENDBRANCH   3   4
ENDBRANCH   2   3
ENDBRANCH   1   2
BRANCH   1  15
ATOM     15  C   UNL     1       5.516   0.804  25.264  0.00  0.00    +0.279 C 
BRANCH  15  16
ATOM     16  O   UNL     1       4.576   1.872  24.992  0.00  0.00    -0.461 OA
BRANCH  16  17
ATOM     17  C   UNL     1       4.927   2.710  23.988  0.00  0.00    +0.307 C 
ATOM     18  O   UNL     1       4.493   3.844  23.828  0.00  0.00    -0.251 OA
BRANCH  17  19
ATOM     19  C   UNL     1       5.968   2.064  23.096  0.00  0.00    +0.120 C 
BRANCH  19  20
ATOM     20  C   UNL     1       6.565   3.072  22.131  0.00  0.00    +0.011 C 
BRANCH  20  21
ATOM     21  C   UNL     1       8.067   2.846  21.950  0.00  0.00    +0.001 C 
BRANCH  21  22
ATOM     22  C   UNL     1       8.337   1.429  21.452  0.00  0.00    +0.000 C 
BRANCH  22  23
ATOM     23  C   UNL     1       9.741   0.956  21.818  0.00  0.00    +0.000 C 
BRANCH  23  24
ATOM     24  C   UNL     1      10.339   1.858  22.896  0.00  0.00    +0.000 C 
BRANCH  24  25
ATOM     25  C   UNL     1      10.610   1.081  24.180  0.00  0.00    -0.000 C 
BRANCH  25  26
ATOM     26  C   UNL     1       9.349   0.995  25.034  0.00  0.00    -0.000 C 
BRANCH  26  27
ATOM     27  C   UNL     1       9.027  -0.453  25.388  0.00  0.00    -0.000 C 
BRANCH  27  28
ATOM     28  C   UNL     1       9.792  -1.417  24.487  0.00  0.00    -0.000 C 
BRANCH  28  29
ATOM     29  C   UNL     1       8.830  -2.225  23.622  0.00  0.00    -0.000 C 
BRANCH  29  30
ATOM     30  C   UNL     1       7.381  -1.905  23.973  0.00  0.00    -0.000 C 
BRANCH  30  31
ATOM     31  C   UNL     1       6.462  -2.204  22.794  0.00  0.00    -0.000 C 
BRANCH  31  32
ATOM     32  C   UNL     1       7.009  -3.351  21.949  0.00  0.00    -0.000 C 
BRANCH  32  33
ATOM     33  C   UNL     1       5.872  -4.164  21.335  0.00  0.00    -0.000 C 
BRANCH  33  35
ATOM     34  C   UNL     1       7.388  -6.032  22.059  0.00  0.00    +0.004 C 
ATOM     35  C   UNL     1       6.297  -5.610  21.091  0.00  0.00    -0.003 C 
ENDBRANCH  33  35
ENDBRANCH  32  33
ENDBRANCH  31  32
ENDBRANCH  30  31
ENDBRANCH  29  30
ENDBRANCH  28  29
ENDBRANCH  27  28
ENDBRANCH  26  27
ENDBRANCH  25  26
ENDBRANCH  24  25
ENDBRANCH  23  24
ENDBRANCH  22  23
ENDBRANCH  21  22
ENDBRANCH  20  21
ENDBRANCH  19  20
ENDBRANCH  17  19
ENDBRANCH  16  17
ENDBRANCH  15  16
ENDBRANCH   1  15
BRANCH   1  36
ATOM     36  O   UNL     1       3.789   0.441  26.930  0.00  0.00    -0.456 OA
BRANCH  36  37
ATOM     37  C   UNL     1       3.147  -0.399  27.787  0.00  0.00    +0.308 C 
ATOM     38  O   UNL     1       2.727  -0.075  28.892  0.00  0.00    -0.251 OA
BRANCH  37  39
ATOM     39  C   UNL     1       2.914  -1.757  27.175  0.00  0.00    +0.120 C 
BRANCH  39  40
ATOM     40  C   UNL     1       2.565  -2.767  28.272  0.00  0.00    +0.011 C 
BRANCH  40  41
ATOM     41  C   UNL     1       3.682  -3.776  28.545  0.00  0.00    +0.001 C 
BRANCH  41  42
ATOM     42  C   UNL     1       3.264  -5.222  28.274  0.00  0.00    +0.000 C 
BRANCH  42  43
ATOM     43  C   UNL     1       1.776  -5.310  27.958  0.00  0.00    +0.000 C 
BRANCH  43  44
ATOM     44  C   UNL     1       1.503  -6.082  26.671  0.00  0.00    +0.000 C 
BRANCH  44  45
ATOM     45  C   UNL     1       2.434  -7.283  26.495  0.00  0.00    -0.000 C 
BRANCH  45  46
ATOM     46  C   UNL     1       2.371  -7.791  25.054  0.00  0.00    -0.000 C 
BRANCH  46  47
ATOM     47  C   UNL     1       1.291  -7.085  24.237  0.00  0.00    -0.000 C 
BRANCH  47  48
ATOM     48  C   UNL     1       1.894  -6.483  22.967  0.00  0.00    -0.000 C 
BRANCH  48  49
ATOM     49  C   UNL     1       3.288  -5.919  23.222  0.00  0.00    -0.000 C 
BRANCH  49  50
ATOM     50  C   UNL     1       3.214  -4.485  23.745  0.00  0.00    -0.000 C 
BRANCH  50  51
ATOM     51  C   UNL     1       4.220  -4.262  24.871  0.00  0.00    -0.000 C 
BRANCH  51  52
ATOM     52  C   UNL     1       5.294  -5.348  24.876  0.00  0.00    -0.000 C 
BRANCH  52  53
ATOM     53  C   UNL     1       6.197  -5.216  26.102  0.00  0.00    -0.000 C 
BRANCH  53  54
ATOM     54  C   UNL     1       7.671  -5.271  25.713  0.00  0.00    -0.003 C 
ATOM     55  C   UNL     1       8.505  -4.347  26.586  0.00  0.00    +0.004 C 
ENDBRANCH  53  54
ENDBRANCH  52  53
ENDBRANCH  51  52
ENDBRANCH  50  51
ENDBRANCH  49  50
ENDBRANCH  48  49
ENDBRANCH  47  48
ENDBRANCH  46  47
ENDBRANCH  45  46
ENDBRANCH  44  45
ENDBRANCH  43  44
ENDBRANCH  42  43
ENDBRANCH  41  42
ENDBRANCH  40  41
ENDBRANCH  39  40
ENDBRANCH  37  39
ENDBRANCH  36  37
ENDBRANCH   1  36
TORSDOF 45
ENDMDL
MODEL 6
REMARK VINA RESULT:      -3.8      2.098      4.636
REMARK  Name = 
REMARK  47 active torsions:
REMARK  status: ('A' for Active; 'I' for Inactive)
REMARK    1  A    between atoms: C_1  and  C_2
REMARK    2  A    between atoms: C_2  and  C_3
REMARK    3  A    between atoms: C_3  and  C_4
REMARK    4  A    between atoms: C_4  and  C_5
REMARK    5  A    between atoms: C_5  and  C_6
REMARK    6  A    between atoms: C_6  and  C_7
REMARK    7  A    between atoms: C_7  and  C_8
REMARK    8  A    between atoms: C_8  and  C_9
REMARK    9  A    between atoms: C_9  and  C_10
REMARK   10  A    between atoms: C_10  and  C_11
REMARK   11  A    between atoms: C_11  and  C_12
REMARK   12  A    between atoms: C_12  and  C_13
REMARK   13  A    between atoms: C_13  and  C_14
REMARK   14  A    between atoms: C_14  and  C_15
REMARK   15  A    between atoms: C_15  and  C_16
REMARK   16  A    between atoms: C_16  and  C_17
REMARK   17  A    between atoms: C_17  and  C_18
REMARK   18  A    between atoms: C_18  and  O_20
REMARK   19  A    between atoms: O_20  and  C_21
REMARK   20  A    between atoms: C_21  and  C_22
REMARK   21  A    between atoms: C_22  and  C_24
REMARK   22  A    between atoms: C_22  and  O_36
REMARK   23  A    between atoms: C_24  and  O_25
REMARK   24  A    between atoms: O_25  and  P_26
REMARK   25  A    between atoms: P_26  and  O_27
REMARK   26  A    between atoms: P_26  and  O_29
REMARK   27  A    between atoms: O_29  and  C_30
REMARK   28  A    between atoms: C_30  and  C_31
REMARK   29  A    between atoms: C_31  and  N_32
REMARK   30  A    between atoms: O_36  and  C_37
REMARK   31  A    between atoms: C_37  and  C_39
REMARK   32  A    between atoms: C_39  and  C_40
REMARK   33  A    between atoms: C_40  and  C_41
REMARK   34  A    between atoms: C_41  and  C_42
REMARK   35  A    between atoms: C_42  and  C_43
REMARK   36  A    between atoms: C_43  and  C_44
REMARK   37  A    between atoms: C_44  and  C_45
REMARK   38  A    between atoms: C_45  and  C_46
REMARK   39  A    between atoms: C_46  and  C_47
REMARK   40  A    between atoms: C_47  and  C_48
REMARK   41  A    between atoms: C_48  and  C_49
REMARK   42  A    between atoms: C_49  and  C_50
REMARK   43  A    between atoms: C_50  and  C_51
REMARK   44  A    between atoms: C_51  and  C_52
REMARK   45  A    between atoms: C_52  and  C_53
REMARK   46  A    between atoms: C_53  and  C_54
REMARK   47  A    between atoms: C_54  and  C_55
REMARK                            x       y       z     vdW  Elec       q    Type
REMARK                         _______ _______ _______ _____ _____    ______ ____
ROOT
ATOM      1  C   UNL     1       4.513  -5.089  27.826  0.00  0.00    +0.240 C 
ENDROOT
BRANCH   1   2
ATOM      2  C   UNL     1       3.391  -5.973  27.252  0.00  0.00    +0.220 C 
BRANCH   2   3
ATOM      3  O   UNL     1       3.866  -6.628  26.060  0.00  0.00    -0.283 OA
BRANCH   3   4
ATOM      4  P   UNL     1       2.792  -7.102  24.887  0.00  0.00    +0.475 P 
ATOM      5  O   UNL     1       2.811  -8.624  24.845  0.00  0.00    -0.227 OA
BRANCH   4   6
ATOM      6  O   UNL     1       1.511  -7.199  26.044  0.00  0.00    -0.302 OA
ATOM      7  H   UNL     1       1.652  -8.061  26.492  0.00  0.00    +0.222 HD
ENDBRANCH   4   6
BRANCH   4   8
ATOM      8  O   UNL     1       4.074  -7.005  23.729  0.00  0.00    -0.281 OA
BRANCH   8   9
ATOM      9  C   UNL     1       5.100  -6.062  23.898  0.00  0.00    +0.223 C 
BRANCH   9  10
ATOM     10  C   UNL     1       5.302  -5.409  22.554  0.00  0.00    +0.156 C 
BRANCH  10  11
ATOM     11  N   UNL     1       6.025  -6.308  21.620  0.00  0.00    +0.220 N 
ATOM     12  H   UNL     1       5.934  -7.299  21.870  0.00  0.00    +0.199 HD
ATOM     13  H   UNL     1       7.023  -6.094  21.543  0.00  0.00    +0.199 HD
ATOM     14  H   UNL     1       5.626  -6.201  20.669  0.00  0.00    +0.199 HD
ENDBRANCH  10  11
ENDBRANCH   9  10
ENDBRANCH   8   9
ENDBRANCH   4   8
ENDBRANCH   3   4
ENDBRANCH   2   3
ENDBRANCH   1   2
BRANCH   1  15
ATOM     15  C   UNL     1       4.027  -3.657  28.125  0.00  0.00    +0.279 C 
BRANCH  15  16
ATOM     16  O   UNL     1       3.290  -3.108  27.005  0.00  0.00    -0.461 OA
BRANCH  16  17
ATOM     17  C   UNL     1       2.954  -1.801  27.119  0.00  0.00    +0.307 C 
ATOM     18  O   UNL     1       2.141  -1.216  26.414  0.00  0.00    -0.251 OA
BRANCH  17  19
ATOM     19  C   UNL     1       3.700  -1.158  28.271  0.00  0.00    +0.120 C 
BRANCH  19  20
ATOM     20  C   UNL     1       4.389   0.121  27.832  0.00  0.00    +0.011 C 
BRANCH  20  21
ATOM     21  C   UNL     1       5.708   0.327  28.579  0.00  0.00    +0.001 C 
BRANCH  21  22
ATOM     22  C   UNL     1       5.992   1.815  28.762  0.00  0.00    +0.000 C 
BRANCH  22  23
ATOM     23  C   UNL     1       5.251   2.666  27.734  0.00  0.00    +0.000 C 
BRANCH  23  24
ATOM     24  C   UNL     1       6.155   3.786  27.225  0.00  0.00    +0.000 C 
BRANCH  24  25
ATOM     25  C   UNL     1       5.505   4.541  26.071  0.00  0.00    -0.000 C 
BRANCH  25  26
ATOM     26  C   UNL     1       4.071   4.064  25.856  0.00  0.00    -0.000 C 
BRANCH  26  27
ATOM     27  C   UNL     1       3.605   4.361  24.435  0.00  0.00    -0.000 C 
BRANCH  27  28
ATOM     28  C   UNL     1       3.856   3.169  23.517  0.00  0.00    -0.000 C 
BRANCH  28  29
ATOM     29  C   UNL     1       4.732   3.573  22.336  0.00  0.00    -0.000 C 
BRANCH  29  30
ATOM     30  C   UNL     1       6.156   3.054  22.511  0.00  0.00    -0.000 C 
BRANCH  30  31
ATOM     31  C   UNL     1       7.170   4.156  22.223  0.00  0.00    -0.000 C 
BRANCH  31  32
ATOM     32  C   UNL     1       6.575   5.534  22.500  0.00  0.00    -0.000 C 
BRANCH  32  33
ATOM     33  C   UNL     1       7.410   6.290  23.530  0.00  0.00    -0.000 C 
BRANCH  33  35
ATOM     34  C   UNL     1       9.915   6.227  23.711  0.00  0.00    +0.004 C 
ATOM     35  C   UNL     1       8.623   5.471  23.966  0.00  0.00    -0.003 C 
ENDBRANCH  33  35
ENDBRANCH  32  33
ENDBRANCH  31  32
ENDBRANCH  30  31
ENDBRANCH  29  30
ENDBRANCH  28  29
ENDBRANCH  27  28
ENDBRANCH  26  27
ENDBRANCH  25  26
ENDBRANCH  24  25
ENDBRANCH  23  24
ENDBRANCH  22  23
ENDBRANCH  21  22
ENDBRANCH  20  21
ENDBRANCH  19  20
ENDBRANCH  17  19
ENDBRANCH  16  17
ENDBRANCH  15  16
ENDBRANCH   1  15
BRANCH   1  36
ATOM     36  O   UNL     1       5.589  -5.009  26.851  0.00  0.00    -0.456 OA
BRANCH  36  37
ATOM     37  C   UNL     1       6.845  -5.146  27.357  0.00  0.00    +0.308 C 
ATOM     38  O   UNL     1       7.198  -6.051  28.103  0.00  0.00    -0.251 OA
BRANCH  37  39
ATOM     39  C   UNL     1       7.790  -4.109  26.803  0.00  0.00    +0.120 C 
BRANCH  39  40
ATOM     40  C   UNL     1       8.946  -4.799  26.073  0.00  0.00    +0.011 C 
BRANCH  40  41
ATOM     41  C   UNL     1       8.664  -5.047  24.590  0.00  0.00    +0.001 C 
BRANCH  41  42
ATOM     42  C   UNL     1       8.485  -3.756  23.790  0.00  0.00    +0.000 C 
BRANCH  42  43
ATOM     43  C   UNL     1       9.681  -2.830  23.973  0.00  0.00    +0.000 C 
BRANCH  43  44
ATOM     44  C   UNL     1       9.990  -2.029  22.711  0.00  0.00    +0.000 C 
BRANCH  44  45
ATOM     45  C   UNL     1       8.727  -1.575  21.976  0.00  0.00    -0.000 C 
BRANCH  45  46
ATOM     46  C   UNL     1       8.799  -0.077  21.682  0.00  0.00    -0.000 C 
BRANCH  46  47
ATOM     47  C   UNL     1      10.162   0.518  22.032  0.00  0.00    -0.000 C 
BRANCH  47  48
ATOM     48  C   UNL     1      10.021   2.002  22.376  0.00  0.00    -0.000 C 
BRANCH  48  49
ATOM     49  C   UNL     1      10.242   2.255  23.864  0.00  0.00    -0.000 C 
BRANCH  49  50
ATOM     50  C   UNL     1      10.527   0.950  24.606  0.00  0.00    -0.000 C 
BRANCH  50  51
ATOM     51  C   UNL     1       9.293   0.476  25.372  0.00  0.00    -0.000 C 
BRANCH  51  52
ATOM     52  C   UNL     1       8.149   1.480  25.251  0.00  0.00    -0.000 C 
BRANCH  52  53
ATOM     53  C   UNL     1       6.821   0.765  25.003  0.00  0.00    -0.000 C 
BRANCH  53  54
ATOM     54  C   UNL     1       6.933  -0.728  25.298  0.00  0.00    -0.003 C 
ATOM     55  C   UNL     1       5.779  -1.499  24.678  0.00  0.00    +0.004 C 
ENDBRANCH  53  54
ENDBRANCH  52  53
ENDBRANCH  51  52
ENDBRANCH  50  51
ENDBRANCH  49  50
ENDBRANCH  48  49
ENDBRANCH  47  48
ENDBRANCH  46  47
ENDBRANCH  45  46
ENDBRANCH  44  45
ENDBRANCH  43  44
ENDBRANCH  42  43
ENDBRANCH  41  42
ENDBRANCH  40  41
ENDBRANCH  39  40
ENDBRANCH  37  39
ENDBRANCH  36  37
ENDBRANCH   1  36
TORSDOF 45
ENDMDL
MODEL 7
REMARK VINA RESULT:      -3.8      2.296      6.873
REMARK  Name = 
REMARK  47 active torsions:
REMARK  status: ('A' for Active; 'I' for Inactive)
REMARK    1  A    between atoms: C_1  and  C_2
REMARK    2  A    between atoms: C_2  and  C_3
REMARK    3  A    between atoms: C_3  and  C_4
REMARK    4  A    between atoms: C_4  and  C_5
REMARK    5  A    between atoms: C_5  and  C_6
REMARK    6  A    between atoms: C_6  and  C_7
REMARK    7  A    between atoms: C_7  and  C_8
REMARK    8  A    between atoms: C_8  and  C_9
REMARK    9  A    between atoms: C_9  and  C_10
REMARK   10  A    between atoms: C_10  and  C_11
REMARK   11  A    between atoms: C_11  and  C_12
REMARK   12  A    between atoms: C_12  and  C_13
REMARK   13  A    between atoms: C_13  and  C_14
REMARK   14  A    between atoms: C_14  and  C_15
REMARK   15  A    between atoms: C_15  and  C_16
REMARK   16  A    between atoms: C_16  and  C_17
REMARK   17  A    between atoms: C_17  and  C_18
REMARK   18  A    between atoms: C_18  and  O_20
REMARK   19  A    between atoms: O_20  and  C_21
REMARK   20  A    between atoms: C_21  and  C_22
REMARK   21  A    between atoms: C_22  and  C_24
REMARK   22  A    between atoms: C_22  and  O_36
REMARK   23  A    between atoms: C_24  and  O_25
REMARK   24  A    between atoms: O_25  and  P_26
REMARK   25  A    between atoms: P_26  and  O_27
REMARK   26  A    between atoms: P_26  and  O_29
REMARK   27  A    between atoms: O_29  and  C_30
REMARK   28  A    between atoms: C_30  and  C_31
REMARK   29  A    between atoms: C_31  and  N_32
REMARK   30  A    between atoms: O_36  and  C_37
REMARK   31  A    between atoms: C_37  and  C_39
REMARK   32  A    between atoms: C_39  and  C_40
REMARK   33  A    between atoms: C_40  and  C_41
REMARK   34  A    between atoms: C_41  and  C_42
REMARK   35  A    between atoms: C_42  and  C_43
REMARK   36  A    between atoms: C_43  and  C_44
REMARK   37  A    between atoms: C_44  and  C_45
REMARK   38  A    between atoms: C_45  and  C_46
REMARK   39  A    between atoms: C_46  and  C_47
REMARK   40  A    between atoms: C_47  and  C_48
REMARK   41  A    between atoms: C_48  and  C_49
REMARK   42  A    between atoms: C_49  and  C_50
REMARK   43  A    between atoms: C_50  and  C_51
REMARK   44  A    between atoms: C_51  and  C_52
REMARK   45  A    between atoms: C_52  and  C_53
REMARK   46  A    between atoms: C_53  and  C_54
REMARK   47  A    between atoms: C_54  and  C_55
REMARK                            x       y       z     vdW  Elec       q    Type
REMARK                         _______ _______ _______ _____ _____    ______ ____
ROOT
ATOM      1  C   UNL     1       7.684  -3.326  24.131  0.00  0.00    +0.240 C 
ENDROOT
BRANCH   1   2
ATOM      2  C   UNL     1       8.435  -3.601  25.447  0.00  0.00    +0.220 C 
BRANCH   2   3
ATOM      3  O   UNL     1       7.480  -3.774  26.512  0.00  0.00    -0.283 OA
BRANCH   3   4
ATOM      4  P   UNL     1       7.206  -5.283  27.145  0.00  0.00    +0.475 P 
ATOM      5  O   UNL     1       6.432  -6.078  26.101  0.00  0.00    -0.227 OA
BRANCH   4   6
ATOM      6  O   UNL     1       8.669  -5.885  26.447  0.00  0.00    -0.302 OA
ATOM      7  H   UNL     1       8.671  -5.522  25.535  0.00  0.00    +0.222 HD
ENDBRANCH   4   6
BRANCH   4   8
ATOM      8  O   UNL     1       5.743  -4.681  27.844  0.00  0.00    -0.281 OA
BRANCH   8   9
ATOM      9  C   UNL     1       5.367  -5.080  29.136  0.00  0.00    +0.223 C 
BRANCH   9  10
ATOM     10  C   UNL     1       5.990  -6.434  29.361  0.00  0.00    +0.156 C 
BRANCH  10  11
ATOM     11  N   UNL     1       5.232  -7.500  28.657  0.00  0.00    +0.220 N 
ATOM     12  H   UNL     1       4.230  -7.293  28.582  0.00  0.00    +0.199 HD
ATOM     13  H   UNL     1       5.330  -8.421  29.092  0.00  0.00    +0.199 HD
ATOM     14  H   UNL     1       5.593  -7.590  27.689  0.00  0.00    +0.199 HD
ENDBRANCH  10  11
ENDBRANCH   9  10
ENDBRANCH   8   9
ENDBRANCH   4   8
ENDBRANCH   3   4
ENDBRANCH   2   3
ENDBRANCH   1   2
BRANCH   1  15
ATOM     15  C   UNL     1       7.604  -4.578  23.237  0.00  0.00    +0.279 C 
BRANCH  15  16
ATOM     16  O   UNL     1       6.894  -4.300  22.005  0.00  0.00    -0.461 OA
BRANCH  16  17
ATOM     17  C   UNL     1       6.034  -5.264  21.602  0.00  0.00    +0.307 C 
ATOM     18  O   UNL     1       5.910  -5.666  20.452  0.00  0.00    -0.251 OA
BRANCH  17  19
ATOM     19  C   UNL     1       5.260  -5.814  22.784  0.00  0.00    +0.120 C 
BRANCH  19  20
ATOM     20  C   UNL     1       4.020  -4.983  23.062  0.00  0.00    +0.011 C 
BRANCH  20  21
ATOM     21  C   UNL     1       3.518  -5.196  24.491  0.00  0.00    +0.001 C 
BRANCH  21  22
ATOM     22  C   UNL     1       3.212  -3.856  25.154  0.00  0.00    +0.000 C 
BRANCH  22  23
ATOM     23  C   UNL     1       4.395  -2.895  25.066  0.00  0.00    +0.000 C 
BRANCH  23  24
ATOM     24  C   UNL     1       4.347  -1.891  26.216  0.00  0.00    +0.000 C 
BRANCH  24  25
ATOM     25  C   UNL     1       3.000  -1.931  26.929  0.00  0.00    -0.000 C 
BRANCH  25  26
ATOM     26  C   UNL     1       3.035  -1.079  28.194  0.00  0.00    -0.000 C 
BRANCH  26  27
ATOM     27  C   UNL     1       4.448  -1.007  28.763  0.00  0.00    -0.000 C 
BRANCH  27  28
ATOM     28  C   UNL     1       4.730   0.371  29.353  0.00  0.00    -0.000 C 
BRANCH  28  29
ATOM     29  C   UNL     1       5.853   1.065  28.591  0.00  0.00    -0.000 C 
BRANCH  29  30
ATOM     30  C   UNL     1       5.506   2.526  28.322  0.00  0.00    -0.000 C 
BRANCH  30  31
ATOM     31  C   UNL     1       6.765   3.386  28.312  0.00  0.00    -0.000 C 
BRANCH  31  32
ATOM     32  C   UNL     1       7.150   3.780  26.889  0.00  0.00    -0.000 C 
BRANCH  32  33
ATOM     33  C   UNL     1       7.474   5.268  26.805  0.00  0.00    -0.000 C 
BRANCH  33  35
ATOM     34  C   UNL     1       5.036   5.777  26.477  0.00  0.00    +0.004 C 
ATOM     35  C   UNL     1       6.290   6.118  27.262  0.00  0.00    -0.003 C 
ENDBRANCH  33  35
ENDBRANCH  32  33
ENDBRANCH  31  32
ENDBRANCH  30  31
ENDBRANCH  29  30
ENDBRANCH  28  29
ENDBRANCH  27  28
ENDBRANCH  26  27
ENDBRANCH  25  26
ENDBRANCH  24  25
ENDBRANCH  23  24
ENDBRANCH  22  23
ENDBRANCH  21  22
ENDBRANCH  20  21
ENDBRANCH  19  20
ENDBRANCH  17  19
ENDBRANCH  16  17
ENDBRANCH  15  16
ENDBRANCH   1  15
BRANCH   1  36
ATOM     36  O   UNL     1       8.391  -2.288  23.398  0.00  0.00    -0.456 OA
BRANCH  36  37
ATOM     37  C   UNL     1       9.705  -2.140  23.719  0.00  0.00    +0.308 C 
ATOM     38  O   UNL     1      10.526  -3.050  23.723  0.00  0.00    -0.251 OA
BRANCH  37  39
ATOM     39  C   UNL     1      10.063  -0.696  23.966  0.00  0.00    +0.120 C 
BRANCH  39  40
ATOM     40  C   UNL     1       9.643  -0.293  25.383  0.00  0.00    +0.011 C 
BRANCH  40  41
ATOM     41  C   UNL     1       8.536   0.762  25.409  0.00  0.00    +0.001 C 
BRANCH  41  42
ATOM     42  C   UNL     1       7.133   0.162  25.303  0.00  0.00    +0.000 C 
BRANCH  42  43
ATOM     43  C   UNL     1       6.283   0.935  24.302  0.00  0.00    +0.000 C 
BRANCH  43  44
ATOM     44  C   UNL     1       4.995   1.466  24.923  0.00  0.00    +0.000 C 
BRANCH  44  45
ATOM     45  C   UNL     1       4.561   2.807  24.327  0.00  0.00    -0.000 C 
BRANCH  45  46
ATOM     46  C   UNL     1       5.745   3.482  23.634  0.00  0.00    -0.000 C 
BRANCH  46  47
ATOM     47  C   UNL     1       5.321   4.701  22.817  0.00  0.00    -0.000 C 
BRANCH  47  48
ATOM     48  C   UNL     1       6.292   5.860  23.050  0.00  0.00    -0.000 C 
BRANCH  48  49
ATOM     49  C   UNL     1       7.685   5.539  22.520  0.00  0.00    -0.000 C 
BRANCH  49  50
ATOM     50  C   UNL     1       8.757   6.311  23.288  0.00  0.00    -0.000 C 
BRANCH  50  51
ATOM     51  C   UNL     1       9.773   5.359  23.916  0.00  0.00    -0.000 C 
BRANCH  51  52
ATOM     52  C   UNL     1       9.364   3.902  23.712  0.00  0.00    -0.000 C 
BRANCH  52  53
ATOM     53  C   UNL     1      10.567   3.049  23.314  0.00  0.00    -0.000 C 
BRANCH  53  54
ATOM     54  C   UNL     1      10.236   2.138  22.135  0.00  0.00    -0.003 C 
ATOM     55  C   UNL     1       8.737   2.084  21.886  0.00  0.00    +0.004 C 
ENDBRANCH  53  54
ENDBRANCH  52  53
ENDBRANCH  51  52
ENDBRANCH  50  51
ENDBRANCH  49  50
ENDBRANCH  48  49
ENDBRANCH  47  48
ENDBRANCH  46  47
ENDBRANCH  45  46
ENDBRANCH  44  45
ENDBRANCH  43  44
ENDBRANCH  42  43
ENDBRANCH  41  42
ENDBRANCH  40  41
ENDBRANCH  39  40
ENDBRANCH  37  39
ENDBRANCH  36  37
ENDBRANCH   1  36
TORSDOF 45
ENDMDL
MODEL 8
REMARK VINA RESULT:      -3.7      3.076      6.176
REMARK  Name = 
REMARK  47 active torsions:
REMARK  status: ('A' for Active; 'I' for Inactive)
REMARK    1  A    between atoms: C_1  and  C_2
REMARK    2  A    between atoms: C_2  and  C_3
REMARK    3  A    between atoms: C_3  and  C_4
REMARK    4  A    between atoms: C_4  and  C_5
REMARK    5  A    between atoms: C_5  and  C_6
REMARK    6  A    between atoms: C_6  and  C_7
REMARK    7  A    between atoms: C_7  and  C_8
REMARK    8  A    between atoms: C_8  and  C_9
REMARK    9  A    between atoms: C_9  and  C_10
REMARK   10  A    between atoms: C_10  and  C_11
REMARK   11  A    between atoms: C_11  and  C_12
REMARK   12  A    between atoms: C_12  and  C_13
REMARK   13  A    between atoms: C_13  and  C_14
REMARK   14  A    between atoms: C_14  and  C_15
REMARK   15  A    between atoms: C_15  and  C_16
REMARK   16  A    between atoms: C_16  and  C_17
REMARK   17  A    between atoms: C_17  and  C_18
REMARK   18  A    between atoms: C_18  and  O_20
REMARK   19  A    between atoms: O_20  and  C_21
REMARK   20  A    between atoms: C_21  and  C_22
REMARK   21  A    between atoms: C_22  and  C_24
REMARK   22  A    between atoms: C_22  and  O_36
REMARK   23  A    between atoms: C_24  and  O_25
REMARK   24  A    between atoms: O_25  and  P_26
REMARK   25  A    between atoms: P_26  and  O_27
REMARK   26  A    between atoms: P_26  and  O_29
REMARK   27  A    between atoms: O_29  and  C_30
REMARK   28  A    between atoms: C_30  and  C_31
REMARK   29  A    between atoms: C_31  and  N_32
REMARK   30  A    between atoms: O_36  and  C_37
REMARK   31  A    between atoms: C_37  and  C_39
REMARK   32  A    between atoms: C_39  and  C_40
REMARK   33  A    between atoms: C_40  and  C_41
REMARK   34  A    between atoms: C_41  and  C_42
REMARK   35  A    between atoms: C_42  and  C_43
REMARK   36  A    between atoms: C_43  and  C_44
REMARK   37  A    between atoms: C_44  and  C_45
REMARK   38  A    between atoms: C_45  and  C_46
REMARK   39  A    between atoms: C_46  and  C_47
REMARK   40  A    between atoms: C_47  and  C_48
REMARK   41  A    between atoms: C_48  and  C_49
REMARK   42  A    between atoms: C_49  and  C_50
REMARK   43  A    between atoms: C_50  and  C_51
REMARK   44  A    between atoms: C_51  and  C_52
REMARK   45  A    between atoms: C_52  and  C_53
REMARK   46  A    between atoms: C_53  and  C_54
REMARK   47  A    between atoms: C_54  and  C_55
REMARK                            x       y       z     vdW  Elec       q    Type
REMARK                         _______ _______ _______ _____ _____    ______ ____
ROOT
ATOM      1  C   UNL     1       4.923  -0.259  26.490  0.00  0.00    +0.240 C 
ENDROOT
BRANCH   1   2
ATOM      2  C   UNL     1       5.588   0.173  27.810  0.00  0.00    +0.220 C 
BRANCH   2   3
ATOM      3  O   UNL     1       5.024   1.428  28.237  0.00  0.00    -0.283 OA
BRANCH   3   4
ATOM      4  P   UNL     1       6.016   2.719  28.555  0.00  0.00    +0.475 P 
ATOM      5  O   UNL     1       6.277   2.732  30.056  0.00  0.00    -0.227 OA
BRANCH   4   6
ATOM      6  O   UNL     1       7.425   1.734  28.368  0.00  0.00    -0.302 OA
ATOM      7  H   UNL     1       7.335   1.349  27.469  0.00  0.00    +0.222 HD
ENDBRANCH   4   6
BRANCH   4   8
ATOM      8  O   UNL     1       4.607   3.705  28.742  0.00  0.00    -0.281 OA
BRANCH   8   9
ATOM      9  C   UNL     1       3.933   4.186  27.609  0.00  0.00    +0.223 C 
BRANCH   9  10
ATOM     10  C   UNL     1       2.522   3.663  27.700  0.00  0.00    +0.156 C 
BRANCH  10  11
ATOM     11  N   UNL     1       2.333   2.469  26.839  0.00  0.00    +0.220 N 
ATOM     12  H   UNL     1       2.304   1.593  27.373  0.00  0.00    +0.199 HD
ATOM     13  H   UNL     1       3.052   2.372  26.117  0.00  0.00    +0.199 HD
ATOM     14  H   UNL     1       1.426   2.547  26.343  0.00  0.00    +0.199 HD
ENDBRANCH  10  11
ENDBRANCH   9  10
ENDBRANCH   8   9
ENDBRANCH   4   8
ENDBRANCH   3   4
ENDBRANCH   2   3
ENDBRANCH   1   2
BRANCH   1  15
ATOM     15  C   UNL     1       5.364   0.620  25.304  0.00  0.00    +0.279 C 
BRANCH  15  16
ATOM     16  O   UNL     1       4.317   1.542  24.915  0.00  0.00    -0.461 OA
BRANCH  16  17
ATOM     17  C   UNL     1       4.688   2.501  24.035  0.00  0.00    +0.307 C 
ATOM     18  O   UNL     1       3.943   3.345  23.552  0.00  0.00    -0.251 OA
BRANCH  17  19
ATOM     19  C   UNL     1       6.174   2.415  23.749  0.00  0.00    +0.120 C 
BRANCH  19  20
ATOM     20  C   UNL     1       6.800   3.796  23.679  0.00  0.00    +0.011 C 
BRANCH  20  21
ATOM     21  C   UNL     1       7.031   4.228  22.230  0.00  0.00    +0.001 C 
BRANCH  21  22
ATOM     22  C   UNL     1       7.383   5.712  22.166  0.00  0.00    +0.000 C 
BRANCH  22  23
ATOM     23  C   UNL     1       7.115   6.418  23.492  0.00  0.00    +0.000 C 
BRANCH  23  24
ATOM     24  C   UNL     1       8.433   6.824  24.150  0.00  0.00    +0.000 C 
BRANCH  24  25
ATOM     25  C   UNL     1       9.628   6.360  23.326  0.00  0.00    -0.000 C 
BRANCH  25  26
ATOM     26  C   UNL     1      10.636   5.625  24.206  0.00  0.00    -0.000 C 
BRANCH  26  27
ATOM     27  C   UNL     1      11.284   4.473  23.446  0.00  0.00    -0.000 C 
BRANCH  27  28
ATOM     28  C   UNL     1      10.419   3.219  23.514  0.00  0.00    -0.000 C 
BRANCH  28  29
ATOM     29  C   UNL     1      10.567   2.391  22.242  0.00  0.00    -0.000 C 
BRANCH  29  30
ATOM     30  C   UNL     1       9.342   1.509  22.020  0.00  0.00    -0.000 C 
BRANCH  30  31
ATOM     31  C   UNL     1       9.761   0.082  21.680  0.00  0.00    -0.000 C 
BRANCH  31  32
ATOM     32  C   UNL     1       9.863  -0.774  22.939  0.00  0.00    -0.000 C 
BRANCH  32  33
ATOM     33  C   UNL     1       8.929  -0.254  24.028  0.00  0.00    -0.000 C 
BRANCH  33  35
ATOM     34  C   UNL     1       8.841  -0.853  26.466  0.00  0.00    +0.004 C 
ATOM     35  C   UNL     1       9.644  -0.168  25.374  0.00  0.00    -0.003 C 
ENDBRANCH  33  35
ENDBRANCH  32  33
ENDBRANCH  31  32
ENDBRANCH  30  31
ENDBRANCH  29  30
ENDBRANCH  28  29
ENDBRANCH  27  28
ENDBRANCH  26  27
ENDBRANCH  25  26
ENDBRANCH  24  25
ENDBRANCH  23  24
ENDBRANCH  22  23
ENDBRANCH  21  22
ENDBRANCH  20  21
ENDBRANCH  19  20
ENDBRANCH  17  19
ENDBRANCH  16  17
ENDBRANCH  15  16
ENDBRANCH   1  15
BRANCH   1  36
ATOM     36  O   UNL     1       3.481  -0.139  26.634  0.00  0.00    -0.456 OA
BRANCH  36  37
ATOM     37  C   UNL     1       2.872  -1.163  27.291  0.00  0.00    +0.308 C 
ATOM     38  O   UNL     1       2.151  -1.028  28.272  0.00  0.00    -0.251 OA
BRANCH  37  39
ATOM     39  C   UNL     1       3.102  -2.486  26.603  0.00  0.00    +0.120 C 
BRANCH  39  40
ATOM     40  C   UNL     1       3.245  -3.595  27.650  0.00  0.00    +0.011 C 
BRANCH  40  41
ATOM     41  C   UNL     1       4.575  -3.549  28.404  0.00  0.00    +0.001 C 
BRANCH  41  42
ATOM     42  C   UNL     1       5.546  -4.650  27.975  0.00  0.00    +0.000 C 
BRANCH  42  43
ATOM     43  C   UNL     1       6.705  -4.072  27.172  0.00  0.00    +0.000 C 
BRANCH  43  44
ATOM     44  C   UNL     1       7.644  -5.155  26.650  0.00  0.00    +0.000 C 
BRANCH  44  45
ATOM     45  C   UNL     1       9.060  -4.635  26.394  0.00  0.00    -0.000 C 
BRANCH  45  46
ATOM     46  C   UNL     1       9.178  -4.116  24.960  0.00  0.00    -0.000 C 
BRANCH  46  47
ATOM     47  C   UNL     1       8.243  -4.848  24.000  0.00  0.00    -0.000 C 
BRANCH  47  48
ATOM     48  C   UNL     1       7.633  -3.864  23.000  0.00  0.00    -0.000 C 
BRANCH  48  49
ATOM     49  C   UNL     1       6.848  -2.763  23.706  0.00  0.00    -0.000 C 
BRANCH  49  50
ATOM     50  C   UNL     1       5.357  -3.096  23.754  0.00  0.00    -0.000 C 
BRANCH  50  51
ATOM     51  C   UNL     1       4.958  -3.986  22.580  0.00  0.00    -0.000 C 
BRANCH  51  52
ATOM     52  C   UNL     1       4.212  -5.231  23.058  0.00  0.00    -0.000 C 
BRANCH  52  53
ATOM     53  C   UNL     1       4.195  -5.302  24.584  0.00  0.00    -0.000 C 
BRANCH  53  54
ATOM     54  C   UNL     1       4.689  -6.658  25.081  0.00  0.00    -0.003 C 
ATOM     55  C   UNL     1       3.646  -7.337  25.954  0.00  0.00    +0.004 C 
ENDBRANCH  53  54
ENDBRANCH  52  53
ENDBRANCH  51  52
ENDBRANCH  50  51
ENDBRANCH  49  50
ENDBRANCH  48  49
ENDBRANCH  47  48
ENDBRANCH  46  47
ENDBRANCH  45  46
ENDBRANCH  44  45
ENDBRANCH  43  44
ENDBRANCH  42  43
ENDBRANCH  41  42
ENDBRANCH  40  41
ENDBRANCH  39  40
ENDBRANCH  37  39
ENDBRANCH  36  37
ENDBRANCH   1  36
TORSDOF 45
ENDMDL
MODEL 9
REMARK VINA RESULT:      -3.6      2.359      7.784
REMARK  Name = 
REMARK  47 active torsions:
REMARK  status: ('A' for Active; 'I' for Inactive)
REMARK    1  A    between atoms: C_1  and  C_2
REMARK    2  A    between atoms: C_2  and  C_3
REMARK    3  A    between atoms: C_3  and  C_4
REMARK    4  A    between atoms: C_4  and  C_5
REMARK    5  A    between atoms: C_5  and  C_6
REMARK    6  A    between atoms: C_6  and  C_7
REMARK    7  A    between atoms: C_7  and  C_8
REMARK    8  A    between atoms: C_8  and  C_9
REMARK    9  A    between atoms: C_9  and  C_10
REMARK   10  A    between atoms: C_10  and  C_11
REMARK   11  A    between atoms: C_11  and  C_12
REMARK   12  A    between atoms: C_12  and  C_13
REMARK   13  A    between atoms: C_13  and  C_14
REMARK   14  A    between atoms: C_14  and  C_15
REMARK   15  A    between atoms: C_15  and  C_16
REMARK   16  A    between atoms: C_16  and  C_17
REMARK   17  A    between atoms: C_17  and  C_18
REMARK   18  A    between atoms: C_18  and  O_20
REMARK   19  A    between atoms: O_20  and  C_21
REMARK   20  A    between atoms: C_21  and  C_22
REMARK   21  A    between atoms: C_22  and  C_24
REMARK   22  A    between atoms: C_22  and  O_36
REMARK   23  A    between atoms: C_24  and  O_25
REMARK   24  A    between atoms: O_25  and  P_26
REMARK   25  A    between atoms: P_26  and  O_27
REMARK   26  A    between atoms: P_26  and  O_29
REMARK   27  A    between atoms: O_29  and  C_30
REMARK   28  A    between atoms: C_30  and  C_31
REMARK   29  A    between atoms: C_31  and  N_32
REMARK   30  A    between atoms: O_36  and  C_37
REMARK   31  A    between atoms: C_37  and  C_39
REMARK   32  A    between atoms: C_39  and  C_40
REMARK   33  A    between atoms: C_40  and  C_41
REMARK   34  A    between atoms: C_41  and  C_42
REMARK   35  A    between atoms: C_42  and  C_43
REMARK   36  A    between atoms: C_43  and  C_44
REMARK   37  A    between atoms: C_44  and  C_45
REMARK   38  A    between atoms: C_45  and  C_46
REMARK   39  A    between atoms: C_46  and  C_47
REMARK   40  A    between atoms: C_47  and  C_48
REMARK   41  A    between atoms: C_48  and  C_49
REMARK   42  A    between atoms: C_49  and  C_50
REMARK   43  A    between atoms: C_50  and  C_51
REMARK   44  A    between atoms: C_51  and  C_52
REMARK   45  A    between atoms: C_52  and  C_53
REMARK   46  A    between atoms: C_53  and  C_54
REMARK   47  A    between atoms: C_54  and  C_55
REMARK                            x       y       z     vdW  Elec       q    Type
REMARK                         _______ _______ _______ _____ _____    ______ ____
ROOT
ATOM      1  C   UNL     1       9.225  -1.302  24.154  0.00  0.00    +0.240 C 
ENDROOT
BRANCH   1   2
ATOM      2  C   UNL     1       9.528  -2.789  24.412  0.00  0.00    +0.220 C 
BRANCH   2   3
ATOM      3  O   UNL     1       8.831  -3.217  25.598  0.00  0.00    -0.283 OA
BRANCH   3   4
ATOM      4  P   UNL     1       8.976  -4.783  26.128  0.00  0.00    +0.475 P 
ATOM      5  O   UNL     1       8.078  -5.643  25.248  0.00  0.00    -0.227 OA
BRANCH   4   6
ATOM      6  O   UNL     1      10.267  -5.081  25.017  0.00  0.00    -0.302 OA
ATOM      7  H   UNL     1      10.535  -6.008  25.199  0.00  0.00    +0.222 HD
ENDBRANCH   4   6
BRANCH   4   8
ATOM      8  O   UNL     1       7.685  -4.485  27.240  0.00  0.00    -0.281 OA
BRANCH   8   9
ATOM      9  C   UNL     1       6.557  -5.320  27.244  0.00  0.00    +0.223 C 
BRANCH   9  10
ATOM     10  C   UNL     1       6.501  -5.952  28.612  0.00  0.00    +0.156 C 
BRANCH  10  11
ATOM     11  N   UNL     1       5.674  -7.184  28.604  0.00  0.00    +0.220 N 
ATOM     12  H   UNL     1       4.667  -6.988  28.606  0.00  0.00    +0.199 HD
ATOM     13  H   UNL     1       5.872  -7.810  29.390  0.00  0.00    +0.199 HD
ATOM     14  H   UNL     1       5.873  -7.722  27.741  0.00  0.00    +0.199 HD
ENDBRANCH  10  11
ENDBRANCH   9  10
ENDBRANCH   8   9
ENDBRANCH   4   8
ENDBRANCH   3   4
ENDBRANCH   2   3
ENDBRANCH   1   2
BRANCH   1  15
ATOM     15  C   UNL     1       7.734  -0.970  24.360  0.00  0.00    +0.279 C 
BRANCH  15  16
ATOM     16  O   UNL     1       7.549  -0.035  25.450  0.00  0.00    -0.461 OA
BRANCH  16  17
ATOM     17  C   UNL     1       6.792  -0.486  26.477  0.00  0.00    +0.307 C 
ATOM     18  O   UNL     1       6.821  -0.051  27.622  0.00  0.00    -0.251 OA
BRANCH  17  19
ATOM     19  C   UNL     1       5.866  -1.591  26.010  0.00  0.00    +0.120 C 
BRANCH  19  20
ATOM     20  C   UNL     1       4.459  -1.391  26.545  0.00  0.00    +0.011 C 
BRANCH  20  21
ATOM     21  C   UNL     1       3.854  -2.711  27.026  0.00  0.00    +0.001 C 
BRANCH  21  22
ATOM     22  C   UNL     1       2.466  -2.912  26.424  0.00  0.00    +0.000 C 
BRANCH  22  23
ATOM     23  C   UNL     1       1.717  -4.061  27.094  0.00  0.00    +0.000 C 
BRANCH  23  24
ATOM     24  C   UNL     1       2.535  -5.348  27.004  0.00  0.00    +0.000 C 
BRANCH  24  25
ATOM     25  C   UNL     1       1.665  -6.528  26.584  0.00  0.00    -0.000 C 
BRANCH  25  26
ATOM     26  C   UNL     1       2.363  -7.353  25.507  0.00  0.00    -0.000 C 
BRANCH  26  27
ATOM     27  C   UNL     1       3.877  -7.191  25.591  0.00  0.00    -0.000 C 
BRANCH  27  28
ATOM     28  C   UNL     1       4.466  -6.845  24.228  0.00  0.00    -0.000 C 
BRANCH  28  29
ATOM     29  C   UNL     1       3.417  -6.185  23.338  0.00  0.00    -0.000 C 
BRANCH  29  30
ATOM     30  C   UNL     1       3.486  -4.666  23.449  0.00  0.00    -0.000 C 
BRANCH  30  31
ATOM     31  C   UNL     1       4.921  -4.208  23.690  0.00  0.00    -0.000 C 
BRANCH  31  32
ATOM     32  C   UNL     1       5.455  -3.425  22.494  0.00  0.00    -0.000 C 
BRANCH  32  33
ATOM     33  C   UNL     1       6.884  -3.845  22.164  0.00  0.00    -0.000 C 
BRANCH  33  35
ATOM     34  C   UNL     1       6.231  -5.822  20.756  0.00  0.00    +0.004 C 
ATOM     35  C   UNL     1       6.988  -5.359  21.989  0.00  0.00    -0.003 C 
ENDBRANCH  33  35
ENDBRANCH  32  33
ENDBRANCH  31  32
ENDBRANCH  30  31
ENDBRANCH  29  30
ENDBRANCH  28  29
ENDBRANCH  27  28
ENDBRANCH  26  27
ENDBRANCH  25  26
ENDBRANCH  24  25
ENDBRANCH  23  24
ENDBRANCH  22  23
ENDBRANCH  21  22
ENDBRANCH  20  21
ENDBRANCH  19  20
ENDBRANCH  17  19
ENDBRANCH  16  17
ENDBRANCH  15  16
ENDBRANCH   1  15
BRANCH   1  36
ATOM     36  O   UNL     1       9.576  -0.986  22.779  0.00  0.00    -0.456 OA
BRANCH  36  37
ATOM     37  C   UNL     1       9.917   0.311  22.547  0.00  0.00    +0.308 C 
ATOM     38  O   UNL     1       9.643   0.930  21.526  0.00  0.00    -0.251 OA
BRANCH  37  39
ATOM     39  C   UNL     1      10.583   0.939  23.746  0.00  0.00    +0.120 C 
BRANCH  39  40
ATOM     40  C   UNL     1      10.109   2.387  23.902  0.00  0.00    +0.011 C 
BRANCH  40  41
ATOM     41  C   UNL     1      11.127   3.416  23.408  0.00  0.00    +0.001 C 
BRANCH  41  42
ATOM     42  C   UNL     1      10.737   4.856  23.745  0.00  0.00    +0.000 C 
BRANCH  42  43
ATOM     43  C   UNL     1       9.224   5.032  23.716  0.00  0.00    +0.000 C 
BRANCH  43  44
ATOM     44  C   UNL     1       8.803   6.467  24.018  0.00  0.00    +0.000 C 
BRANCH  44  45
ATOM     45  C   UNL     1       7.285   6.655  23.985  0.00  0.00    -0.000 C 
BRANCH  45  46
ATOM     46  C   UNL     1       6.608   5.624  24.889  0.00  0.00    -0.000 C 
BRANCH  46  47
ATOM     47  C   UNL     1       5.305   6.146  25.490  0.00  0.00    -0.000 C 
BRANCH  47  48
ATOM     48  C   UNL     1       4.896   5.293  26.692  0.00  0.00    -0.000 C 
BRANCH  48  49
ATOM     49  C   UNL     1       5.805   4.078  26.852  0.00  0.00    -0.000 C 
BRANCH  49  50
ATOM     50  C   UNL     1       4.990   2.812  27.114  0.00  0.00    -0.000 C 
BRANCH  50  51
ATOM     51  C   UNL     1       4.081   2.493  25.929  0.00  0.00    -0.000 C 
BRANCH  51  52
ATOM     52  C   UNL     1       4.897   2.204  24.670  0.00  0.00    -0.000 C 
BRANCH  52  53
ATOM     53  C   UNL     1       4.326   2.955  23.467  0.00  0.00    -0.000 C 
BRANCH  53  54
ATOM     54  C   UNL     1       5.422   3.309  22.465  0.00  0.00    -0.003 C 
ATOM     55  C   UNL     1       6.652   2.440  22.665  0.00  0.00    +0.004 C 
ENDBRANCH  53  54
ENDBRANCH  52  53
ENDBRANCH  51  52
ENDBRANCH  50  51
ENDBRANCH  49  50
ENDBRANCH  48  49
ENDBRANCH  47  48
ENDBRANCH  46  47
ENDBRANCH  45  46
ENDBRANCH  44  45
ENDBRANCH  43  44
ENDBRANCH  42  43
ENDBRANCH  41  42
ENDBRANCH  40  41
ENDBRANCH  39  40
ENDBRANCH  37  39
ENDBRANCH  36  37
ENDBRANCH   1  36
TORSDOF 45
ENDMDL
