MODEL 1
REMARK VINA RESULT:      -6.3      0.000      0.000
REMARK  Name = 
REMARK  15 active torsions:
REMARK  status: ('A' for Active; 'I' for Inactive)
REMARK    1  A    between atoms: N_1  and  C_2
REMARK    2  A    between atoms: C_2  and  C_4
REMARK    3  A    between atoms: C_2  and  C_28
REMARK    4  A    between atoms: C_4  and  C_5
REMARK    5  A    between atoms: C_5  and  C_6
REMARK    6  A    between atoms: N_8  and  C_9
REMARK    7  A    between atoms: C_9  and  C_11
REMARK    8  A    between atoms: C_9  and  C_21
REMARK    9  A    between atoms: C_11  and  S_12
REMARK   10  A    between atoms: S_12  and  C_13
REMARK   11  A    between atoms: C_13  and  C_14
REMARK   12  A    between atoms: N_23  and  CA_24
REMARK   13  A    between atoms: CA_24  and  C_25
REMARK   14  A    between atoms: C_25  and  O_26
REMARK   15  A    between atoms: C_28  and  O_29
REMARK                            x       y       z     vdW  Elec       q    Type
REMARK                         _______ _______ _______ _____ _____    ______ ____
ROOT
ATOM      1  C   UNK A   1       7.631  -3.534  22.784  0.00  0.00    +0.169 C 
ENDROOT
BRANCH   1   3
ATOM      2  C   UNK A   1       8.777  -3.910  24.960  0.00  0.00    +0.214 C 
ATOM      3  N   UNK A   1       7.635  -3.662  24.241  0.00  0.00    -0.303 N 
ATOM      4  H   UNK A   1       6.738  -3.681  24.716  0.00  0.00    +0.149 HD
ATOM      5  O   UNK A   1       9.877  -4.076  24.444  0.00  0.00    -0.276 OA
BRANCH   2   6
ATOM      6  C   UNK A   1       8.566  -3.969  26.457  0.00  0.00    +0.098 C 
BRANCH   6   7
ATOM      7  C   UNK A   1       8.165  -5.374  26.906  0.00  0.00    +0.039 C 
BRANCH   7   8
ATOM      8  C   UNK A   1       6.806  -5.421  27.617  0.00  0.00    +0.161 C 
BRANCH   8   9
ATOM      9  N   UNK A   1       6.853  -6.421  28.734  0.00  0.00    -0.318 NA
ATOM     10  H   UNK A   1       7.789  -6.399  29.155  0.00  0.00    +0.119 HD
ATOM     11  H   UNK A   1       6.243  -6.078  29.483  0.00  0.00    +0.119 HD
ENDBRANCH   8   9
BRANCH   8  12
ATOM     12  C   UNK A   1       5.649  -5.824  26.675  0.00  0.00    +0.322 C 
ATOM     13  O   UNK A   1       5.188  -6.947  26.551  0.00  0.00    -0.249 OA
BRANCH  12  14
ATOM     14  O   UNK A   1       5.197  -4.758  25.964  0.00  0.00    -0.480 OA
ATOM     15  H   UNK A   1       4.832  -4.129  26.637  0.00  0.00    +0.295 HD
ENDBRANCH  12  14
ENDBRANCH   8  12
ENDBRANCH   7   8
ENDBRANCH   6   7
ENDBRANCH   2   6
ENDBRANCH   1   3
BRANCH   1  16
ATOM     16  C   UNK A   1       6.338  -4.157  22.216  0.00  0.00    +0.235 C 
ATOM     17  N   GLY A   2       5.716  -5.087  23.033  0.00  0.00    -0.303 N 
ATOM     18  H   GLY A   2       6.235  -5.516  23.790  0.00  0.00    +0.149 HD
ATOM     19  O   UNK A   1       5.839  -3.806  21.149  0.00  0.00    -0.274 OA
BRANCH  17  20
ATOM     20  CA  GLY A   2       4.517  -5.801  22.580  0.00  0.00    +0.224 C 
BRANCH  20  21
ATOM     21  C   GLY A   2       3.666  -6.362  23.720  0.00  0.00    +0.322 C 
ATOM     22  OXT GLY A   2       2.849  -5.702  24.344  0.00  0.00    -0.249 OA
BRANCH  21  23
ATOM     23  O   GLY A   2       3.852  -7.684  23.944  0.00  0.00    -0.480 OA
ATOM     24  H   GLY A   2       3.897  -8.171  23.098  0.00  0.00    +0.295 HD
ENDBRANCH  21  23
ENDBRANCH  20  21
ENDBRANCH  17  20
ENDBRANCH   1  16
BRANCH   1  25
ATOM     25  C   UNK A   1       7.785  -2.068  22.353  0.00  0.00    +0.101 C 
BRANCH  25  26
ATOM     26  S   UNK A   1       9.520  -1.520  22.112  0.00  0.00    -0.154 S 
BRANCH  26  27
ATOM     27  C   UNK A   1       9.238   0.029  21.196  0.00  0.00    +0.104 C 
BRANCH  27  28
ATOM     28  C   UNK A   1       9.286   1.229  22.102  0.00  0.00    -0.037 A 
ATOM     29  C   UNK A   1       8.340   2.256  21.978  0.00  0.00    +0.018 A 
ATOM     30  C   UNK A   1       8.404   3.369  22.817  0.00  0.00    +0.014 A 
ATOM     31  I   UNK A   1       7.001   4.890  22.614  0.00  0.00    -0.044 I 
ATOM     32  C   UNK A   1       9.401   3.468  23.787  0.00  0.00    +0.014 A 
ATOM     33  C   UNK A   1      10.339   2.445  23.922  0.00  0.00    +0.001 A 
ATOM     34  C   UNK A   1      10.281   1.330  23.087  0.00  0.00    +0.004 A 
ENDBRANCH  27  28
ENDBRANCH  26  27
ENDBRANCH  25  26
ENDBRANCH   1  25
TORSDOF 15
ENDMDL
MODEL 2
REMARK VINA RESULT:      -6.2      2.028      3.420
REMARK  Name = 
REMARK  15 active torsions:
REMARK  status: ('A' for Active; 'I' for Inactive)
REMARK    1  A    between atoms: N_1  and  C_2
REMARK    2  A    between atoms: C_2  and  C_4
REMARK    3  A    between atoms: C_2  and  C_28
REMARK    4  A    between atoms: C_4  and  C_5
REMARK    5  A    between atoms: C_5  and  C_6
REMARK    6  A    between atoms: N_8  and  C_9
REMARK    7  A    between atoms: C_9  and  C_11
REMARK    8  A    between atoms: C_9  and  C_21
REMARK    9  A    between atoms: C_11  and  S_12
REMARK   10  A    between atoms: S_12  and  C_13
REMARK   11  A    between atoms: C_13  and  C_14
REMARK   12  A    between atoms: N_23  and  CA_24
REMARK   13  A    between atoms: CA_24  and  C_25
REMARK   14  A    between atoms: C_25  and  O_26
REMARK   15  A    between atoms: C_28  and  O_29
REMARK                            x       y       z     vdW  Elec       q    Type
REMARK                         _______ _______ _______ _____ _____    ______ ____
ROOT
ATOM      1  C   UNK A   1       7.598  -3.593  25.942  0.00  0.00    +0.169 C 
ENDROOT
BRANCH   1   3
ATOM      2  C   UNK A   1       6.425  -5.283  27.343  0.00  0.00    +0.214 C 
ATOM      3  N   UNK A   1       6.389  -4.234  26.458  0.00  0.00    -0.303 N 
ATOM      4  H   UNK A   1       5.499  -3.960  26.052  0.00  0.00    +0.149 HD
ATOM      5  O   UNK A   1       7.466  -5.788  27.747  0.00  0.00    -0.276 OA
BRANCH   2   6
ATOM      6  C   UNK A   1       5.062  -5.773  27.777  0.00  0.00    +0.098 C 
BRANCH   6   7
ATOM      7  C   UNK A   1       4.702  -7.092  27.093  0.00  0.00    +0.039 C 
BRANCH   7   8
ATOM      8  C   UNK A   1       3.677  -6.931  25.962  0.00  0.00    +0.161 C 
BRANCH   8   9
ATOM      9  N   UNK A   1       2.994  -8.242  25.708  0.00  0.00    -0.318 NA
ATOM     10  H   UNK A   1       2.076  -8.230  26.168  0.00  0.00    +0.119 HD
ATOM     11  H   UNK A   1       2.764  -8.283  24.710  0.00  0.00    +0.119 HD
ENDBRANCH   8   9
BRANCH   8  12
ATOM     12  C   UNK A   1       4.316  -6.469  24.633  0.00  0.00    +0.322 C 
ATOM     13  O   UNK A   1       4.556  -5.314  24.321  0.00  0.00    -0.249 OA
BRANCH  12  14
ATOM     14  O   UNK A   1       4.576  -7.524  23.817  0.00  0.00    -0.480 OA
ATOM     15  H   UNK A   1       3.698  -7.787  23.441  0.00  0.00    +0.295 HD
ENDBRANCH  12  14
ENDBRANCH   8  12
ENDBRANCH   7   8
ENDBRANCH   6   7
ENDBRANCH   2   6
ENDBRANCH   1   3
BRANCH   1  16
ATOM     16  C   UNK A   1       8.037  -4.296  24.640  0.00  0.00    +0.235 C 
ATOM     17  N   GLY A   2       7.249  -4.040  23.530  0.00  0.00    -0.303 N 
ATOM     18  H   GLY A   2       6.315  -3.665  23.653  0.00  0.00    +0.149 HD
ATOM     19  O   UNK A   1       9.057  -4.976  24.558  0.00  0.00    -0.274 OA
BRANCH  17  20
ATOM     20  CA  GLY A   2       7.519  -4.700  22.248  0.00  0.00    +0.224 C 
BRANCH  20  21
ATOM     21  C   GLY A   2       6.260  -5.023  21.443  0.00  0.00    +0.322 C 
ATOM     22  OXT GLY A   2       5.693  -4.216  20.721  0.00  0.00    -0.249 OA
BRANCH  21  23
ATOM     23  O   GLY A   2       5.855  -6.310  21.550  0.00  0.00    -0.480 OA
ATOM     24  H   GLY A   2       6.464  -6.900  21.065  0.00  0.00    +0.295 HD
ENDBRANCH  21  23
ENDBRANCH  20  21
ENDBRANCH  17  20
ENDBRANCH   1  16
BRANCH   1  25
ATOM     25  C   UNK A   1       7.382  -2.088  25.724  0.00  0.00    +0.101 C 
BRANCH  25  26
ATOM     26  S   UNK A   1       8.808  -1.035  26.197  0.00  0.00    -0.154 S 
BRANCH  26  27
ATOM     27  C   UNK A   1       9.826  -1.186  24.695  0.00  0.00    +0.104 C 
BRANCH  27  28
ATOM     28  C   UNK A   1       9.591  -0.043  23.745  0.00  0.00    -0.037 A 
ATOM     29  C   UNK A   1       9.408   1.260  24.227  0.00  0.00    +0.018 A 
ATOM     30  C   UNK A   1       9.179   2.309  23.336  0.00  0.00    +0.014 A 
ATOM     31  I   UNK A   1       8.898   4.235  24.066  0.00  0.00    -0.044 I 
ATOM     32  C   UNK A   1       9.136   2.073  21.962  0.00  0.00    +0.014 A 
ATOM     33  C   UNK A   1       9.327   0.780  21.475  0.00  0.00    +0.001 A 
ATOM     34  C   UNK A   1       9.557  -0.272  22.360  0.00  0.00    +0.004 A 
ENDBRANCH  27  28
ENDBRANCH  26  27
ENDBRANCH  25  26
ENDBRANCH   1  25
TORSDOF 15
ENDMDL
MODEL 3
REMARK VINA RESULT:      -5.9      2.205      4.509
REMARK  Name = 
REMARK  15 active torsions:
REMARK  status: ('A' for Active; 'I' for Inactive)
REMARK    1  A    between atoms: N_1  and  C_2
REMARK    2  A    between atoms: C_2  and  C_4
REMARK    3  A    between atoms: C_2  and  C_28
REMARK    4  A    between atoms: C_4  and  C_5
REMARK    5  A    between atoms: C_5  and  C_6
REMARK    6  A    between atoms: N_8  and  C_9
REMARK    7  A    between atoms: C_9  and  C_11
REMARK    8  A    between atoms: C_9  and  C_21
REMARK    9  A    between atoms: C_11  and  S_12
REMARK   10  A    between atoms: S_12  and  C_13
REMARK   11  A    between atoms: C_13  and  C_14
REMARK   12  A    between atoms: N_23  and  CA_24
REMARK   13  A    between atoms: CA_24  and  C_25
REMARK   14  A    between atoms: C_25  and  O_26
REMARK   15  A    between atoms: C_28  and  O_29
REMARK                            x       y       z     vdW  Elec       q    Type
REMARK                         _______ _______ _______ _____ _____    ______ ____
ROOT
ATOM      1  C   UNK A   1       7.675  -3.184  25.703  0.00  0.00    +0.169 C 
ENDROOT
BRANCH   1   3
ATOM      2  C   UNK A   1       6.536  -5.350  26.152  0.00  0.00    +0.214 C 
ATOM      3  N   UNK A   1       6.513  -4.070  25.655  0.00  0.00    -0.303 N 
ATOM      4  H   UNK A   1       5.701  -3.758  25.132  0.00  0.00    +0.149 HD
ATOM      5  O   UNK A   1       7.535  -5.865  26.643  0.00  0.00    -0.276 OA
BRANCH   2   6
ATOM      6  C   UNK A   1       5.218  -6.083  26.035  0.00  0.00    +0.098 C 
BRANCH   6   7
ATOM      7  C   UNK A   1       4.990  -6.593  24.613  0.00  0.00    +0.039 C 
BRANCH   7   8
ATOM      8  C   UNK A   1       4.066  -5.691  23.783  0.00  0.00    +0.161 C 
BRANCH   8   9
ATOM      9  N   UNK A   1       3.150  -6.535  22.949  0.00  0.00    -0.318 NA
ATOM     10  H   UNK A   1       2.303  -6.737  23.493  0.00  0.00    +0.119 HD
ATOM     11  H   UNK A   1       2.809  -5.953  22.177  0.00  0.00    +0.119 HD
ENDBRANCH   8   9
BRANCH   8  12
ATOM     12  C   UNK A   1       4.842  -4.755  22.829  0.00  0.00    +0.322 C 
ATOM     13  O   UNK A   1       5.378  -5.087  21.784  0.00  0.00    -0.249 OA
BRANCH  12  14
ATOM     14  O   UNK A   1       4.877  -3.483  23.304  0.00  0.00    -0.480 OA
ATOM     15  H   UNK A   1       4.777  -3.566  24.286  0.00  0.00    +0.295 HD
ENDBRANCH  12  14
ENDBRANCH   8  12
ENDBRANCH   7   8
ENDBRANCH   6   7
ENDBRANCH   2   6
ENDBRANCH   1   3
BRANCH   1  16
ATOM     16  C   UNK A   1       8.384  -3.192  24.332  0.00  0.00    +0.235 C 
ATOM     17  N   GLY A   2       7.780  -2.433  23.344  0.00  0.00    -0.303 N 
ATOM     18  H   GLY A   2       6.811  -2.151  23.449  0.00  0.00    +0.149 HD
ATOM     19  O   UNK A   1       9.454  -3.764  24.136  0.00  0.00    -0.274 OA
BRANCH  17  20
ATOM     20  CA  GLY A   2       8.317  -2.413  21.979  0.00  0.00    +0.224 C 
BRANCH  20  21
ATOM     21  C   GLY A   2       9.397  -1.354  21.757  0.00  0.00    +0.322 C 
ATOM     22  OXT GLY A   2       9.167  -0.229  21.339  0.00  0.00    -0.249 OA
BRANCH  21  23
ATOM     23  O   GLY A   2      10.639  -1.751  22.122  0.00  0.00    -0.480 OA
ATOM     24  H   GLY A   2      11.206  -1.863  21.335  0.00  0.00    +0.295 HD
ENDBRANCH  21  23
ENDBRANCH  20  21
ENDBRANCH  17  20
ENDBRANCH   1  16
BRANCH   1  25
ATOM     25  C   UNK A   1       7.274  -1.761  26.120  0.00  0.00    +0.101 C 
BRANCH  25  26
ATOM     26  S   UNK A   1       8.633  -0.766  26.848  0.00  0.00    -0.154 S 
BRANCH  26  27
ATOM     27  C   UNK A   1       9.672  -0.522  25.372  0.00  0.00    +0.104 C 
BRANCH  27  28
ATOM     28  C   UNK A   1       9.594   0.892  24.863  0.00  0.00    -0.037 A 
ATOM     29  C   UNK A   1       8.504   1.709  25.190  0.00  0.00    +0.018 A 
ATOM     30  C   UNK A   1       8.439   3.015  24.702  0.00  0.00    +0.014 A 
ATOM     31  I   UNK A   1       6.811   4.213  25.186  0.00  0.00    -0.044 I 
ATOM     32  C   UNK A   1       9.455   3.518  23.890  0.00  0.00    +0.014 A 
ATOM     33  C   UNK A   1      10.548   2.713  23.569  0.00  0.00    +0.001 A 
ATOM     34  C   UNK A   1      10.619   1.409  24.054  0.00  0.00    +0.004 A 
ENDBRANCH  27  28
ENDBRANCH  26  27
ENDBRANCH  25  26
ENDBRANCH   1  25
TORSDOF 15
ENDMDL
MODEL 4
REMARK VINA RESULT:      -5.9      3.883      7.357
REMARK  Name = 
REMARK  15 active torsions:
REMARK  status: ('A' for Active; 'I' for Inactive)
REMARK    1  A    between atoms: N_1  and  C_2
REMARK    2  A    between atoms: C_2  and  C_4
REMARK    3  A    between atoms: C_2  and  C_28
REMARK    4  A    between atoms: C_4  and  C_5
REMARK    5  A    between atoms: C_5  and  C_6
REMARK    6  A    between atoms: N_8  and  C_9
REMARK    7  A    between atoms: C_9  and  C_11
REMARK    8  A    between atoms: C_9  and  C_21
REMARK    9  A    between atoms: C_11  and  S_12
REMARK   10  A    between atoms: S_12  and  C_13
REMARK   11  A    between atoms: C_13  and  C_14
REMARK   12  A    between atoms: N_23  and  CA_24
REMARK   13  A    between atoms: CA_24  and  C_25
REMARK   14  A    between atoms: C_25  and  O_26
REMARK   15  A    between atoms: C_28  and  O_29
REMARK                            x       y       z     vdW  Elec       q    Type
REMARK                         _______ _______ _______ _____ _____    ______ ____
ROOT
ATOM      1  C   UNK A   1       9.575  -1.447  24.834  0.00  0.00    +0.169 C 
ENDROOT
BRANCH   1   3
ATOM      2  C   UNK A   1      10.318   0.896  24.447  0.00  0.00    +0.214 C 
ATOM      3  N   UNK A   1       9.328  -0.054  24.460  0.00  0.00    -0.303 N 
ATOM      4  H   UNK A   1       8.365   0.233  24.317  0.00  0.00    +0.149 HD
ATOM      5  O   UNK A   1      11.477   0.668  24.777  0.00  0.00    -0.276 OA
BRANCH   2   6
ATOM      6  C   UNK A   1       9.858   2.264  23.995  0.00  0.00    +0.098 C 
BRANCH   6   7
ATOM      7  C   UNK A   1       8.332   2.343  23.931  0.00  0.00    +0.039 C 
BRANCH   7   8
ATOM      8  C   UNK A   1       7.789   2.498  22.504  0.00  0.00    +0.161 C 
BRANCH   8   9
ATOM      9  N   UNK A   1       8.901   2.306  21.516  0.00  0.00    -0.318 NA
ATOM     10  H   UNK A   1       8.883   3.083  20.846  0.00  0.00    +0.119 HD
ATOM     11  H   UNK A   1       9.786   2.438  22.016  0.00  0.00    +0.119 HD
ENDBRANCH   8   9
BRANCH   8  12
ATOM     12  C   UNK A   1       7.167   3.889  22.247  0.00  0.00    +0.322 C 
ATOM     13  O   UNK A   1       7.696   4.963  22.488  0.00  0.00    -0.249 OA
BRANCH  12  14
ATOM     14  O   UNK A   1       5.919   3.783  21.722  0.00  0.00    -0.480 OA
ATOM     15  H   UNK A   1       6.027   3.249  20.894  0.00  0.00    +0.295 HD
ENDBRANCH  12  14
ENDBRANCH   8  12
ENDBRANCH   7   8
ENDBRANCH   6   7
ENDBRANCH   2   6
ENDBRANCH   1   3
BRANCH   1  16
ATOM     16  C   UNK A   1       8.587  -1.864  25.944  0.00  0.00    +0.235 C 
ATOM     17  N   GLY A   2       8.176  -3.186  25.910  0.00  0.00    -0.303 N 
ATOM     18  H   GLY A   2       8.293  -3.726  25.060  0.00  0.00    +0.149 HD
ATOM     19  O   UNK A   1       8.239  -1.108  26.848  0.00  0.00    -0.274 OA
BRANCH  17  20
ATOM     20  CA  GLY A   2       7.185  -3.690  26.867  0.00  0.00    +0.224 C 
BRANCH  20  21
ATOM     21  C   GLY A   2       7.080  -5.215  26.901  0.00  0.00    +0.322 C 
ATOM     22  OXT GLY A   2       7.361  -5.892  27.879  0.00  0.00    -0.249 OA
BRANCH  21  23
ATOM     23  O   GLY A   2       6.585  -5.756  25.763  0.00  0.00    -0.480 OA
ATOM     24  H   GLY A   2       6.779  -5.179  24.999  0.00  0.00    +0.295 HD
ENDBRANCH  21  23
ENDBRANCH  20  21
ENDBRANCH  17  20
ENDBRANCH   1  16
BRANCH   1  25
ATOM     25  C   UNK A   1       9.478  -2.377  23.616  0.00  0.00    +0.101 C 
BRANCH  25  26
ATOM     26  S   UNK A   1       8.529  -1.692  22.203  0.00  0.00    -0.154 S 
BRANCH  26  27
ATOM     27  C   UNK A   1       6.832  -1.909  22.827  0.00  0.00    +0.104 C 
BRANCH  27  28
ATOM     28  C   UNK A   1       6.356  -3.328  22.664  0.00  0.00    -0.037 A 
ATOM     29  C   UNK A   1       5.081  -3.708  23.103  0.00  0.00    +0.018 A 
ATOM     30  C   UNK A   1       4.657  -5.030  22.956  0.00  0.00    +0.014 A 
ATOM     31  I   UNK A   1       2.767  -5.582  23.621  0.00  0.00    -0.044 I 
ATOM     32  C   UNK A   1       5.494  -5.980  22.371  0.00  0.00    +0.014 A 
ATOM     33  C   UNK A   1       6.760  -5.606  21.923  0.00  0.00    +0.001 A 
ATOM     34  C   UNK A   1       7.189  -4.287  22.066  0.00  0.00    +0.004 A 
ENDBRANCH  27  28
ENDBRANCH  26  27
ENDBRANCH  25  26
ENDBRANCH   1  25
TORSDOF 15
ENDMDL
MODEL 5
REMARK VINA RESULT:      -5.8      2.890      5.485
REMARK  Name = 
REMARK  15 active torsions:
REMARK  status: ('A' for Active; 'I' for Inactive)
REMARK    1  A    between atoms: N_1  and  C_2
REMARK    2  A    between atoms: C_2  and  C_4
REMARK    3  A    between atoms: C_2  and  C_28
REMARK    4  A    between atoms: C_4  and  C_5
REMARK    5  A    between atoms: C_5  and  C_6
REMARK    6  A    between atoms: N_8  and  C_9
REMARK    7  A    between atoms: C_9  and  C_11
REMARK    8  A    between atoms: C_9  and  C_21
REMARK    9  A    between atoms: C_11  and  S_12
REMARK   10  A    between atoms: S_12  and  C_13
REMARK   11  A    between atoms: C_13  and  C_14
REMARK   12  A    between atoms: N_23  and  CA_24
REMARK   13  A    between atoms: CA_24  and  C_25
REMARK   14  A    between atoms: C_25  and  O_26
REMARK   15  A    between atoms: C_28  and  O_29
REMARK                            x       y       z     vdW  Elec       q    Type
REMARK                         _______ _______ _______ _____ _____    ______ ____
ROOT
ATOM      1  C   UNK A   1       8.536  -1.709  25.719  0.00  0.00    +0.169 C 
ENDROOT
BRANCH   1   3
ATOM      2  C   UNK A   1       7.794  -4.081  25.840  0.00  0.00    +0.214 C 
ATOM      3  N   UNK A   1       7.639  -2.805  25.357  0.00  0.00    -0.303 N 
ATOM      4  H   UNK A   1       6.948  -2.632  24.633  0.00  0.00    +0.149 HD
ATOM      5  O   UNK A   1       8.711  -4.413  26.584  0.00  0.00    -0.276 OA
BRANCH   2   6
ATOM      6  C   UNK A   1       6.736  -5.054  25.371  0.00  0.00    +0.098 C 
BRANCH   6   7
ATOM      7  C   UNK A   1       6.143  -4.624  24.029  0.00  0.00    +0.039 C 
BRANCH   7   8
ATOM      8  C   UNK A   1       7.073  -4.891  22.838  0.00  0.00    +0.161 C 
BRANCH   8   9
ATOM      9  N   UNK A   1       7.575  -3.590  22.286  0.00  0.00    -0.318 NA
ATOM     10  H   UNK A   1       8.588  -3.664  22.140  0.00  0.00    +0.119 HD
ATOM     11  H   UNK A   1       7.200  -3.491  21.338  0.00  0.00    +0.119 HD
ENDBRANCH   8   9
BRANCH   8  12
ATOM     12  C   UNK A   1       6.372  -5.650  21.688  0.00  0.00    +0.322 C 
ATOM     13  O   UNK A   1       5.933  -5.148  20.666  0.00  0.00    -0.249 OA
BRANCH  12  14
ATOM     14  O   UNK A   1       6.280  -6.978  21.957  0.00  0.00    -0.480 OA
ATOM     15  H   UNK A   1       7.215  -7.297  22.030  0.00  0.00    +0.295 HD
ENDBRANCH  12  14
ENDBRANCH   8  12
ENDBRANCH   7   8
ENDBRANCH   6   7
ENDBRANCH   2   6
ENDBRANCH   1   3
BRANCH   1  16
ATOM     16  C   UNK A   1       9.458  -1.384  24.524  0.00  0.00    +0.235 C 
ATOM     17  N   GLY A   2       9.744  -0.041  24.340  0.00  0.00    -0.303 N 
ATOM     18  H   GLY A   2       9.157   0.662  24.777  0.00  0.00    +0.149 HD
ATOM     19  O   UNK A   1       9.974  -2.250  23.823  0.00  0.00    -0.274 OA
BRANCH  17  20
ATOM     20  CA  GLY A   2      10.552   0.406  23.201  0.00  0.00    +0.224 C 
BRANCH  20  21
ATOM     21  C   GLY A   2       9.741   1.088  22.098  0.00  0.00    +0.322 C 
ATOM     22  OXT GLY A   2       8.698   0.639  21.649  0.00  0.00    -0.249 OA
BRANCH  21  23
ATOM     23  O   GLY A   2      10.250   2.277  21.698  0.00  0.00    -0.480 OA
ATOM     24  H   GLY A   2      11.114   2.148  21.261  0.00  0.00    +0.295 HD
ENDBRANCH  21  23
ENDBRANCH  20  21
ENDBRANCH  17  20
ENDBRANCH   1  16
BRANCH   1  25
ATOM     25  C   UNK A   1       7.749  -0.471  26.174  0.00  0.00    +0.101 C 
BRANCH  25  26
ATOM     26  S   UNK A   1       6.237  -0.123  25.196  0.00  0.00    -0.154 S 
BRANCH  26  27
ATOM     27  C   UNK A   1       6.014   1.644  25.574  0.00  0.00    +0.104 C 
BRANCH  27  28
ATOM     28  C   UNK A   1       6.516   2.520  24.458  0.00  0.00    -0.037 A 
ATOM     29  C   UNK A   1       7.544   3.445  24.683  0.00  0.00    +0.018 A 
ATOM     30  C   UNK A   1       7.991   4.260  23.642  0.00  0.00    +0.014 A 
ATOM     31  I   UNK A   1       9.510   5.635  23.993  0.00  0.00    -0.044 I 
ATOM     32  C   UNK A   1       7.425   4.158  22.371  0.00  0.00    +0.014 A 
ATOM     33  C   UNK A   1       6.408   3.233  22.138  0.00  0.00    +0.001 A 
ATOM     34  C   UNK A   1       5.957   2.416  23.174  0.00  0.00    +0.004 A 
ENDBRANCH  27  28
ENDBRANCH  26  27
ENDBRANCH  25  26
ENDBRANCH   1  25
TORSDOF 15
ENDMDL
MODEL 6
REMARK VINA RESULT:      -5.8      1.972      4.177
REMARK  Name = 
REMARK  15 active torsions:
REMARK  status: ('A' for Active; 'I' for Inactive)
REMARK    1  A    between atoms: N_1  and  C_2
REMARK    2  A    between atoms: C_2  and  C_4
REMARK    3  A    between atoms: C_2  and  C_28
REMARK    4  A    between atoms: C_4  and  C_5
REMARK    5  A    between atoms: C_5  and  C_6
REMARK    6  A    between atoms: N_8  and  C_9
REMARK    7  A    between atoms: C_9  and  C_11
REMARK    8  A    between atoms: C_9  and  C_21
REMARK    9  A    between atoms: C_11  and  S_12
REMARK   10  A    between atoms: S_12  and  C_13
REMARK   11  A    between atoms: C_13  and  C_14
REMARK   12  A    between atoms: N_23  and  CA_24
REMARK   13  A    between atoms: CA_24  and  C_25
REMARK   14  A    between atoms: C_25  and  O_26
REMARK   15  A    between atoms: C_28  and  O_29
REMARK                            x       y       z     vdW  Elec       q    Type
REMARK                         _______ _______ _______ _____ _____    ______ ____
ROOT
ATOM      1  C   UNK A   1       7.195  -2.988  26.107  0.00  0.00    +0.169 C 
ENDROOT
BRANCH   1   3
ATOM      2  C   UNK A   1       5.530  -2.761  24.273  0.00  0.00    +0.214 C 
ATOM      3  N   UNK A   1       6.646  -3.358  24.803  0.00  0.00    -0.303 N 
ATOM      4  H   UNK A   1       7.045  -4.165  24.334  0.00  0.00    +0.149 HD
ATOM      5  O   UNK A   1       4.885  -1.896  24.857  0.00  0.00    -0.276 OA
BRANCH   2   6
ATOM      6  C   UNK A   1       5.152  -3.265  22.898  0.00  0.00    +0.098 C 
BRANCH   6   7
ATOM      7  C   UNK A   1       4.243  -4.491  22.987  0.00  0.00    +0.039 C 
BRANCH   7   8
ATOM      8  C   UNK A   1       5.000  -5.820  22.861  0.00  0.00    +0.161 C 
BRANCH   8   9
ATOM      9  N   UNK A   1       5.412  -6.298  24.221  0.00  0.00    -0.318 NA
ATOM     10  H   UNK A   1       6.372  -6.657  24.167  0.00  0.00    +0.119 HD
ATOM     11  H   UNK A   1       5.494  -5.475  24.827  0.00  0.00    +0.119 HD
ENDBRANCH   8   9
BRANCH   8  12
ATOM     12  C   UNK A   1       6.275  -5.705  21.997  0.00  0.00    +0.322 C 
ATOM     13  O   UNK A   1       7.416  -5.598  22.419  0.00  0.00    -0.249 OA
BRANCH  12  14
ATOM     14  O   UNK A   1       5.977  -5.718  20.671  0.00  0.00    -0.480 OA
ATOM     15  H   UNK A   1       5.097  -5.271  20.595  0.00  0.00    +0.295 HD
ENDBRANCH  12  14
ENDBRANCH   8  12
ENDBRANCH   7   8
ENDBRANCH   6   7
ENDBRANCH   2   6
ENDBRANCH   1   3
BRANCH   1  16
ATOM     16  C   UNK A   1       7.182  -4.219  27.039  0.00  0.00    +0.235 C 
ATOM     17  N   GLY A   2       5.980  -4.470  27.678  0.00  0.00    -0.303 N 
ATOM     18  H   GLY A   2       5.283  -3.735  27.744  0.00  0.00    +0.149 HD
ATOM     19  O   UNK A   1       8.140  -4.980  27.156  0.00  0.00    -0.274 OA
BRANCH  17  20
ATOM     20  CA  GLY A   2       5.856  -5.568  28.642  0.00  0.00    +0.224 C 
BRANCH  20  21
ATOM     21  C   GLY A   2       5.116  -6.789  28.095  0.00  0.00    +0.322 C 
ATOM     22  OXT GLY A   2       5.165  -7.143  26.926  0.00  0.00    -0.249 OA
BRANCH  21  23
ATOM     23  O   GLY A   2       4.441  -7.490  29.036  0.00  0.00    -0.480 OA
ATOM     24  H   GLY A   2       4.291  -8.407  28.736  0.00  0.00    +0.295 HD
ENDBRANCH  21  23
ENDBRANCH  20  21
ENDBRANCH  17  20
ENDBRANCH   1  16
BRANCH   1  25
ATOM     25  C   UNK A   1       8.608  -2.402  25.971  0.00  0.00    +0.101 C 
BRANCH  25  26
ATOM     26  S   UNK A   1       9.257  -2.359  24.256  0.00  0.00    -0.154 S 
BRANCH  26  27
ATOM     27  C   UNK A   1      10.184  -0.792  24.307  0.00  0.00    +0.104 C 
BRANCH  27  28
ATOM     28  C   UNK A   1       9.534   0.268  23.460  0.00  0.00    -0.037 A 
ATOM     29  C   UNK A   1       8.947   1.395  24.052  0.00  0.00    +0.018 A 
ATOM     30  C   UNK A   1       8.337   2.364  23.255  0.00  0.00    +0.014 A 
ATOM     31  I   UNK A   1       7.461   4.025  24.147  0.00  0.00    -0.044 I 
ATOM     32  C   UNK A   1       8.309   2.225  21.867  0.00  0.00    +0.014 A 
ATOM     33  C   UNK A   1       8.900   1.111  21.272  0.00  0.00    +0.001 A 
ATOM     34  C   UNK A   1       9.511   0.139  22.062  0.00  0.00    +0.004 A 
ENDBRANCH  27  28
ENDBRANCH  26  27
ENDBRANCH  25  26
ENDBRANCH   1  25
TORSDOF 15
ENDMDL
MODEL 7
REMARK VINA RESULT:      -5.7      4.563      8.198
REMARK  Name = 
REMARK  15 active torsions:
REMARK  status: ('A' for Active; 'I' for Inactive)
REMARK    1  A    between atoms: N_1  and  C_2
REMARK    2  A    between atoms: C_2  and  C_4
REMARK    3  A    between atoms: C_2  and  C_28
REMARK    4  A    between atoms: C_4  and  C_5
REMARK    5  A    between atoms: C_5  and  C_6
REMARK    6  A    between atoms: N_8  and  C_9
REMARK    7  A    between atoms: C_9  and  C_11
REMARK    8  A    between atoms: C_9  and  C_21
REMARK    9  A    between atoms: C_11  and  S_12
REMARK   10  A    between atoms: S_12  and  C_13
REMARK   11  A    between atoms: C_13  and  C_14
REMARK   12  A    between atoms: N_23  and  CA_24
REMARK   13  A    between atoms: CA_24  and  C_25
REMARK   14  A    between atoms: C_25  and  O_26
REMARK   15  A    between atoms: C_28  and  O_29
REMARK                            x       y       z     vdW  Elec       q    Type
REMARK                         _______ _______ _______ _____ _____    ______ ____
ROOT
ATOM      1  C   UNK A   1       6.927  -0.906  24.594  0.00  0.00    +0.169 C 
ENDROOT
BRANCH   1   3
ATOM      2  C   UNK A   1       9.325  -0.244  24.638  0.00  0.00    +0.214 C 
ATOM      3  N   UNK A   1       8.156  -0.448  23.948  0.00  0.00    -0.303 N 
ATOM      4  H   UNK A   1       8.101  -0.164  22.975  0.00  0.00    +0.149 HD
ATOM      5  O   UNK A   1       9.428  -0.396  25.850  0.00  0.00    -0.276 OA
BRANCH   2   6
ATOM      6  C   UNK A   1      10.486   0.195  23.773  0.00  0.00    +0.098 C 
BRANCH   6   7
ATOM      7  C   UNK A   1      10.058   0.370  22.316  0.00  0.00    +0.039 C 
BRANCH   7   8
ATOM      8  C   UNK A   1       9.850   1.837  21.915  0.00  0.00    +0.161 C 
BRANCH   8   9
ATOM      9  N   UNK A   1      10.571   2.732  22.879  0.00  0.00    -0.318 NA
ATOM     10  H   UNK A   1      11.533   2.867  22.546  0.00  0.00    +0.119 HD
ATOM     11  H   UNK A   1      10.155   3.666  22.803  0.00  0.00    +0.119 HD
ENDBRANCH   8   9
BRANCH   8  12
ATOM     12  C   UNK A   1       8.362   2.252  21.910  0.00  0.00    +0.322 C 
ATOM     13  O   UNK A   1       7.419   1.524  21.647  0.00  0.00    -0.249 OA
BRANCH  12  14
ATOM     14  O   UNK A   1       8.215   3.565  22.226  0.00  0.00    -0.480 OA
ATOM     15  H   UNK A   1       7.245   3.750  22.137  0.00  0.00    +0.295 HD
ENDBRANCH  12  14
ENDBRANCH   8  12
ENDBRANCH   7   8
ENDBRANCH   6   7
ENDBRANCH   2   6
ENDBRANCH   1   3
BRANCH   1  16
ATOM     16  C   UNK A   1       5.990   0.298  24.829  0.00  0.00    +0.235 C 
ATOM     17  N   GLY A   2       6.493   1.529  24.443  0.00  0.00    -0.303 N 
ATOM     18  H   GLY A   2       7.490   1.640  24.299  0.00  0.00    +0.149 HD
ATOM     19  O   UNK A   1       4.844   0.179  25.257  0.00  0.00    -0.274 OA
BRANCH  17  20
ATOM     20  CA  GLY A   2       5.729   2.759  24.676  0.00  0.00    +0.224 C 
BRANCH  20  21
ATOM     21  C   GLY A   2       4.847   3.171  23.496  0.00  0.00    +0.322 C 
ATOM     22  OXT GLY A   2       5.210   3.935  22.615  0.00  0.00    -0.249 OA
BRANCH  21  23
ATOM     23  O   GLY A   2       3.637   2.564  23.477  0.00  0.00    -0.480 OA
ATOM     24  H   GLY A   2       2.958   3.170  23.123  0.00  0.00    +0.295 HD
ENDBRANCH  21  23
ENDBRANCH  20  21
ENDBRANCH  17  20
ENDBRANCH   1  16
BRANCH   1  25
ATOM     25  C   UNK A   1       6.237  -2.002  23.768  0.00  0.00    +0.101 C 
BRANCH  25  26
ATOM     26  S   UNK A   1       7.363  -2.969  22.689  0.00  0.00    -0.154 S 
BRANCH  26  27
ATOM     27  C   UNK A   1       7.898  -4.256  23.862  0.00  0.00    +0.104 C 
BRANCH  27  28
ATOM     28  C   UNK A   1       6.746  -5.114  24.310  0.00  0.00    -0.037 A 
ATOM     29  C   UNK A   1       6.502  -5.325  25.674  0.00  0.00    +0.018 A 
ATOM     30  C   UNK A   1       5.438  -6.133  26.076  0.00  0.00    +0.014 A 
ATOM     31  I   UNK A   1       5.095  -6.447  28.102  0.00  0.00    -0.044 I 
ATOM     32  C   UNK A   1       4.606  -6.731  25.129  0.00  0.00    +0.014 A 
ATOM     33  C   UNK A   1       4.837  -6.516  23.771  0.00  0.00    +0.001 A 
ATOM     34  C   UNK A   1       5.899  -5.710  23.363  0.00  0.00    +0.004 A 
ENDBRANCH  27  28
ENDBRANCH  26  27
ENDBRANCH  25  26
ENDBRANCH   1  25
TORSDOF 15
ENDMDL
MODEL 8
REMARK VINA RESULT:      -5.6      2.151      2.599
REMARK  Name = 
REMARK  15 active torsions:
REMARK  status: ('A' for Active; 'I' for Inactive)
REMARK    1  A    between atoms: N_1  and  C_2
REMARK    2  A    between atoms: C_2  and  C_4
REMARK    3  A    between atoms: C_2  and  C_28
REMARK    4  A    between atoms: C_4  and  C_5
REMARK    5  A    between atoms: C_5  and  C_6
REMARK    6  A    between atoms: N_8  and  C_9
REMARK    7  A    between atoms: C_9  and  C_11
REMARK    8  A    between atoms: C_9  and  C_21
REMARK    9  A    between atoms: C_11  and  S_12
REMARK   10  A    between atoms: S_12  and  C_13
REMARK   11  A    between atoms: C_13  and  C_14
REMARK   12  A    between atoms: N_23  and  CA_24
REMARK   13  A    between atoms: CA_24  and  C_25
REMARK   14  A    between atoms: C_25  and  O_26
REMARK   15  A    between atoms: C_28  and  O_29
REMARK                            x       y       z     vdW  Elec       q    Type
REMARK                         _______ _______ _______ _____ _____    ______ ____
ROOT
ATOM      1  C   UNK A   1       6.205  -2.608  23.319  0.00  0.00    +0.169 C 
ENDROOT
BRANCH   1   3
ATOM      2  C   UNK A   1       8.661  -2.897  23.598  0.00  0.00    +0.214 C 
ATOM      3  N   UNK A   1       7.378  -3.103  24.040  0.00  0.00    -0.303 N 
ATOM      4  H   UNK A   1       7.221  -3.717  24.833  0.00  0.00    +0.149 HD
ATOM      5  O   UNK A   1       8.929  -2.314  22.553  0.00  0.00    -0.276 OA
BRANCH   2   6
ATOM      6  C   UNK A   1       9.728  -3.459  24.511  0.00  0.00    +0.098 C 
BRANCH   6   7
ATOM      7  C   UNK A   1       9.253  -3.497  25.963  0.00  0.00    +0.039 C 
BRANCH   7   8
ATOM      8  C   UNK A   1       9.154  -4.918  26.535  0.00  0.00    +0.161 C 
BRANCH   8   9
ATOM      9  N   UNK A   1       9.527  -5.915  25.478  0.00  0.00    -0.318 NA
ATOM     10  H   UNK A   1       9.390  -5.485  24.557  0.00  0.00    +0.119 HD
ATOM     11  H   UNK A   1      10.541  -6.058  25.531  0.00  0.00    +0.119 HD
ENDBRANCH   8   9
BRANCH   8  12
ATOM     12  C   UNK A   1       7.733  -5.267  27.031  0.00  0.00    +0.322 C 
ATOM     13  O   UNK A   1       7.463  -6.061  27.918  0.00  0.00    -0.249 OA
BRANCH  12  14
ATOM     14  O   UNK A   1       6.786  -4.585  26.338  0.00  0.00    -0.480 OA
ATOM     15  H   UNK A   1       6.609  -3.767  26.869  0.00  0.00    +0.295 HD
ENDBRANCH  12  14
ENDBRANCH   8  12
ENDBRANCH   7   8
ENDBRANCH   6   7
ENDBRANCH   2   6
ENDBRANCH   1   3
BRANCH   1  16
ATOM     16  C   UNK A   1       5.147  -3.728  23.229  0.00  0.00    +0.235 C 
ATOM     17  N   GLY A   2       4.632  -4.160  24.440  0.00  0.00    -0.303 N 
ATOM     18  H   GLY A   2       5.131  -3.956  25.299  0.00  0.00    +0.149 HD
ATOM     19  O   UNK A   1       4.723  -4.163  22.161  0.00  0.00    -0.274 OA
BRANCH  17  20
ATOM     20  CA  GLY A   2       3.670  -5.266  24.496  0.00  0.00    +0.224 C 
BRANCH  20  21
ATOM     21  C   GLY A   2       4.300  -6.615  24.846  0.00  0.00    +0.322 C 
ATOM     22  OXT GLY A   2       4.764  -6.880  25.945  0.00  0.00    -0.249 OA
BRANCH  21  23
ATOM     23  O   GLY A   2       4.245  -7.523  23.844  0.00  0.00    -0.480 OA
ATOM     24  H   GLY A   2       3.772  -8.326  24.137  0.00  0.00    +0.295 HD
ENDBRANCH  21  23
ENDBRANCH  20  21
ENDBRANCH  17  20
ENDBRANCH   1  16
BRANCH   1  25
ATOM     25  C   UNK A   1       5.633  -1.347  23.983  0.00  0.00    +0.101 C 
BRANCH  25  26
ATOM     26  S   UNK A   1       6.324  -0.975  25.642  0.00  0.00    -0.154 S 
BRANCH  26  27
ATOM     27  C   UNK A   1       6.349   0.845  25.573  0.00  0.00    +0.104 C 
BRANCH  27  28
ATOM     28  C   UNK A   1       7.670   1.366  25.078  0.00  0.00    -0.037 A 
ATOM     29  C   UNK A   1       7.860   2.738  24.858  0.00  0.00    +0.018 A 
ATOM     30  C   UNK A   1       9.087   3.206  24.387  0.00  0.00    +0.014 A 
ATOM     31  I   UNK A   1       9.351   5.241  24.056  0.00  0.00    -0.044 I 
ATOM     32  C   UNK A   1      10.134   2.319  24.135  0.00  0.00    +0.014 A 
ATOM     33  C   UNK A   1       9.954   0.955  24.361  0.00  0.00    +0.001 A 
ATOM     34  C   UNK A   1       8.731   0.480  24.832  0.00  0.00    +0.004 A 
ENDBRANCH  27  28
ENDBRANCH  26  27
ENDBRANCH  25  26
ENDBRANCH   1  25
TORSDOF 15
ENDMDL
MODEL 9
REMARK VINA RESULT:      -5.6      5.917      9.539
REMARK  Name = 
REMARK  15 active torsions:
REMARK  status: ('A' for Active; 'I' for Inactive)
REMARK    1  A    between atoms: N_1  and  C_2
REMARK    2  A    between atoms: C_2  and  C_4
REMARK    3  A    between atoms: C_2  and  C_28
REMARK    4  A    between atoms: C_4  and  C_5
REMARK    5  A    between atoms: C_5  and  C_6
REMARK    6  A    between atoms: N_8  and  C_9
REMARK    7  A    between atoms: C_9  and  C_11
REMARK    8  A    between atoms: C_9  and  C_21
REMARK    9  A    between atoms: C_11  and  S_12
REMARK   10  A    between atoms: S_12  and  C_13
REMARK   11  A    between atoms: C_13  and  C_14
REMARK   12  A    between atoms: N_23  and  CA_24
REMARK   13  A    between atoms: CA_24  and  C_25
REMARK   14  A    between atoms: C_25  and  O_26
REMARK   15  A    between atoms: C_28  and  O_29
REMARK                            x       y       z     vdW  Elec       q    Type
REMARK                         _______ _______ _______ _____ _____    ______ ____
ROOT
ATOM      1  C   UNK A   1       8.517   2.793  24.770  0.00  0.00    +0.169 C 
ENDROOT
BRANCH   1   3
ATOM      2  C   UNK A   1       9.136   5.180  25.105  0.00  0.00    +0.214 C 
ATOM      3  N   UNK A   1       9.102   4.056  24.318  0.00  0.00    -0.303 N 
ATOM      4  H   UNK A   1       9.387   4.124  23.346  0.00  0.00    +0.149 HD
ATOM      5  O   UNK A   1       8.653   5.230  26.231  0.00  0.00    -0.276 OA
BRANCH   2   6
ATOM      6  C   UNK A   1       9.818   6.367  24.460  0.00  0.00    +0.098 C 
BRANCH   6   7
ATOM      7  C   UNK A   1      10.785   5.922  23.363  0.00  0.00    +0.039 C 
BRANCH   7   8
ATOM      8  C   UNK A   1      12.174   5.544  23.893  0.00  0.00    +0.161 C 
BRANCH   8   9
ATOM      9  N   UNK A   1      12.671   6.613  24.820  0.00  0.00    -0.318 NA
ATOM     10  H   UNK A   1      13.143   7.337  24.265  0.00  0.00    +0.119 HD
ATOM     11  H   UNK A   1      11.852   7.097  25.202  0.00  0.00    +0.119 HD
ENDBRANCH   8   9
BRANCH   8  12
ATOM     12  C   UNK A   1      13.220   5.375  22.767  0.00  0.00    +0.322 C 
ATOM     13  O   UNK A   1      13.012   5.520  21.573  0.00  0.00    -0.249 OA
BRANCH  12  14
ATOM     14  O   UNK A   1      14.432   5.020  23.268  0.00  0.00    -0.480 OA
ATOM     15  H   UNK A   1      15.055   5.059  22.499  0.00  0.00    +0.295 HD
ENDBRANCH  12  14
ENDBRANCH   8  12
ENDBRANCH   7   8
ENDBRANCH   6   7
ENDBRANCH   2   6
ENDBRANCH   1   3
BRANCH   1  16
ATOM     16  C   UNK A   1       7.154   2.581  24.077  0.00  0.00    +0.235 C 
ATOM     17  N   GLY A   2       6.844   3.492  23.080  0.00  0.00    -0.303 N 
ATOM     18  H   GLY A   2       7.343   4.374  23.034  0.00  0.00    +0.149 HD
ATOM     19  O   UNK A   1       6.419   1.629  24.326  0.00  0.00    -0.274 OA
BRANCH  17  20
ATOM     20  CA  GLY A   2       5.549   3.441  22.393  0.00  0.00    +0.224 C 
BRANCH  20  21
ATOM     21  C   GLY A   2       4.597   4.570  22.786  0.00  0.00    +0.322 C 
ATOM     22  OXT GLY A   2       3.433   4.634  22.418  0.00  0.00    -0.249 OA
BRANCH  21  23
ATOM     23  O   GLY A   2       5.138   5.474  23.636  0.00  0.00    -0.480 OA
ATOM     24  H   GLY A   2       5.411   5.040  24.468  0.00  0.00    +0.295 HD
ENDBRANCH  21  23
ENDBRANCH  20  21
ENDBRANCH  17  20
ENDBRANCH   1  16
BRANCH   1  25
ATOM     25  C   UNK A   1       9.468   1.615  24.513  0.00  0.00    +0.101 C 
BRANCH  25  26
ATOM     26  S   UNK A   1       9.649   1.149  22.747  0.00  0.00    -0.154 S 
BRANCH  26  27
ATOM     27  C   UNK A   1      10.521  -0.440  22.927  0.00  0.00    +0.104 C 
BRANCH  27  28
ATOM     28  C   UNK A   1       9.561  -1.591  23.055  0.00  0.00    -0.037 A 
ATOM     29  C   UNK A   1       9.716  -2.541  24.074  0.00  0.00    +0.018 A 
ATOM     30  C   UNK A   1       8.825  -3.610  24.173  0.00  0.00    +0.014 A 
ATOM     31  I   UNK A   1       9.073  -5.017  25.683  0.00  0.00    -0.044 I 
ATOM     32  C   UNK A   1       7.773  -3.741  23.267  0.00  0.00    +0.014 A 
ATOM     33  C   UNK A   1       7.607  -2.794  22.257  0.00  0.00    +0.001 A 
ATOM     34  C   UNK A   1       8.493  -1.724  22.152  0.00  0.00    +0.004 A 
ENDBRANCH  27  28
ENDBRANCH  26  27
ENDBRANCH  25  26
ENDBRANCH   1  25
TORSDOF 15
ENDMDL
