MODEL 1
REMARK VINA RESULT:      -5.7      0.000      0.000
REMARK  Name = 
REMARK  8 active torsions:
REMARK  status: ('A' for Active; 'I' for Inactive)
REMARK    1  A    between atoms: O_1  and  C_2
REMARK    2  A    between atoms: C_8  and  S_9
REMARK    3  A    between atoms: S_9  and  C_10
REMARK    4  A    between atoms: C_10  and  C_11
REMARK    5  A    between atoms: C_11  and  C_12
REMARK    6  A    between atoms: C_13  and  P_14
REMARK    7  A    between atoms: P_14  and  O_15
REMARK    8  A    between atoms: P_14  and  O_16
REMARK                            x       y       z     vdW  Elec       q    Type
REMARK                         _______ _______ _______ _____ _____    ______ ____
ROOT
ATOM      1  S   UNL     1       8.808  -1.679  21.861  0.00  0.00    -0.121 S 
ENDROOT
BRANCH   1   3
ATOM      2  C   UNL     1       9.436   1.137  21.955  0.00  0.00    +0.130 A 
ATOM      3  C   UNL     1       9.517  -0.156  22.497  0.00  0.00    +0.052 A 
ATOM      4  C   UNL     1      10.242  -0.319  23.689  0.00  0.00    +0.056 A 
ATOM      5  C   UNL     1      10.853   0.767  24.308  0.00  0.00    +0.125 A 
ATOM      6  F   UNL     1      11.535   0.581  25.445  0.00  0.00    -0.205 F 
ATOM      7  C   UNL     1      10.764   2.038  23.767  0.00  0.00    +0.042 A 
ATOM      8  C   UNL     1      10.053   2.227  22.585  0.00  0.00    +0.049 A 
BRANCH   2   9
ATOM      9  O   UNL     1       8.747   1.382  20.797  0.00  0.00    -0.506 OA
ATOM     10  H   UNL     1       9.194   2.086  20.298  0.00  0.00    +0.292 HD
ENDBRANCH   2   9
ENDBRANCH   1   3
BRANCH   1  11
ATOM     11  C   UNL     1       7.295  -1.945  22.843  0.00  0.00    +0.078 C 
BRANCH  11  12
ATOM     12  C   UNL     1       6.772  -3.361  22.592  0.00  0.00    +0.038 C 
BRANCH  12  13
ATOM     13  C   UNL     1       7.032  -4.273  23.763  0.00  0.00    -0.018 C 
ATOM     14  C   UNL     1       8.103  -4.169  24.568  0.00  0.00    +0.093 C 
BRANCH  14  15
ATOM     15  P   UNL     1       8.410  -5.139  25.992  0.00  0.00    +0.351 P 
ATOM     16  O   UNL     1       7.332  -5.952  26.633  0.00  0.00    -0.254 OA
BRANCH  15  17
ATOM     17  O   UNL     1       9.125  -4.133  27.020  0.00  0.00    -0.321 OA
ATOM     18  H   UNL     1       9.754  -4.551  27.631  0.00  0.00    +0.220 HD
ENDBRANCH  15  17
BRANCH  15  19
ATOM     19  O   UNL     1       9.675  -6.026  25.545  0.00  0.00    -0.321 OA
ATOM     20  H   UNL     1       9.660  -6.267  24.601  0.00  0.00    +0.220 HD
ENDBRANCH  15  19
ENDBRANCH  14  15
ENDBRANCH  12  13
ENDBRANCH  11  12
ENDBRANCH   1  11
TORSDOF 8
ENDMDL
MODEL 2
REMARK VINA RESULT:      -5.6      3.166      3.674
REMARK  Name = 
REMARK  8 active torsions:
REMARK  status: ('A' for Active; 'I' for Inactive)
REMARK    1  A    between atoms: O_1  and  C_2
REMARK    2  A    between atoms: C_8  and  S_9
REMARK    3  A    between atoms: S_9  and  C_10
REMARK    4  A    between atoms: C_10  and  C_11
REMARK    5  A    between atoms: C_11  and  C_12
REMARK    6  A    between atoms: C_13  and  P_14
REMARK    7  A    between atoms: P_14  and  O_15
REMARK    8  A    between atoms: P_14  and  O_16
REMARK                            x       y       z     vdW  Elec       q    Type
REMARK                         _______ _______ _______ _____ _____    ______ ____
ROOT
ATOM      1  S   UNL     1       8.297  -1.800  24.599  0.00  0.00    -0.121 S 
ENDROOT
BRANCH   1   3
ATOM      2  C   UNL     1       9.950   0.553  24.340  0.00  0.00    +0.130 A 
ATOM      3  C   UNL     1       9.032  -0.366  23.805  0.00  0.00    +0.052 A 
ATOM      4  C   UNL     1       8.607  -0.168  22.481  0.00  0.00    +0.056 A 
ATOM      5  C   UNL     1       9.085   0.900  21.729  0.00  0.00    +0.125 A 
ATOM      6  F   UNL     1       8.664   1.062  20.468  0.00  0.00    -0.205 F 
ATOM      7  C   UNL     1       9.992   1.799  22.264  0.00  0.00    +0.042 A 
ATOM      8  C   UNL     1      10.428   1.627  23.576  0.00  0.00    +0.049 A 
BRANCH   2   9
ATOM      9  O   UNL     1      10.416   0.431  25.621  0.00  0.00    -0.506 OA
ATOM     10  H   UNL     1      10.786   1.281  25.912  0.00  0.00    +0.292 HD
ENDBRANCH   2   9
ENDBRANCH   1   3
BRANCH   1  11
ATOM     11  C   UNL     1       9.404  -3.190  24.188  0.00  0.00    +0.078 C 
BRANCH  11  12
ATOM     12  C   UNL     1       8.820  -4.486  24.756  0.00  0.00    +0.038 C 
BRANCH  12  13
ATOM     13  C   UNL     1       7.801  -5.097  23.829  0.00  0.00    -0.018 C 
ATOM     14  C   UNL     1       6.504  -5.254  24.145  0.00  0.00    +0.093 C 
BRANCH  14  15
ATOM     15  P   UNL     1       5.261  -5.872  23.078  0.00  0.00    +0.351 P 
ATOM     16  O   UNL     1       4.139  -5.008  22.599  0.00  0.00    -0.254 OA
BRANCH  15  17
ATOM     17  O   UNL     1       4.749  -7.218  23.791  0.00  0.00    -0.321 OA
ATOM     18  H   UNL     1       4.574  -7.135  24.743  0.00  0.00    +0.220 HD
ENDBRANCH  15  17
BRANCH  15  19
ATOM     19  O   UNL     1       6.117  -6.504  21.873  0.00  0.00    -0.321 OA
ATOM     20  H   UNL     1       6.991  -6.832  22.153  0.00  0.00    +0.220 HD
ENDBRANCH  15  19
ENDBRANCH  14  15
ENDBRANCH  12  13
ENDBRANCH  11  12
ENDBRANCH   1  11
TORSDOF 8
ENDMDL
MODEL 3
REMARK VINA RESULT:      -5.6      1.996      2.340
REMARK  Name = 
REMARK  8 active torsions:
REMARK  status: ('A' for Active; 'I' for Inactive)
REMARK    1  A    between atoms: O_1  and  C_2
REMARK    2  A    between atoms: C_8  and  S_9
REMARK    3  A    between atoms: S_9  and  C_10
REMARK    4  A    between atoms: C_10  and  C_11
REMARK    5  A    between atoms: C_11  and  C_12
REMARK    6  A    between atoms: C_13  and  P_14
REMARK    7  A    between atoms: P_14  and  O_15
REMARK    8  A    between atoms: P_14  and  O_16
REMARK                            x       y       z     vdW  Elec       q    Type
REMARK                         _______ _______ _______ _____ _____    ______ ____
ROOT
ATOM      1  S   UNL     1       6.928  -1.488  23.391  0.00  0.00    -0.121 S 
ENDROOT
BRANCH   1   3
ATOM      2  C   UNL     1       9.173  -0.483  24.902  0.00  0.00    +0.130 A 
ATOM      3  C   UNL     1       8.416  -0.537  23.720  0.00  0.00    +0.052 A 
ATOM      4  C   UNL     1       8.844   0.245  22.634  0.00  0.00    +0.056 A 
ATOM      5  C   UNL     1       9.982   1.040  22.731  0.00  0.00    +0.125 A 
ATOM      6  F   UNL     1      10.368   1.772  21.679  0.00  0.00    -0.205 F 
ATOM      7  C   UNL     1      10.723   1.083  23.900  0.00  0.00    +0.042 A 
ATOM      8  C   UNL     1      10.319   0.319  24.992  0.00  0.00    +0.049 A 
BRANCH   2   9
ATOM      9  O   UNL     1       8.825  -1.216  26.005  0.00  0.00    -0.506 OA
ATOM     10  H   UNL     1       8.962  -2.160  25.821  0.00  0.00    +0.292 HD
ENDBRANCH   2   9
ENDBRANCH   1   3
BRANCH   1  11
ATOM     11  C   UNL     1       7.398  -2.665  22.079  0.00  0.00    +0.078 C 
BRANCH  11  12
ATOM     12  C   UNL     1       7.142  -4.093  22.565  0.00  0.00    +0.038 C 
BRANCH  12  13
ATOM     13  C   UNL     1       7.939  -4.419  23.802  0.00  0.00    -0.018 C 
ATOM     14  C   UNL     1       7.387  -4.687  24.997  0.00  0.00    +0.093 C 
BRANCH  14  15
ATOM     15  P   UNL     1       8.256  -5.159  26.442  0.00  0.00    +0.351 P 
ATOM     16  O   UNL     1       7.581  -5.890  27.558  0.00  0.00    -0.254 OA
BRANCH  15  17
ATOM     17  O   UNL     1       8.987  -3.815  26.930  0.00  0.00    -0.321 OA
ATOM     18  H   UNL     1       8.522  -3.327  27.629  0.00  0.00    +0.220 HD
ENDBRANCH  15  17
BRANCH  15  19
ATOM     19  O   UNL     1       9.515  -5.961  25.845  0.00  0.00    -0.321 OA
ATOM     20  H   UNL     1      10.202  -5.378  25.474  0.00  0.00    +0.220 HD
ENDBRANCH  15  19
ENDBRANCH  14  15
ENDBRANCH  12  13
ENDBRANCH  11  12
ENDBRANCH   1  11
TORSDOF 8
ENDMDL
MODEL 4
REMARK VINA RESULT:      -5.5      1.908      2.141
REMARK  Name = 
REMARK  8 active torsions:
REMARK  status: ('A' for Active; 'I' for Inactive)
REMARK    1  A    between atoms: O_1  and  C_2
REMARK    2  A    between atoms: C_8  and  S_9
REMARK    3  A    between atoms: S_9  and  C_10
REMARK    4  A    between atoms: C_10  and  C_11
REMARK    5  A    between atoms: C_11  and  C_12
REMARK    6  A    between atoms: C_13  and  P_14
REMARK    7  A    between atoms: P_14  and  O_15
REMARK    8  A    between atoms: P_14  and  O_16
REMARK                            x       y       z     vdW  Elec       q    Type
REMARK                         _______ _______ _______ _____ _____    ______ ____
ROOT
ATOM      1  S   UNL     1       6.142  -1.996  23.498  0.00  0.00    -0.121 S 
ENDROOT
BRANCH   1   3
ATOM      2  C   UNL     1       7.481   0.362  22.508  0.00  0.00    +0.130 A 
ATOM      3  C   UNL     1       7.497  -0.992  22.881  0.00  0.00    +0.052 A 
ATOM      4  C   UNL     1       8.714  -1.685  22.767  0.00  0.00    +0.056 A 
ATOM      5  C   UNL     1       9.860  -1.046  22.304  0.00  0.00    +0.125 A 
ATOM      6  F   UNL     1      11.006  -1.732  22.208  0.00  0.00    -0.205 F 
ATOM      7  C   UNL     1       9.833   0.290  21.941  0.00  0.00    +0.042 A 
ATOM      8  C   UNL     1       8.639   1.000  22.043  0.00  0.00    +0.049 A 
BRANCH   2   9
ATOM      9  O   UNL     1       6.337   1.110  22.591  0.00  0.00    -0.506 OA
ATOM     10  H   UNL     1       6.484   1.858  23.193  0.00  0.00    +0.292 HD
ENDBRANCH   2   9
ENDBRANCH   1   3
BRANCH   1  11
ATOM     11  C   UNL     1       5.740  -3.140  22.135  0.00  0.00    +0.078 C 
BRANCH  11  12
ATOM     12  C   UNL     1       6.261  -4.537  22.477  0.00  0.00    +0.038 C 
BRANCH  12  13
ATOM     13  C   UNL     1       6.694  -4.641  23.916  0.00  0.00    -0.018 C 
ATOM     14  C   UNL     1       7.917  -5.043  24.302  0.00  0.00    +0.093 C 
BRANCH  14  15
ATOM     15  P   UNL     1       8.503  -5.094  25.950  0.00  0.00    +0.351 P 
ATOM     16  O   UNL     1       7.762  -5.825  27.023  0.00  0.00    -0.254 OA
BRANCH  15  17
ATOM     17  O   UNL     1       8.789  -3.559  26.325  0.00  0.00    -0.321 OA
ATOM     18  H   UNL     1       9.708  -3.271  26.198  0.00  0.00    +0.220 HD
ENDBRANCH  15  17
BRANCH  15  19
ATOM     19  O   UNL     1      10.012  -5.622  25.767  0.00  0.00    -0.321 OA
ATOM     20  H   UNL     1      10.649  -5.174  26.352  0.00  0.00    +0.220 HD
ENDBRANCH  15  19
ENDBRANCH  14  15
ENDBRANCH  12  13
ENDBRANCH  11  12
ENDBRANCH   1  11
TORSDOF 8
ENDMDL
MODEL 5
REMARK VINA RESULT:      -5.5      1.752      2.135
REMARK  Name = 
REMARK  8 active torsions:
REMARK  status: ('A' for Active; 'I' for Inactive)
REMARK    1  A    between atoms: O_1  and  C_2
REMARK    2  A    between atoms: C_8  and  S_9
REMARK    3  A    between atoms: S_9  and  C_10
REMARK    4  A    between atoms: C_10  and  C_11
REMARK    5  A    between atoms: C_11  and  C_12
REMARK    6  A    between atoms: C_13  and  P_14
REMARK    7  A    between atoms: P_14  and  O_15
REMARK    8  A    between atoms: P_14  and  O_16
REMARK                            x       y       z     vdW  Elec       q    Type
REMARK                         _______ _______ _______ _____ _____    ______ ____
ROOT
ATOM      1  S   UNL     1       9.307  -2.143  24.126  0.00  0.00    -0.121 S 
ENDROOT
BRANCH   1   3
ATOM      2  C   UNL     1       9.769  -0.079  22.161  0.00  0.00    +0.130 A 
ATOM      3  C   UNL     1       9.477  -0.477  23.476  0.00  0.00    +0.052 A 
ATOM      4  C   UNL     1       9.292   0.530  24.437  0.00  0.00    +0.056 A 
ATOM      5  C   UNL     1       9.391   1.875  24.092  0.00  0.00    +0.125 A 
ATOM      6  F   UNL     1       9.207   2.813  25.028  0.00  0.00    -0.205 F 
ATOM      7  C   UNL     1       9.676   2.256  22.792  0.00  0.00    +0.042 A 
ATOM      8  C   UNL     1       9.867   1.277  21.820  0.00  0.00    +0.049 A 
BRANCH   2   9
ATOM      9  O   UNL     1       9.962  -0.998  21.165  0.00  0.00    -0.506 OA
ATOM     10  H   UNL     1      10.767  -0.773  20.670  0.00  0.00    +0.292 HD
ENDBRANCH   2   9
ENDBRANCH   1   3
BRANCH   1  11
ATOM     11  C   UNL     1       7.685  -2.724  23.526  0.00  0.00    +0.078 C 
BRANCH  11  12
ATOM     12  C   UNL     1       7.717  -4.246  23.374  0.00  0.00    +0.038 C 
BRANCH  12  13
ATOM     13  C   UNL     1       7.602  -4.947  24.703  0.00  0.00    -0.018 C 
ATOM     14  C   UNL     1       6.836  -4.508  25.716  0.00  0.00    +0.093 C 
BRANCH  14  15
ATOM     15  P   UNL     1       6.594  -5.328  27.244  0.00  0.00    +0.351 P 
ATOM     16  O   UNL     1       5.986  -4.630  28.419  0.00  0.00    -0.254 OA
BRANCH  15  17
ATOM     17  O   UNL     1       8.019  -5.987  27.580  0.00  0.00    -0.321 OA
ATOM     18  H   UNL     1       8.400  -5.725  28.434  0.00  0.00    +0.220 HD
ENDBRANCH  15  17
BRANCH  15  19
ATOM     19  O   UNL     1       5.775  -6.642  26.809  0.00  0.00    -0.321 OA
ATOM     20  H   UNL     1       5.491  -7.186  27.565  0.00  0.00    +0.220 HD
ENDBRANCH  15  19
ENDBRANCH  14  15
ENDBRANCH  12  13
ENDBRANCH  11  12
ENDBRANCH   1  11
TORSDOF 8
ENDMDL
MODEL 6
REMARK VINA RESULT:      -5.5      2.456      2.859
REMARK  Name = 
REMARK  8 active torsions:
REMARK  status: ('A' for Active; 'I' for Inactive)
REMARK    1  A    between atoms: O_1  and  C_2
REMARK    2  A    between atoms: C_8  and  S_9
REMARK    3  A    between atoms: S_9  and  C_10
REMARK    4  A    between atoms: C_10  and  C_11
REMARK    5  A    between atoms: C_11  and  C_12
REMARK    6  A    between atoms: C_13  and  P_14
REMARK    7  A    between atoms: P_14  and  O_15
REMARK    8  A    between atoms: P_14  and  O_16
REMARK                            x       y       z     vdW  Elec       q    Type
REMARK                         _______ _______ _______ _____ _____    ______ ____
ROOT
ATOM      1  S   UNL     1       7.140   1.409  25.703  0.00  0.00    -0.121 S 
ENDROOT
BRANCH   1   3
ATOM      2  C   UNL     1       7.874   0.914  22.956  0.00  0.00    +0.130 A 
ATOM      3  C   UNL     1       8.143   1.476  24.214  0.00  0.00    +0.052 A 
ATOM      4  C   UNL     1       9.344   2.188  24.369  0.00  0.00    +0.056 A 
ATOM      5  C   UNL     1      10.232   2.330  23.306  0.00  0.00    +0.125 A 
ATOM      6  F   UNL     1      11.368   3.016  23.482  0.00  0.00    -0.205 F 
ATOM      7  C   UNL     1       9.956   1.774  22.069  0.00  0.00    +0.042 A 
ATOM      8  C   UNL     1       8.773   1.062  21.889  0.00  0.00    +0.049 A 
BRANCH   2   9
ATOM      9  O   UNL     1       6.726   0.207  22.721  0.00  0.00    -0.506 OA
ATOM     10  H   UNL     1       6.896  -0.472  22.048  0.00  0.00    +0.292 HD
ENDBRANCH   2   9
ENDBRANCH   1   3
BRANCH   1  11
ATOM     11  C   UNL     1       7.164  -0.342  26.213  0.00  0.00    +0.078 C 
BRANCH  11  12
ATOM     12  C   UNL     1       8.605  -0.857  26.188  0.00  0.00    +0.038 C 
BRANCH  12  13
ATOM     13  C   UNL     1       8.717  -2.181  25.479  0.00  0.00    -0.018 C 
ATOM     14  C   UNL     1       8.691  -3.370  26.106  0.00  0.00    +0.093 C 
BRANCH  14  15
ATOM     15  P   UNL     1       8.726  -4.937  25.327  0.00  0.00    +0.351 P 
ATOM     16  O   UNL     1       7.948  -5.210  24.080  0.00  0.00    -0.254 OA
BRANCH  15  17
ATOM     17  O   UNL     1       8.402  -5.980  26.504  0.00  0.00    -0.321 OA
ATOM     18  H   UNL     1       8.060  -5.581  27.321  0.00  0.00    +0.220 HD
ENDBRANCH  15  17
BRANCH  15  19
ATOM     19  O   UNL     1      10.302  -5.202  25.147  0.00  0.00    -0.321 OA
ATOM     20  H   UNL     1      10.841  -4.397  25.244  0.00  0.00    +0.220 HD
ENDBRANCH  15  19
ENDBRANCH  14  15
ENDBRANCH  12  13
ENDBRANCH  11  12
ENDBRANCH   1  11
TORSDOF 8
ENDMDL
MODEL 7
REMARK VINA RESULT:      -5.5      2.894      3.210
REMARK  Name = 
REMARK  8 active torsions:
REMARK  status: ('A' for Active; 'I' for Inactive)
REMARK    1  A    between atoms: O_1  and  C_2
REMARK    2  A    between atoms: C_8  and  S_9
REMARK    3  A    between atoms: S_9  and  C_10
REMARK    4  A    between atoms: C_10  and  C_11
REMARK    5  A    between atoms: C_11  and  C_12
REMARK    6  A    between atoms: C_13  and  P_14
REMARK    7  A    between atoms: P_14  and  O_15
REMARK    8  A    between atoms: P_14  and  O_16
REMARK                            x       y       z     vdW  Elec       q    Type
REMARK                         _______ _______ _______ _____ _____    ______ ____
ROOT
ATOM      1  S   UNL     1       8.028  -1.700  23.733  0.00  0.00    -0.121 S 
ENDROOT
BRANCH   1   3
ATOM      2  C   UNL     1       9.520   0.181  22.131  0.00  0.00    +0.130 A 
ATOM      3  C   UNL     1       8.810  -0.142  23.299  0.00  0.00    +0.052 A 
ATOM      4  C   UNL     1       8.678   0.855  24.280  0.00  0.00    +0.056 A 
ATOM      5  C   UNL     1       9.229   2.119  24.093  0.00  0.00    +0.125 A 
ATOM      6  F   UNL     1       9.085   3.050  25.043  0.00  0.00    -0.205 F 
ATOM      7  C   UNL     1       9.925   2.429  22.936  0.00  0.00    +0.042 A 
ATOM      8  C   UNL     1      10.072   1.457  21.949  0.00  0.00    +0.049 A 
BRANCH   2   9
ATOM      9  O   UNL     1       9.693  -0.732  21.126  0.00  0.00    -0.506 OA
ATOM     10  H   UNL     1       8.939  -1.343  21.113  0.00  0.00    +0.292 HD
ENDBRANCH   2   9
ENDBRANCH   1   3
BRANCH   1  11
ATOM     11  C   UNL     1       9.406  -2.844  24.078  0.00  0.00    +0.078 C 
BRANCH  11  12
ATOM     12  C   UNL     1       8.843  -4.194  24.525  0.00  0.00    +0.038 C 
BRANCH  12  13
ATOM     13  C   UNL     1       7.425  -4.396  24.056  0.00  0.00    -0.018 C 
ATOM     14  C   UNL     1       7.062  -5.323  23.153  0.00  0.00    +0.093 C 
BRANCH  14  15
ATOM     15  P   UNL     1       5.423  -5.663  22.639  0.00  0.00    +0.351 P 
ATOM     16  O   UNL     1       4.375  -4.597  22.608  0.00  0.00    -0.254 OA
BRANCH  15  17
ATOM     17  O   UNL     1       4.985  -6.942  23.507  0.00  0.00    -0.321 OA
ATOM     18  H   UNL     1       5.716  -7.408  23.945  0.00  0.00    +0.220 HD
ENDBRANCH  15  17
BRANCH  15  19
ATOM     19  O   UNL     1       5.644  -6.361  21.207  0.00  0.00    -0.321 OA
ATOM     20  H   UNL     1       5.934  -5.737  20.517  0.00  0.00    +0.220 HD
ENDBRANCH  15  19
ENDBRANCH  14  15
ENDBRANCH  12  13
ENDBRANCH  11  12
ENDBRANCH   1  11
TORSDOF 8
ENDMDL
MODEL 8
REMARK VINA RESULT:      -5.5      2.399      2.917
REMARK  Name = 
REMARK  8 active torsions:
REMARK  status: ('A' for Active; 'I' for Inactive)
REMARK    1  A    between atoms: O_1  and  C_2
REMARK    2  A    between atoms: C_8  and  S_9
REMARK    3  A    between atoms: S_9  and  C_10
REMARK    4  A    between atoms: C_10  and  C_11
REMARK    5  A    between atoms: C_11  and  C_12
REMARK    6  A    between atoms: C_13  and  P_14
REMARK    7  A    between atoms: P_14  and  O_15
REMARK    8  A    between atoms: P_14  and  O_16
REMARK                            x       y       z     vdW  Elec       q    Type
REMARK                         _______ _______ _______ _____ _____    ______ ____
ROOT
ATOM      1  S   UNL     1       9.305  -2.353  24.165  0.00  0.00    -0.121 S 
ENDROOT
BRANCH   1   3
ATOM      2  C   UNL     1      10.101   0.422  24.165  0.00  0.00    +0.130 A 
ATOM      3  C   UNL     1       9.540  -0.693  23.521  0.00  0.00    +0.052 A 
ATOM      4  C   UNL     1       9.088  -0.525  22.201  0.00  0.00    +0.056 A 
ATOM      5  C   UNL     1       9.199   0.704  21.559  0.00  0.00    +0.125 A 
ATOM      6  F   UNL     1       8.762   0.834  20.300  0.00  0.00    -0.205 F 
ATOM      7  C   UNL     1       9.757   1.796  22.202  0.00  0.00    +0.042 A 
ATOM      8  C   UNL     1      10.211   1.657  23.511  0.00  0.00    +0.049 A 
BRANCH   2   9
ATOM      9  O   UNL     1      10.568   0.342  25.449  0.00  0.00    -0.506 OA
ATOM     10  H   UNL     1      11.536   0.418  25.446  0.00  0.00    +0.292 HD
ENDBRANCH   2   9
ENDBRANCH   1   3
BRANCH   1  11
ATOM     11  C   UNL     1       8.145  -3.153  23.007  0.00  0.00    +0.078 C 
BRANCH  11  12
ATOM     12  C   UNL     1       7.894  -4.594  23.457  0.00  0.00    +0.038 C 
BRANCH  12  13
ATOM     13  C   UNL     1       7.647  -4.685  24.941  0.00  0.00    -0.018 C 
ATOM     14  C   UNL     1       6.585  -5.303  25.485  0.00  0.00    +0.093 C 
BRANCH  14  15
ATOM     15  P   UNL     1       6.295  -5.520  27.198  0.00  0.00    +0.351 P 
ATOM     16  O   UNL     1       5.665  -4.447  28.027  0.00  0.00    -0.254 OA
BRANCH  15  17
ATOM     17  O   UNL     1       7.705  -6.015  27.787  0.00  0.00    -0.321 OA
ATOM     18  H   UNL     1       8.446  -5.404  27.642  0.00  0.00    +0.220 HD
ENDBRANCH  15  17
BRANCH  15  19
ATOM     19  O   UNL     1       5.474  -6.902  27.241  0.00  0.00    -0.321 OA
ATOM     20  H   UNL     1       5.665  -7.486  26.485  0.00  0.00    +0.220 HD
ENDBRANCH  15  19
ENDBRANCH  14  15
ENDBRANCH  12  13
ENDBRANCH  11  12
ENDBRANCH   1  11
TORSDOF 8
ENDMDL
MODEL 9
REMARK VINA RESULT:      -5.5      2.255      2.740
REMARK  Name = 
REMARK  8 active torsions:
REMARK  status: ('A' for Active; 'I' for Inactive)
REMARK    1  A    between atoms: O_1  and  C_2
REMARK    2  A    between atoms: C_8  and  S_9
REMARK    3  A    between atoms: S_9  and  C_10
REMARK    4  A    between atoms: C_10  and  C_11
REMARK    5  A    between atoms: C_11  and  C_12
REMARK    6  A    between atoms: C_13  and  P_14
REMARK    7  A    between atoms: P_14  and  O_15
REMARK    8  A    between atoms: P_14  and  O_16
REMARK                            x       y       z     vdW  Elec       q    Type
REMARK                         _______ _______ _______ _____ _____    ______ ____
ROOT
ATOM      1  S   UNL     1       6.706  -1.972  23.414  0.00  0.00    -0.121 S 
ENDROOT
BRANCH   1   3
ATOM      2  C   UNL     1       8.956  -0.724  22.106  0.00  0.00    +0.130 A 
ATOM      3  C   UNL     1       7.679  -0.650  22.686  0.00  0.00    +0.052 A 
ATOM      4  C   UNL     1       7.051   0.606  22.723  0.00  0.00    +0.056 A 
ATOM      5  C   UNL     1       7.676   1.733  22.198  0.00  0.00    +0.125 A 
ATOM      6  F   UNL     1       7.052   2.917  22.246  0.00  0.00    -0.205 F 
ATOM      7  C   UNL     1       8.933   1.649  21.626  0.00  0.00    +0.042 A 
ATOM      8  C   UNL     1       9.579   0.416  21.578  0.00  0.00    +0.049 A 
BRANCH   2   9
ATOM      9  O   UNL     1       9.635  -1.910  22.027  0.00  0.00    -0.506 OA
ATOM     10  H   UNL     1      10.196  -1.909  21.234  0.00  0.00    +0.292 HD
ENDBRANCH   2   9
ENDBRANCH   1   3
BRANCH   1  11
ATOM     11  C   UNL     1       6.380  -3.133  22.044  0.00  0.00    +0.078 C 
BRANCH  11  12
ATOM     12  C   UNL     1       6.985  -4.497  22.383  0.00  0.00    +0.038 C 
BRANCH  12  13
ATOM     13  C   UNL     1       7.870  -4.434  23.601  0.00  0.00    -0.018 C 
ATOM     14  C   UNL     1       7.542  -4.965  24.791  0.00  0.00    +0.093 C 
BRANCH  14  15
ATOM     15  P   UNL     1       8.566  -5.002  26.211  0.00  0.00    +0.351 P 
ATOM     16  O   UNL     1       8.903  -3.756  26.966  0.00  0.00    -0.254 OA
BRANCH  15  17
ATOM     17  O   UNL     1       9.868  -5.821  25.749  0.00  0.00    -0.321 OA
ATOM     18  H   UNL     1      10.222  -6.434  26.414  0.00  0.00    +0.220 HD
ENDBRANCH  15  17
BRANCH  15  19
ATOM     19  O   UNL     1       7.850  -6.111  27.129  0.00  0.00    -0.321 OA
ATOM     20  H   UNL     1       7.551  -6.891  26.627  0.00  0.00    +0.220 HD
ENDBRANCH  15  19
ENDBRANCH  14  15
ENDBRANCH  12  13
ENDBRANCH  11  12
ENDBRANCH   1  11
TORSDOF 8
ENDMDL
