MODEL 1
REMARK VINA RESULT:      -7.0      0.000      0.000
REMARK  Name = 
REMARK  9 active torsions:
REMARK  status: ('A' for Active; 'I' for Inactive)
REMARK    1  A    between atoms: C_2  and  C_3
REMARK    2  A    between atoms: C_2  and  C_15
REMARK    3  A    between atoms: C_2  and  C_21
REMARK    4  A    between atoms: C_3  and  C_4
REMARK    5  A    between atoms: C_6  and  N_12
REMARK    6  A    between atoms: C_9  and  O_10
REMARK    7  A    between atoms: O_10  and  C_11
REMARK    8  A    between atoms: C_24  and  O_25
REMARK    9  A    between atoms: O_25  and  C_26
REMARK                            x       y       z     vdW  Elec       q    Type
REMARK                         _______ _______ _______ _____ _____    ______ ____
ROOT
ATOM      1  C   UNL     1       9.066  -1.665  23.561  0.00  0.00    +0.074 C 
ENDROOT
BRANCH   1   2
ATOM      2  C   UNL     1       9.208  -0.376  22.786  0.00  0.00    +0.068 A 
ATOM      3  N   UNL     1       9.041   0.823  23.460  0.00  0.00    -0.219 NA
ATOM      4  C   UNL     1       9.124   1.768  22.564  0.00  0.00    +0.191 A 
ATOM      5  N   UNL     1       8.984   3.082  22.759  0.00  0.00    -0.329 N 
ATOM      6  H   UNL     1       8.977   3.384  23.729  0.00  0.00    +0.145 HD
ATOM      7  H   UNL     1       9.396   3.760  22.130  0.00  0.00    +0.145 HD
ATOM      8  N   UNL     1       9.364   1.253  21.325  0.00  0.00    -0.333 N 
ATOM      9  H   UNL     1       9.431   1.789  20.473  0.00  0.00    +0.168 HD
ATOM     10  C   UNL     1       9.433  -0.109  21.447  0.00  0.00    +0.109 A 
ENDBRANCH   1   2
BRANCH   1  11
ATOM     11  C   UNL     1       7.967  -2.552  22.971  0.00  0.00    -0.035 A 
ATOM     12  C   UNL     1       8.175  -3.938  22.846  0.00  0.00    +0.046 A 
ATOM     13  C   UNL     1       7.126  -4.794  22.506  0.00  0.00    +0.165 A 
ATOM     14  F   UNL     1       7.376  -6.110  22.427  0.00  0.00    -0.202 F 
ATOM     15  C   UNL     1       5.833  -4.313  22.299  0.00  0.00    +0.155 A 
ATOM     16  C   UNL     1       5.624  -2.937  22.355  0.00  0.00    +0.049 A 
ATOM     17  C   UNL     1       6.676  -2.072  22.689  0.00  0.00    +0.008 A 
BRANCH  15  18
ATOM     18  O   UNL     1       4.862  -5.250  22.071  0.00  0.00    -0.492 OA
ATOM     19  C   UNL     1       4.112  -5.683  23.200  0.00  0.00    +0.277 C 
ENDBRANCH  15  18
ENDBRANCH   1  11
BRANCH   1  20
ATOM     20  C   UNL     1       9.058  -1.460  25.109  0.00  0.00    +0.053 C 
BRANCH  20  21
ATOM     21  C   UNL     1       7.956  -2.012  26.004  0.00  0.00    +0.002 A 
ATOM     22  C   UNL     1       6.863  -1.228  26.425  0.00  0.00    +0.124 A 
ATOM     23  C   UNL     1       5.784  -1.828  27.103  0.00  0.00    +0.052 A 
ATOM     24  C   UNL     1       5.748  -3.200  27.354  0.00  0.00    +0.088 A 
ATOM     25  C   UNL     1       6.829  -3.978  26.957  0.00  0.00    +0.274 A 
ATOM     26  C   UNL     1       7.939  -3.382  26.344  0.00  0.00    +0.091 A 
BRANCH  25  27
ATOM     27  N   UNL     1       6.781  -5.441  27.095  0.00  0.00    +0.080 N 
ATOM     28  O   UNL     1       6.299  -6.091  26.155  0.00  0.00    +0.041 OA
ATOM     29  O   UNL     1       7.242  -5.944  28.129  0.00  0.00    -0.576 OA
ENDBRANCH  25  27
BRANCH  22  30
ATOM     30  O   UNL     1       6.619   0.088  26.133  0.00  0.00    -0.495 OA
ATOM     31  C   UNL     1       5.686   0.400  25.110  0.00  0.00    +0.277 C 
ENDBRANCH  22  30
ENDBRANCH  20  21
ENDBRANCH   1  20
TORSDOF 7
ENDMDL
MODEL 2
REMARK VINA RESULT:      -6.7      3.342      5.789
REMARK  Name = 
REMARK  9 active torsions:
REMARK  status: ('A' for Active; 'I' for Inactive)
REMARK    1  A    between atoms: C_2  and  C_3
REMARK    2  A    between atoms: C_2  and  C_15
REMARK    3  A    between atoms: C_2  and  C_21
REMARK    4  A    between atoms: C_3  and  C_4
REMARK    5  A    between atoms: C_6  and  N_12
REMARK    6  A    between atoms: C_9  and  O_10
REMARK    7  A    between atoms: O_10  and  C_11
REMARK    8  A    between atoms: C_24  and  O_25
REMARK    9  A    between atoms: O_25  and  C_26
REMARK                            x       y       z     vdW  Elec       q    Type
REMARK                         _______ _______ _______ _____ _____    ______ ____
ROOT
ATOM      1  C   UNL     1       7.301  -2.774  23.064  0.00  0.00    +0.074 C 
ENDROOT
BRANCH   1   2
ATOM      2  C   UNL     1       8.028  -3.351  24.255  0.00  0.00    +0.068 A 
ATOM      3  N   UNL     1       8.745  -4.525  24.088  0.00  0.00    -0.219 NA
ATOM      4  C   UNL     1       9.198  -4.856  25.266  0.00  0.00    +0.191 A 
ATOM      5  N   UNL     1       9.911  -5.939  25.584  0.00  0.00    -0.329 N 
ATOM      6  H   UNL     1      10.275  -6.471  24.798  0.00  0.00    +0.145 HD
ATOM      7  H   UNL     1      10.512  -5.961  26.397  0.00  0.00    +0.145 HD
ATOM      8  N   UNL     1       8.834  -3.940  26.209  0.00  0.00    -0.333 N 
ATOM      9  H   UNL     1       9.038  -4.004  27.194  0.00  0.00    +0.168 HD
ATOM     10  C   UNL     1       8.099  -2.969  25.584  0.00  0.00    +0.109 A 
ENDBRANCH   1   2
BRANCH   1  11
ATOM     11  C   UNL     1       7.939  -1.462  22.601  0.00  0.00    -0.035 A 
ATOM     12  C   UNL     1       7.338  -0.234  22.934  0.00  0.00    +0.046 A 
ATOM     13  C   UNL     1       8.000   0.974  22.705  0.00  0.00    +0.165 A 
ATOM     14  F   UNL     1       7.390   2.114  23.066  0.00  0.00    -0.202 F 
ATOM     15  C   UNL     1       9.284   1.008  22.159  0.00  0.00    +0.155 A 
ATOM     16  C   UNL     1       9.865  -0.195  21.764  0.00  0.00    +0.049 A 
ATOM     17  C   UNL     1       9.202  -1.410  21.986  0.00  0.00    +0.008 A 
BRANCH  15  18
ATOM     18  O   UNL     1       9.877   2.238  22.071  0.00  0.00    -0.492 OA
ATOM     19  C   UNL     1      10.593   2.686  23.216  0.00  0.00    +0.277 C 
ENDBRANCH  15  18
ENDBRANCH   1  11
BRANCH   1  20
ATOM     20  C   UNL     1       5.747  -2.792  23.218  0.00  0.00    +0.053 C 
BRANCH  20  21
ATOM     21  C   UNL     1       4.989  -4.002  23.751  0.00  0.00    +0.002 A 
ATOM     22  C   UNL     1       4.850  -5.191  23.008  0.00  0.00    +0.124 A 
ATOM     23  C   UNL     1       4.295  -6.337  23.610  0.00  0.00    +0.052 A 
ATOM     24  C   UNL     1       3.895  -6.342  24.946  0.00  0.00    +0.088 A 
ATOM     25  C   UNL     1       4.013  -5.169  25.681  0.00  0.00    +0.274 A 
ATOM     26  C   UNL     1       4.499  -4.004  25.074  0.00  0.00    +0.091 A 
BRANCH  25  27
ATOM     27  N   UNL     1       3.715  -5.162  27.121  0.00  0.00    +0.080 N 
ATOM     28  O   UNL     1       3.658  -4.061  27.691  0.00  0.00    +0.041 OA
ATOM     29  O   UNL     1       3.519  -6.250  27.681  0.00  0.00    -0.576 OA
ENDBRANCH  25  27
BRANCH  22  30
ATOM     30  O   UNL     1       5.330  -5.451  21.752  0.00  0.00    -0.495 OA
ATOM     31  C   UNL     1       6.581  -6.109  21.621  0.00  0.00    +0.277 C 
ENDBRANCH  22  30
ENDBRANCH  20  21
ENDBRANCH   1  20
TORSDOF 7
ENDMDL
MODEL 3
REMARK VINA RESULT:      -6.7      3.129      5.512
REMARK  Name = 
REMARK  9 active torsions:
REMARK  status: ('A' for Active; 'I' for Inactive)
REMARK    1  A    between atoms: C_2  and  C_3
REMARK    2  A    between atoms: C_2  and  C_15
REMARK    3  A    between atoms: C_2  and  C_21
REMARK    4  A    between atoms: C_3  and  C_4
REMARK    5  A    between atoms: C_6  and  N_12
REMARK    6  A    between atoms: C_9  and  O_10
REMARK    7  A    between atoms: O_10  and  C_11
REMARK    8  A    between atoms: C_24  and  O_25
REMARK    9  A    between atoms: O_25  and  C_26
REMARK                            x       y       z     vdW  Elec       q    Type
REMARK                         _______ _______ _______ _____ _____    ______ ____
ROOT
ATOM      1  C   UNL     1       6.414  -2.488  23.166  0.00  0.00    +0.074 C 
ENDROOT
BRANCH   1   2
ATOM      2  C   UNL     1       6.702  -3.869  22.626  0.00  0.00    +0.068 A 
ATOM      3  N   UNL     1       5.991  -4.309  21.521  0.00  0.00    -0.219 NA
ATOM      4  C   UNL     1       6.356  -5.544  21.311  0.00  0.00    +0.191 A 
ATOM      5  N   UNL     1       5.897  -6.375  20.371  0.00  0.00    -0.329 N 
ATOM      6  H   UNL     1       5.327  -5.947  19.647  0.00  0.00    +0.145 HD
ATOM      7  H   UNL     1       6.445  -7.159  20.041  0.00  0.00    +0.145 HD
ATOM      8  N   UNL     1       7.299  -5.939  22.213  0.00  0.00    -0.333 N 
ATOM      9  H   UNL     1       7.704  -6.862  22.269  0.00  0.00    +0.168 HD
ATOM     10  C   UNL     1       7.542  -4.884  23.051  0.00  0.00    +0.109 A 
ENDBRANCH   1   2
BRANCH   1  11
ATOM     11  C   UNL     1       7.706  -1.714  23.439  0.00  0.00    -0.035 A 
ATOM     12  C   UNL     1       8.465  -1.215  22.364  0.00  0.00    +0.046 A 
ATOM     13  C   UNL     1       9.528  -0.337  22.583  0.00  0.00    +0.165 A 
ATOM     14  F   UNL     1      10.200   0.130  21.520  0.00  0.00    -0.202 F 
ATOM     15  C   UNL     1       9.864   0.092  23.868  0.00  0.00    +0.155 A 
ATOM     16  C   UNL     1       9.165  -0.445  24.947  0.00  0.00    +0.049 A 
ATOM     17  C   UNL     1       8.101  -1.332  24.733  0.00  0.00    +0.008 A 
BRANCH  15  18
ATOM     18  O   UNL     1      10.857   1.029  23.959  0.00  0.00    -0.492 OA
ATOM     19  C   UNL     1      10.469   2.390  23.806  0.00  0.00    +0.277 C 
ENDBRANCH  15  18
ENDBRANCH   1  11
BRANCH   1  20
ATOM     20  C   UNL     1       5.329  -2.476  24.289  0.00  0.00    +0.053 C 
BRANCH  20  21
ATOM     21  C   UNL     1       4.985  -3.713  25.110  0.00  0.00    +0.002 A 
ATOM     22  C   UNL     1       4.066  -4.683  24.663  0.00  0.00    +0.124 A 
ATOM     23  C   UNL     1       3.913  -5.890  25.372  0.00  0.00    +0.052 A 
ATOM     24  C   UNL     1       4.672  -6.174  26.508  0.00  0.00    +0.088 A 
ATOM     25  C   UNL     1       5.569  -5.216  26.965  0.00  0.00    +0.274 A 
ATOM     26  C   UNL     1       5.680  -3.984  26.308  0.00  0.00    +0.091 A 
BRANCH  25  27
ATOM     27  N   UNL     1       6.472  -5.520  28.086  0.00  0.00    +0.080 N 
ATOM     28  O   UNL     1       7.581  -6.003  27.815  0.00  0.00    +0.041 OA
ATOM     29  O   UNL     1       6.084  -5.258  29.234  0.00  0.00    -0.576 OA
ENDBRANCH  25  27
BRANCH  22  30
ATOM     30  O   UNL     1       3.355  -4.681  23.492  0.00  0.00    -0.495 OA
ATOM     31  C   UNL     1       2.739  -5.887  23.064  0.00  0.00    +0.277 C 
ENDBRANCH  22  30
ENDBRANCH  20  21
ENDBRANCH   1  20
TORSDOF 7
ENDMDL
MODEL 4
REMARK VINA RESULT:      -6.5      3.351      6.064
REMARK  Name = 
REMARK  9 active torsions:
REMARK  status: ('A' for Active; 'I' for Inactive)
REMARK    1  A    between atoms: C_2  and  C_3
REMARK    2  A    between atoms: C_2  and  C_15
REMARK    3  A    between atoms: C_2  and  C_21
REMARK    4  A    between atoms: C_3  and  C_4
REMARK    5  A    between atoms: C_6  and  N_12
REMARK    6  A    between atoms: C_9  and  O_10
REMARK    7  A    between atoms: O_10  and  C_11
REMARK    8  A    between atoms: C_24  and  O_25
REMARK    9  A    between atoms: O_25  and  C_26
REMARK                            x       y       z     vdW  Elec       q    Type
REMARK                         _______ _______ _______ _____ _____    ______ ____
ROOT
ATOM      1  C   UNL     1       8.527  -1.836  23.441  0.00  0.00    +0.074 C 
ENDROOT
BRANCH   1   2
ATOM      2  C   UNL     1       8.757  -2.839  24.546  0.00  0.00    +0.068 A 
ATOM      3  N   UNL     1       9.379  -4.037  24.234  0.00  0.00    -0.219 NA
ATOM      4  C   UNL     1       9.378  -4.752  25.325  0.00  0.00    +0.191 A 
ATOM      5  N   UNL     1       9.841  -5.996  25.478  0.00  0.00    -0.329 N 
ATOM      6  H   UNL     1      10.398  -6.355  24.708  0.00  0.00    +0.145 HD
ATOM      7  H   UNL     1      10.130  -6.349  26.381  0.00  0.00    +0.145 HD
ATOM      8  N   UNL     1       8.804  -4.074  26.359  0.00  0.00    -0.333 N 
ATOM      9  H   UNL     1       8.659  -4.438  27.288  0.00  0.00    +0.168 HD
ATOM     10  C   UNL     1       8.413  -2.850  25.887  0.00  0.00    +0.109 A 
ENDBRANCH   1   2
BRANCH   1  11
ATOM     11  C   UNL     1       8.730  -0.402  23.936  0.00  0.00    -0.035 A 
ATOM     12  C   UNL     1      10.012   0.177  23.904  0.00  0.00    +0.046 A 
ATOM     13  C   UNL     1      10.192   1.538  24.154  0.00  0.00    +0.165 A 
ATOM     14  F   UNL     1      11.433   2.042  24.084  0.00  0.00    -0.202 F 
ATOM     15  C   UNL     1       9.109   2.377  24.425  0.00  0.00    +0.155 A 
ATOM     16  C   UNL     1       7.842   1.807  24.525  0.00  0.00    +0.049 A 
ATOM     17  C   UNL     1       7.658   0.439  24.281  0.00  0.00    +0.008 A 
BRANCH  15  18
ATOM     18  O   UNL     1       9.388   3.710  24.555  0.00  0.00    -0.492 OA
ATOM     19  C   UNL     1       8.315   4.552  24.960  0.00  0.00    +0.277 C 
ENDBRANCH  15  18
ENDBRANCH   1  11
BRANCH   1  20
ATOM     20  C   UNL     1       7.241  -2.122  22.602  0.00  0.00    +0.053 C 
BRANCH  20  21
ATOM     21  C   UNL     1       6.096  -2.982  23.124  0.00  0.00    +0.002 A 
ATOM     22  C   UNL     1       5.864  -4.291  22.658  0.00  0.00    +0.124 A 
ATOM     23  C   UNL     1       4.907  -5.106  23.293  0.00  0.00    +0.052 A 
ATOM     24  C   UNL     1       4.186  -4.662  24.401  0.00  0.00    +0.088 A 
ATOM     25  C   UNL     1       4.396  -3.366  24.857  0.00  0.00    +0.274 A 
ATOM     26  C   UNL     1       5.295  -2.523  24.192  0.00  0.00    +0.091 A 
BRANCH  25  27
ATOM     27  N   UNL     1       3.747  -2.899  26.091  0.00  0.00    +0.080 N 
ATOM     28  O   UNL     1       2.950  -1.953  25.997  0.00  0.00    +0.041 OA
ATOM     29  O   UNL     1       4.015  -3.486  27.149  0.00  0.00    -0.576 OA
ENDBRANCH  25  27
BRANCH  22  30
ATOM     30  O   UNL     1       6.574  -4.976  21.707  0.00  0.00    -0.495 OA
ATOM     31  C   UNL     1       7.151  -6.226  22.053  0.00  0.00    +0.277 C 
ENDBRANCH  22  30
ENDBRANCH  20  21
ENDBRANCH   1  20
TORSDOF 7
ENDMDL
MODEL 5
REMARK VINA RESULT:      -6.3      2.550      4.817
REMARK  Name = 
REMARK  9 active torsions:
REMARK  status: ('A' for Active; 'I' for Inactive)
REMARK    1  A    between atoms: C_2  and  C_3
REMARK    2  A    between atoms: C_2  and  C_15
REMARK    3  A    between atoms: C_2  and  C_21
REMARK    4  A    between atoms: C_3  and  C_4
REMARK    5  A    between atoms: C_6  and  N_12
REMARK    6  A    between atoms: C_9  and  O_10
REMARK    7  A    between atoms: O_10  and  C_11
REMARK    8  A    between atoms: C_24  and  O_25
REMARK    9  A    between atoms: O_25  and  C_26
REMARK                            x       y       z     vdW  Elec       q    Type
REMARK                         _______ _______ _______ _____ _____    ______ ____
ROOT
ATOM      1  C   UNL     1       7.039  -1.750  23.087  0.00  0.00    +0.074 C 
ENDROOT
BRANCH   1   2
ATOM      2  C   UNL     1       8.234  -1.043  22.491  0.00  0.00    +0.068 A 
ATOM      3  N   UNL     1       8.201   0.338  22.387  0.00  0.00    -0.219 NA
ATOM      4  C   UNL     1       9.295   0.691  21.769  0.00  0.00    +0.191 A 
ATOM      5  N   UNL     1       9.664   1.925  21.419  0.00  0.00    -0.329 N 
ATOM      6  H   UNL     1       9.115   2.679  21.823  0.00  0.00    +0.145 HD
ATOM      7  H   UNL     1      10.636   2.169  21.274  0.00  0.00    +0.145 HD
ATOM      8  N   UNL     1      10.067  -0.395  21.476  0.00  0.00    -0.333 N 
ATOM      9  H   UNL     1      10.939  -0.371  20.970  0.00  0.00    +0.168 HD
ATOM     10  C   UNL     1       9.415  -1.506  21.938  0.00  0.00    +0.109 A 
ENDBRANCH   1   2
BRANCH   1  11
ATOM     11  C   UNL     1       6.831  -1.357  24.551  0.00  0.00    -0.035 A 
ATOM     12  C   UNL     1       7.931  -1.302  25.426  0.00  0.00    +0.046 A 
ATOM     13  C   UNL     1       7.805  -0.754  26.704  0.00  0.00    +0.165 A 
ATOM     14  F   UNL     1       8.894  -0.703  27.487  0.00  0.00    -0.202 F 
ATOM     15  C   UNL     1       6.594  -0.224  27.153  0.00  0.00    +0.155 A 
ATOM     16  C   UNL     1       5.480  -0.331  26.323  0.00  0.00    +0.049 A 
ATOM     17  C   UNL     1       5.600  -0.887  25.041  0.00  0.00    +0.008 A 
BRANCH  15  18
ATOM     18  O   UNL     1       6.609   0.378  28.381  0.00  0.00    -0.492 OA
ATOM     19  C   UNL     1       5.663   1.419  28.595  0.00  0.00    +0.277 C 
ENDBRANCH  15  18
ENDBRANCH   1  11
BRANCH   1  20
ATOM     20  C   UNL     1       6.987  -3.273  22.746  0.00  0.00    +0.053 C 
BRANCH  20  21
ATOM     21  C   UNL     1       6.095  -4.252  23.501  0.00  0.00    +0.002 A 
ATOM     22  C   UNL     1       6.553  -4.985  24.614  0.00  0.00    +0.124 A 
ATOM     23  C   UNL     1       5.646  -5.741  25.382  0.00  0.00    +0.052 A 
ATOM     24  C   UNL     1       4.283  -5.770  25.088  0.00  0.00    +0.088 A 
ATOM     25  C   UNL     1       3.826  -5.064  23.982  0.00  0.00    +0.274 A 
ATOM     26  C   UNL     1       4.728  -4.364  23.170  0.00  0.00    +0.091 A 
BRANCH  25  27
ATOM     27  N   UNL     1       2.384  -4.970  23.704  0.00  0.00    +0.080 N 
ATOM     28  O   UNL     1       1.945  -5.596  22.727  0.00  0.00    +0.041 OA
ATOM     29  O   UNL     1       1.687  -4.290  24.471  0.00  0.00    -0.576 OA
ENDBRANCH  25  27
BRANCH  22  30
ATOM     30  O   UNL     1       7.803  -4.958  25.174  0.00  0.00    -0.495 OA
ATOM     31  C   UNL     1       7.928  -5.131  26.578  0.00  0.00    +0.277 C 
ENDBRANCH  22  30
ENDBRANCH  20  21
ENDBRANCH   1  20
TORSDOF 7
ENDMDL
MODEL 6
REMARK VINA RESULT:      -6.2      1.725      2.918
REMARK  Name = 
REMARK  9 active torsions:
REMARK  status: ('A' for Active; 'I' for Inactive)
REMARK    1  A    between atoms: C_2  and  C_3
REMARK    2  A    between atoms: C_2  and  C_15
REMARK    3  A    between atoms: C_2  and  C_21
REMARK    4  A    between atoms: C_3  and  C_4
REMARK    5  A    between atoms: C_6  and  N_12
REMARK    6  A    between atoms: C_9  and  O_10
REMARK    7  A    between atoms: O_10  and  C_11
REMARK    8  A    between atoms: C_24  and  O_25
REMARK    9  A    between atoms: O_25  and  C_26
REMARK                            x       y       z     vdW  Elec       q    Type
REMARK                         _______ _______ _______ _____ _____    ______ ____
ROOT
ATOM      1  C   UNL     1       8.708  -1.352  23.881  0.00  0.00    +0.074 C 
ENDROOT
BRANCH   1   2
ATOM      2  C   UNL     1       9.006  -0.158  23.005  0.00  0.00    +0.068 A 
ATOM      3  N   UNL     1       8.456   1.067  23.347  0.00  0.00    -0.219 NA
ATOM      4  C   UNL     1       8.786   1.901  22.399  0.00  0.00    +0.191 A 
ATOM      5  N   UNL     1       8.438   3.186  22.295  0.00  0.00    -0.329 N 
ATOM      6  H   UNL     1       8.014   3.594  23.123  0.00  0.00    +0.145 HD
ATOM      7  H   UNL     1       8.990   3.844  21.760  0.00  0.00    +0.145 HD
ATOM      8  N   UNL     1       9.552   1.290  21.451  0.00  0.00    -0.333 N 
ATOM      9  H   UNL     1       9.894   1.725  20.608  0.00  0.00    +0.168 HD
ATOM     10  C   UNL     1       9.713  -0.017  21.824  0.00  0.00    +0.109 A 
ENDBRANCH   1   2
BRANCH   1  11
ATOM     11  C   UNL     1       7.807  -2.360  23.163  0.00  0.00    -0.035 A 
ATOM     12  C   UNL     1       8.156  -3.723  23.142  0.00  0.00    +0.046 A 
ATOM     13  C   UNL     1       7.260  -4.687  22.677  0.00  0.00    +0.165 A 
ATOM     14  F   UNL     1       7.636  -5.975  22.705  0.00  0.00    -0.202 F 
ATOM     15  C   UNL     1       5.982  -4.339  22.236  0.00  0.00    +0.155 A 
ATOM     16  C   UNL     1       5.645  -2.989  22.189  0.00  0.00    +0.049 A 
ATOM     17  C   UNL     1       6.545  -2.016  22.649  0.00  0.00    +0.008 A 
BRANCH  15  18
ATOM     18  O   UNL     1       5.151  -5.372  21.898  0.00  0.00    -0.492 OA
ATOM     19  C   UNL     1       4.274  -5.847  22.912  0.00  0.00    +0.277 C 
ENDBRANCH  15  18
ENDBRANCH   1  11
BRANCH   1  20
ATOM     20  C   UNL     1       8.317  -0.967  25.343  0.00  0.00    +0.053 C 
BRANCH  20  21
ATOM     21  C   UNL     1       7.065  -1.504  26.026  0.00  0.00    +0.002 A 
ATOM     22  C   UNL     1       7.018  -2.784  26.615  0.00  0.00    +0.124 A 
ATOM     23  C   UNL     1       5.902  -3.165  27.385  0.00  0.00    +0.052 A 
ATOM     24  C   UNL     1       4.834  -2.295  27.609  0.00  0.00    +0.088 A 
ATOM     25  C   UNL     1       4.865  -1.038  27.018  0.00  0.00    +0.274 A 
ATOM     26  C   UNL     1       5.937  -0.672  26.194  0.00  0.00    +0.091 A 
BRANCH  25  27
ATOM     27  N   UNL     1       3.821  -0.049  27.323  0.00  0.00    +0.080 N 
ATOM     28  O   UNL     1       4.095   0.842  28.142  0.00  0.00    +0.041 OA
ATOM     29  O   UNL     1       2.735  -0.147  26.733  0.00  0.00    -0.576 OA
ENDBRANCH  25  27
BRANCH  22  30
ATOM     30  O   UNL     1       8.020  -3.716  26.664  0.00  0.00    -0.495 OA
ATOM     31  C   UNL     1       7.673  -5.094  26.652  0.00  0.00    +0.277 C 
ENDBRANCH  22  30
ENDBRANCH  20  21
ENDBRANCH   1  20
TORSDOF 7
ENDMDL
MODEL 7
REMARK VINA RESULT:      -6.2      2.797      6.101
REMARK  Name = 
REMARK  9 active torsions:
REMARK  status: ('A' for Active; 'I' for Inactive)
REMARK    1  A    between atoms: C_2  and  C_3
REMARK    2  A    between atoms: C_2  and  C_15
REMARK    3  A    between atoms: C_2  and  C_21
REMARK    4  A    between atoms: C_3  and  C_4
REMARK    5  A    between atoms: C_6  and  N_12
REMARK    6  A    between atoms: C_9  and  O_10
REMARK    7  A    between atoms: O_10  and  C_11
REMARK    8  A    between atoms: C_24  and  O_25
REMARK    9  A    between atoms: O_25  and  C_26
REMARK                            x       y       z     vdW  Elec       q    Type
REMARK                         _______ _______ _______ _____ _____    ______ ____
ROOT
ATOM      1  C   UNL     1       6.408  -2.355  24.284  0.00  0.00    +0.074 C 
ENDROOT
BRANCH   1   2
ATOM      2  C   UNL     1       7.434  -3.101  25.105  0.00  0.00    +0.068 A 
ATOM      3  N   UNL     1       8.110  -4.158  24.517  0.00  0.00    -0.219 NA
ATOM      4  C   UNL     1       8.862  -4.681  25.446  0.00  0.00    +0.191 A 
ATOM      5  N   UNL     1       9.658  -5.748  25.337  0.00  0.00    -0.329 N 
ATOM      6  H   UNL     1       9.818  -6.082  24.391  0.00  0.00    +0.145 HD
ATOM      7  H   UNL     1      10.451  -5.885  25.951  0.00  0.00    +0.145 HD
ATOM      8  N   UNL     1       8.734  -4.004  26.623  0.00  0.00    -0.333 N 
ATOM      9  H   UNL     1       9.190  -4.248  27.489  0.00  0.00    +0.168 HD
ATOM     10  C   UNL     1       7.839  -2.988  26.423  0.00  0.00    +0.109 A 
ENDBRANCH   1   2
BRANCH   1  11
ATOM     11  C   UNL     1       5.050  -3.060  24.315  0.00  0.00    -0.035 A 
ATOM     12  C   UNL     1       4.775  -4.095  23.402  0.00  0.00    +0.046 A 
ATOM     13  C   UNL     1       3.634  -4.887  23.537  0.00  0.00    +0.165 A 
ATOM     14  F   UNL     1       3.436  -5.878  22.654  0.00  0.00    -0.202 F 
ATOM     15  C   UNL     1       2.736  -4.697  24.589  0.00  0.00    +0.155 A 
ATOM     16  C   UNL     1       2.959  -3.635  25.462  0.00  0.00    +0.049 A 
ATOM     17  C   UNL     1       4.101  -2.832  25.327  0.00  0.00    +0.008 A 
BRANCH  15  18
ATOM     18  O   UNL     1       1.707  -5.594  24.683  0.00  0.00    -0.492 OA
ATOM     19  C   UNL     1       1.860  -6.646  25.628  0.00  0.00    +0.277 C 
ENDBRANCH  15  18
ENDBRANCH   1  11
BRANCH   1  20
ATOM     20  C   UNL     1       6.941  -1.902  22.888  0.00  0.00    +0.053 C 
BRANCH  20  21
ATOM     21  C   UNL     1       7.634  -0.562  22.670  0.00  0.00    +0.002 A 
ATOM     22  C   UNL     1       8.976  -0.467  22.250  0.00  0.00    +0.124 A 
ATOM     23  C   UNL     1       9.516   0.784  21.894  0.00  0.00    +0.052 A 
ATOM     24  C   UNL     1       8.748   1.948  21.919  0.00  0.00    +0.088 A 
ATOM     25  C   UNL     1       7.429   1.865  22.348  0.00  0.00    +0.274 A 
ATOM     26  C   UNL     1       6.900   0.639  22.770  0.00  0.00    +0.091 A 
BRANCH  25  27
ATOM     27  N   UNL     1       6.550   3.043  22.278  0.00  0.00    +0.080 N 
ATOM     28  O   UNL     1       5.362   2.894  22.601  0.00  0.00    +0.041 OA
ATOM     29  O   UNL     1       7.048   4.120  21.920  0.00  0.00    -0.576 OA
ENDBRANCH  25  27
BRANCH  22  30
ATOM     30  O   UNL     1       9.844  -1.495  21.991  0.00  0.00    -0.495 OA
ATOM     31  C   UNL     1      10.636  -2.004  23.054  0.00  0.00    +0.277 C 
ENDBRANCH  22  30
ENDBRANCH  20  21
ENDBRANCH   1  20
TORSDOF 7
ENDMDL
MODEL 8
REMARK VINA RESULT:      -6.1      3.226      5.724
REMARK  Name = 
REMARK  9 active torsions:
REMARK  status: ('A' for Active; 'I' for Inactive)
REMARK    1  A    between atoms: C_2  and  C_3
REMARK    2  A    between atoms: C_2  and  C_15
REMARK    3  A    between atoms: C_2  and  C_21
REMARK    4  A    between atoms: C_3  and  C_4
REMARK    5  A    between atoms: C_6  and  N_12
REMARK    6  A    between atoms: C_9  and  O_10
REMARK    7  A    between atoms: O_10  and  C_11
REMARK    8  A    between atoms: C_24  and  O_25
REMARK    9  A    between atoms: O_25  and  C_26
REMARK                            x       y       z     vdW  Elec       q    Type
REMARK                         _______ _______ _______ _____ _____    ______ ____
ROOT
ATOM      1  C   UNL     1       7.395  -2.930  22.871  0.00  0.00    +0.074 C 
ENDROOT
BRANCH   1   2
ATOM      2  C   UNL     1       8.155  -3.467  24.061  0.00  0.00    +0.068 A 
ATOM      3  N   UNL     1       8.707  -4.735  23.976  0.00  0.00    -0.219 NA
ATOM      4  C   UNL     1       9.224  -4.995  25.146  0.00  0.00    +0.191 A 
ATOM      5  N   UNL     1       9.828  -6.122  25.531  0.00  0.00    -0.329 N 
ATOM      6  H   UNL     1      10.051  -6.777  24.787  0.00  0.00    +0.145 HD
ATOM      7  H   UNL     1      10.495  -6.135  26.292  0.00  0.00    +0.145 HD
ATOM      8  N   UNL     1       9.062  -3.945  26.001  0.00  0.00    -0.333 N 
ATOM      9  H   UNL     1       9.348  -3.930  26.968  0.00  0.00    +0.168 HD
ATOM     10  C   UNL     1       8.394  -2.958  25.326  0.00  0.00    +0.109 A 
ENDBRANCH   1   2
BRANCH   1  11
ATOM     11  C   UNL     1       7.892  -1.538  22.473  0.00  0.00    -0.035 A 
ATOM     12  C   UNL     1       7.226  -0.393  22.948  0.00  0.00    +0.046 A 
ATOM     13  C   UNL     1       7.771   0.880  22.771  0.00  0.00    +0.165 A 
ATOM     14  F   UNL     1       7.106   1.934  23.268  0.00  0.00    -0.202 F 
ATOM     15  C   UNL     1       9.002   1.062  22.139  0.00  0.00    +0.155 A 
ATOM     16  C   UNL     1       9.642  -0.054  21.606  0.00  0.00    +0.049 A 
ATOM     17  C   UNL     1       9.094  -1.334  21.774  0.00  0.00    +0.008 A 
BRANCH  15  18
ATOM     18  O   UNL     1       9.490   2.340  22.110  0.00  0.00    -0.492 OA
ATOM     19  C   UNL     1      10.256   2.759  23.234  0.00  0.00    +0.277 C 
ENDBRANCH  15  18
ENDBRANCH   1  11
BRANCH   1  20
ATOM     20  C   UNL     1       5.851  -3.128  22.982  0.00  0.00    +0.053 C 
BRANCH  20  21
ATOM     21  C   UNL     1       5.143  -3.334  24.316  0.00  0.00    +0.002 A 
ATOM     22  C   UNL     1       4.999  -4.606  24.904  0.00  0.00    +0.124 A 
ATOM     23  C   UNL     1       4.497  -4.725  26.214  0.00  0.00    +0.052 A 
ATOM     24  C   UNL     1       4.154  -3.605  26.972  0.00  0.00    +0.088 A 
ATOM     25  C   UNL     1       4.277  -2.347  26.393  0.00  0.00    +0.274 A 
ATOM     26  C   UNL     1       4.711  -2.221  25.068  0.00  0.00    +0.091 A 
BRANCH  25  27
ATOM     27  N   UNL     1       4.041  -1.136  27.193  0.00  0.00    +0.080 N 
ATOM     28  O   UNL     1       3.161  -0.353  26.805  0.00  0.00    +0.041 OA
ATOM     29  O   UNL     1       4.718  -0.974  28.219  0.00  0.00    -0.576 OA
ENDBRANCH  25  27
BRANCH  22  30
ATOM     30  O   UNL     1       5.431  -5.808  24.408  0.00  0.00    -0.495 OA
ATOM     31  C   UNL     1       4.472  -6.821  24.141  0.00  0.00    +0.277 C 
ENDBRANCH  22  30
ENDBRANCH  20  21
ENDBRANCH   1  20
TORSDOF 7
ENDMDL
MODEL 9
REMARK VINA RESULT:      -6.1      2.608      3.887
REMARK  Name = 
REMARK  9 active torsions:
REMARK  status: ('A' for Active; 'I' for Inactive)
REMARK    1  A    between atoms: C_2  and  C_3
REMARK    2  A    between atoms: C_2  and  C_15
REMARK    3  A    between atoms: C_2  and  C_21
REMARK    4  A    between atoms: C_3  and  C_4
REMARK    5  A    between atoms: C_6  and  N_12
REMARK    6  A    between atoms: C_9  and  O_10
REMARK    7  A    between atoms: O_10  and  C_11
REMARK    8  A    between atoms: C_24  and  O_25
REMARK    9  A    between atoms: O_25  and  C_26
REMARK                            x       y       z     vdW  Elec       q    Type
REMARK                         _______ _______ _______ _____ _____    ______ ____
ROOT
ATOM      1  C   UNL     1       8.360   0.393  24.305  0.00  0.00    +0.074 C 
ENDROOT
BRANCH   1   2
ATOM      2  C   UNL     1       9.245   1.238  23.419  0.00  0.00    +0.068 A 
ATOM      3  N   UNL     1       9.978   2.260  23.999  0.00  0.00    -0.219 NA
ATOM      4  C   UNL     1      10.580   2.886  23.025  0.00  0.00    +0.191 A 
ATOM      5  N   UNL     1      11.364   3.963  23.117  0.00  0.00    -0.329 N 
ATOM      6  H   UNL     1      11.651   4.218  24.057  0.00  0.00    +0.145 HD
ATOM      7  H   UNL     1      12.058   4.177  22.412  0.00  0.00    +0.145 HD
ATOM      8  N   UNL     1      10.298   2.310  21.821  0.00  0.00    -0.333 N 
ATOM      9  H   UNL     1      10.621   2.642  20.925  0.00  0.00    +0.168 HD
ATOM     10  C   UNL     1       9.459   1.253  22.052  0.00  0.00    +0.109 A 
ENDBRANCH   1   2
BRANCH   1  11
ATOM     11  C   UNL     1       8.268  -1.046  23.792  0.00  0.00    -0.035 A 
ATOM     12  C   UNL     1       9.069  -2.049  24.368  0.00  0.00    +0.046 A 
ATOM     13  C   UNL     1       8.861  -3.396  24.065  0.00  0.00    +0.165 A 
ATOM     14  F   UNL     1       9.637  -4.313  24.664  0.00  0.00    -0.202 F 
ATOM     15  C   UNL     1       7.844  -3.799  23.198  0.00  0.00    +0.155 A 
ATOM     16  C   UNL     1       7.086  -2.814  22.569  0.00  0.00    +0.049 A 
ATOM     17  C   UNL     1       7.294  -1.459  22.865  0.00  0.00    +0.008 A 
BRANCH  15  18
ATOM     18  O   UNL     1       7.665  -5.147  23.051  0.00  0.00    -0.492 OA
ATOM     19  C   UNL     1       6.323  -5.619  23.052  0.00  0.00    +0.277 C 
ENDBRANCH  15  18
ENDBRANCH   1  11
BRANCH   1  20
ATOM     20  C   UNL     1       7.021   1.094  24.694  0.00  0.00    +0.053 C 
BRANCH  20  21
ATOM     21  C   UNL     1       6.424   1.006  26.094  0.00  0.00    +0.002 A 
ATOM     22  C   UNL     1       5.350   0.148  26.403  0.00  0.00    +0.124 A 
ATOM     23  C   UNL     1       4.951  -0.028  27.742  0.00  0.00    +0.052 A 
ATOM     24  C   UNL     1       5.610   0.609  28.793  0.00  0.00    +0.088 A 
ATOM     25  C   UNL     1       6.661   1.469  28.496  0.00  0.00    +0.274 A 
ATOM     26  C   UNL     1       7.022   1.706  27.163  0.00  0.00    +0.091 A 
BRANCH  25  27
ATOM     27  N   UNL     1       7.459   2.067  29.576  0.00  0.00    +0.080 N 
ATOM     28  O   UNL     1       8.040   1.297  30.356  0.00  0.00    +0.041 OA
ATOM     29  O   UNL     1       7.523   3.304  29.637  0.00  0.00    -0.576 OA
ENDBRANCH  25  27
BRANCH  22  30
ATOM     30  O   UNL     1       4.684  -0.695  25.552  0.00  0.00    -0.495 OA
ATOM     31  C   UNL     1       4.964  -2.086  25.611  0.00  0.00    +0.277 C 
ENDBRANCH  22  30
ENDBRANCH  20  21
ENDBRANCH   1  20
TORSDOF 7
ENDMDL
