MODEL 1
REMARK VINA RESULT:      -7.2      0.000      0.000
REMARK  Name = 
REMARK  7 active torsions:
REMARK  status: ('A' for Active; 'I' for Inactive)
REMARK    1  A    between atoms: C_1  and  C_2
REMARK    2  A    between atoms: C_5  and  C_18
REMARK    3  A    between atoms: C_7  and  C_8
REMARK    4  A    between atoms: N_10  and  C_11
REMARK    5  A    between atoms: N_20  and  C_21
REMARK    6  A    between atoms: C_21  and  C_22
REMARK    7  A    between atoms: C_22  and  C_23
REMARK                            x       y       z     vdW  Elec       q    Type
REMARK                         _______ _______ _______ _____ _____    ______ ____
ROOT
ATOM      1  C   UNL     1      10.409  -1.686  22.645  0.00  0.00    +0.044 C 
ATOM      2  C   UNL     1       9.698  -0.379  22.858  0.00  0.00    -0.038 A 
ATOM      3  C   UNL     1       8.913  -0.062  23.989  0.00  0.00    +0.041 A 
ATOM      4  C   UNL     1       8.289   1.207  24.070  0.00  0.00    +0.026 A 
ATOM      5  C   UNL     1       8.441   2.156  23.054  0.00  0.00    +0.037 A 
ATOM      6  C   UNL     1       9.215   1.836  21.940  0.00  0.00    +0.013 A 
ATOM      7  C   UNL     1       9.834   0.589  21.843  0.00  0.00    +0.005 A 
ENDROOT
BRANCH   3   8
ATOM      8  C   UNL     1       8.614  -0.978  25.141  0.00  0.00    +0.249 C 
ATOM      9  N   UNL     1       7.834  -2.092  24.894  0.00  0.00    -0.280 N 
ATOM     10  H   UNL     1       7.503  -2.243  23.953  0.00  0.00    +0.155 HD
ATOM     11  O   UNL     1       9.124  -0.701  26.222  0.00  0.00    -0.270 OA
BRANCH   9  12
ATOM     12  C   UNL     1       7.528  -3.122  25.819  0.00  0.00    +0.052 A 
ATOM     13  C   UNL     1       6.221  -3.200  26.304  0.00  0.00    +0.028 A 
ATOM     14  C   UNL     1       5.860  -4.232  27.174  0.00  0.00    +0.045 A 
ATOM     15  C   UNL     1       6.809  -5.174  27.532  0.00  0.00    +0.116 A 
ATOM     16  N   UNL     1       6.483  -6.229  28.381  0.00  0.00    -0.343 N 
ATOM     17  H   UNL     1       5.693  -6.756  28.031  0.00  0.00    +0.144 HD
ATOM     18  H   UNL     1       7.315  -6.809  28.455  0.00  0.00    +0.144 HD
ATOM     19  N   UNL     1       8.079  -5.112  27.109  0.00  0.00    -0.239 NA
ATOM     20  C   UNL     1       8.416  -4.093  26.269  0.00  0.00    +0.136 A 
ENDBRANCH   9  12
ENDBRANCH   3   8
BRANCH   5  21
ATOM     21  C   UNL     1       7.872   3.531  23.126  0.00  0.00    +0.244 C 
ATOM     22  N   UNL     1       8.015   4.223  24.309  0.00  0.00    -0.311 N 
ATOM     23  H   UNL     1       8.353   3.751  25.138  0.00  0.00    +0.149 HD
ATOM     24  O   UNL     1       7.292   3.993  22.147  0.00  0.00    -0.270 OA
BRANCH  22  25
ATOM     25  C   UNL     1       7.483   5.565  24.458  0.00  0.00    +0.105 C 
BRANCH  25  26
ATOM     26  C   UNL     1       8.561   6.650  24.416  0.00  0.00    +0.022 C 
BRANCH  26  27
ATOM     27  C   UNL     1       9.961   6.150  24.786  0.00  0.00    -0.010 C 
ATOM     28  C   UNL     1      10.699   7.107  25.734  0.00  0.00    +0.003 C 
ATOM     29  C   UNL     1      12.180   7.024  25.359  0.00  0.00    +0.000 C 
ATOM     30  C   UNL     1      12.278   5.986  24.250  0.00  0.00    +0.000 C 
ATOM     31  C   UNL     1      10.908   6.013  23.596  0.00  0.00    +0.003 C 
ENDBRANCH  26  27
ENDBRANCH  25  26
ENDBRANCH  22  25
ENDBRANCH   5  21
TORSDOF 6
ENDMDL
MODEL 2
REMARK VINA RESULT:      -7.1      3.727      4.839
REMARK  Name = 
REMARK  7 active torsions:
REMARK  status: ('A' for Active; 'I' for Inactive)
REMARK    1  A    between atoms: C_1  and  C_2
REMARK    2  A    between atoms: C_5  and  C_18
REMARK    3  A    between atoms: C_7  and  C_8
REMARK    4  A    between atoms: N_10  and  C_11
REMARK    5  A    between atoms: N_20  and  C_21
REMARK    6  A    between atoms: C_21  and  C_22
REMARK    7  A    between atoms: C_22  and  C_23
REMARK                            x       y       z     vdW  Elec       q    Type
REMARK                         _______ _______ _______ _____ _____    ______ ____
ROOT
ATOM      1  C   UNL     1       9.095  -5.571  25.303  0.00  0.00    +0.044 C 
ATOM      2  C   UNL     1       8.879  -4.355  24.447  0.00  0.00    -0.038 A 
ATOM      3  C   UNL     1       7.784  -4.167  23.574  0.00  0.00    +0.041 A 
ATOM      4  C   UNL     1       7.696  -2.975  22.814  0.00  0.00    +0.026 A 
ATOM      5  C   UNL     1       8.669  -1.975  22.917  0.00  0.00    +0.037 A 
ATOM      6  C   UNL     1       9.747  -2.168  23.779  0.00  0.00    +0.013 A 
ATOM      7  C   UNL     1       9.850  -3.338  24.532  0.00  0.00    +0.005 A 
ENDROOT
BRANCH   3   8
ATOM      8  C   UNL     1       6.683  -5.155  23.313  0.00  0.00    +0.249 C 
ATOM      9  N   UNL     1       5.614  -5.178  24.188  0.00  0.00    -0.280 N 
ATOM     10  H   UNL     1       5.618  -4.530  24.961  0.00  0.00    +0.155 HD
ATOM     11  O   UNL     1       6.784  -5.850  22.306  0.00  0.00    -0.270 OA
BRANCH   9  12
ATOM     12  C   UNL     1       4.439  -5.961  24.057  0.00  0.00    +0.052 A 
ATOM     13  C   UNL     1       3.418  -5.477  23.237  0.00  0.00    +0.028 A 
ATOM     14  C   UNL     1       2.266  -6.241  23.034  0.00  0.00    +0.045 A 
ATOM     15  C   UNL     1       2.163  -7.479  23.643  0.00  0.00    +0.116 A 
ATOM     16  N   UNL     1       1.039  -8.279  23.448  0.00  0.00    -0.343 N 
ATOM     17  H   UNL     1       0.866  -8.443  22.465  0.00  0.00    +0.144 HD
ATOM     18  H   UNL     1       1.213  -9.149  23.947  0.00  0.00    +0.144 HD
ATOM     19  N   UNL     1       3.110  -7.961  24.458  0.00  0.00    -0.239 NA
ATOM     20  C   UNL     1       4.223  -7.198  24.654  0.00  0.00    +0.136 A 
ENDBRANCH   9  12
ENDBRANCH   3   8
BRANCH   5  21
ATOM     21  C   UNL     1       8.582  -0.671  22.202  0.00  0.00    +0.244 C 
ATOM     22  N   UNL     1       7.691   0.265  22.681  0.00  0.00    -0.311 N 
ATOM     23  H   UNL     1       7.016   0.010  23.390  0.00  0.00    +0.149 HD
ATOM     24  O   UNL     1       9.289  -0.479  21.216  0.00  0.00    -0.270 OA
BRANCH  22  25
ATOM     25  C   UNL     1       7.546   1.556  22.034  0.00  0.00    +0.105 C 
BRANCH  25  26
ATOM     26  C   UNL     1       7.535   2.726  23.020  0.00  0.00    +0.022 C 
BRANCH  26  27
ATOM     27  C   UNL     1       8.898   3.018  23.655  0.00  0.00    -0.010 C 
ATOM     28  C   UNL     1       9.099   4.509  23.966  0.00  0.00    +0.003 C 
ATOM     29  C   UNL     1      10.587   4.794  23.754  0.00  0.00    +0.000 C 
ATOM     30  C   UNL     1      11.224   3.462  23.385  0.00  0.00    +0.000 C 
ATOM     31  C   UNL     1      10.089   2.667  22.766  0.00  0.00    +0.003 C 
ENDBRANCH  26  27
ENDBRANCH  25  26
ENDBRANCH  22  25
ENDBRANCH   5  21
TORSDOF 6
ENDMDL
MODEL 3
REMARK VINA RESULT:      -7.1      3.763      5.468
REMARK  Name = 
REMARK  7 active torsions:
REMARK  status: ('A' for Active; 'I' for Inactive)
REMARK    1  A    between atoms: C_1  and  C_2
REMARK    2  A    between atoms: C_5  and  C_18
REMARK    3  A    between atoms: C_7  and  C_8
REMARK    4  A    between atoms: N_10  and  C_11
REMARK    5  A    between atoms: N_20  and  C_21
REMARK    6  A    between atoms: C_21  and  C_22
REMARK    7  A    between atoms: C_22  and  C_23
REMARK                            x       y       z     vdW  Elec       q    Type
REMARK                         _______ _______ _______ _____ _____    ______ ____
ROOT
ATOM      1  C   UNL     1       7.843  -5.291  26.577  0.00  0.00    +0.044 C 
ATOM      2  C   UNL     1       7.783  -4.164  25.585  0.00  0.00    -0.038 A 
ATOM      3  C   UNL     1       6.951  -4.136  24.444  0.00  0.00    +0.041 A 
ATOM      4  C   UNL     1       6.991  -3.014  23.580  0.00  0.00    +0.026 A 
ATOM      5  C   UNL     1       7.832  -1.928  23.841  0.00  0.00    +0.037 A 
ATOM      6  C   UNL     1       8.651  -1.962  24.969  0.00  0.00    +0.013 A 
ATOM      7  C   UNL     1       8.627  -3.062  25.827  0.00  0.00    +0.005 A 
ENDROOT
BRANCH   3   8
ATOM      8  C   UNL     1       6.028  -5.234  23.997  0.00  0.00    +0.249 C 
ATOM      9  N   UNL     1       4.797  -5.335  24.616  0.00  0.00    -0.280 N 
ATOM     10  H   UNL     1       4.570  -4.667  25.337  0.00  0.00    +0.155 HD
ATOM     11  O   UNL     1       6.413  -5.945  23.073  0.00  0.00    -0.270 OA
BRANCH   9  12
ATOM     12  C   UNL     1       3.755  -6.232  24.269  0.00  0.00    +0.052 A 
ATOM     13  C   UNL     1       2.889  -5.862  23.239  0.00  0.00    +0.028 A 
ATOM     14  C   UNL     1       1.882  -6.739  22.826  0.00  0.00    +0.045 A 
ATOM     15  C   UNL     1       1.770  -7.973  23.441  0.00  0.00    +0.116 A 
ATOM     16  N   UNL     1       0.793  -8.883  23.043  0.00  0.00    -0.343 N 
ATOM     17  H   UNL     1       0.847  -9.076  22.051  0.00  0.00    +0.144 HD
ATOM     18  H   UNL     1       0.939  -9.725  23.595  0.00  0.00    +0.144 HD
ATOM     19  N   UNL     1       2.566  -8.348  24.451  0.00  0.00    -0.239 NA
ATOM     20  C   UNL     1       3.535  -7.476  24.848  0.00  0.00    +0.136 A 
ENDBRANCH   9  12
ENDBRANCH   3   8
BRANCH   5  21
ATOM     21  C   UNL     1       7.854  -0.691  23.011  0.00  0.00    +0.244 C 
ATOM     22  N   UNL     1       9.009  -0.406  22.315  0.00  0.00    -0.311 N 
ATOM     23  H   UNL     1       9.854  -0.935  22.491  0.00  0.00    +0.149 HD
ATOM     24  O   UNL     1       6.861   0.032  22.983  0.00  0.00    -0.270 OA
BRANCH  22  25
ATOM     25  C   UNL     1       9.108   0.784  21.490  0.00  0.00    +0.105 C 
BRANCH  25  26
ATOM     26  C   UNL     1      10.113   1.806  22.025  0.00  0.00    +0.022 C 
BRANCH  26  27
ATOM     27  C   UNL     1       9.515   2.803  23.024  0.00  0.00    -0.010 C 
ATOM     28  C   UNL     1       9.460   2.245  24.454  0.00  0.00    +0.003 C 
ATOM     29  C   UNL     1       8.200   2.832  25.094  0.00  0.00    +0.000 C 
ATOM     30  C   UNL     1       7.587   3.756  24.051  0.00  0.00    +0.000 C 
ATOM     31  C   UNL     1       8.068   3.191  22.727  0.00  0.00    +0.003 C 
ENDBRANCH  26  27
ENDBRANCH  25  26
ENDBRANCH  22  25
ENDBRANCH   5  21
TORSDOF 6
ENDMDL
MODEL 4
REMARK VINA RESULT:      -7.0      2.630      2.861
REMARK  Name = 
REMARK  7 active torsions:
REMARK  status: ('A' for Active; 'I' for Inactive)
REMARK    1  A    between atoms: C_1  and  C_2
REMARK    2  A    between atoms: C_5  and  C_18
REMARK    3  A    between atoms: C_7  and  C_8
REMARK    4  A    between atoms: N_10  and  C_11
REMARK    5  A    between atoms: N_20  and  C_21
REMARK    6  A    between atoms: C_21  and  C_22
REMARK    7  A    between atoms: C_22  and  C_23
REMARK                            x       y       z     vdW  Elec       q    Type
REMARK                         _______ _______ _______ _____ _____    ______ ____
ROOT
ATOM      1  C   UNL     1      10.265  -1.518  22.438  0.00  0.00    +0.044 C 
ATOM      2  C   UNL     1       9.350  -0.328  22.515  0.00  0.00    -0.038 A 
ATOM      3  C   UNL     1       8.018  -0.363  22.984  0.00  0.00    +0.041 A 
ATOM      4  C   UNL     1       7.255   0.831  23.003  0.00  0.00    +0.026 A 
ATOM      5  C   UNL     1       7.799   2.046  22.574  0.00  0.00    +0.037 A 
ATOM      6  C   UNL     1       9.113   2.072  22.112  0.00  0.00    +0.013 A 
ATOM      7  C   UNL     1       9.877   0.905  22.083  0.00  0.00    +0.005 A 
ENDROOT
BRANCH   3   8
ATOM      8  C   UNL     1       7.273  -1.586  23.435  0.00  0.00    +0.249 C 
ATOM      9  N   UNL     1       6.413  -2.189  22.536  0.00  0.00    -0.280 N 
ATOM     10  H   UNL     1       6.326  -1.783  21.617  0.00  0.00    +0.155 HD
ATOM     11  O   UNL     1       7.514  -2.001  24.566  0.00  0.00    -0.270 OA
BRANCH   9  12
ATOM     12  C   UNL     1       5.704  -3.399  22.737  0.00  0.00    +0.052 A 
ATOM     13  C   UNL     1       6.105  -4.522  22.011  0.00  0.00    +0.028 A 
ATOM     14  C   UNL     1       5.470  -5.749  22.217  0.00  0.00    +0.045 A 
ATOM     15  C   UNL     1       4.457  -5.834  23.156  0.00  0.00    +0.116 A 
ATOM     16  N   UNL     1       3.814  -7.045  23.405  0.00  0.00    -0.343 N 
ATOM     17  H   UNL     1       4.474  -7.772  23.649  0.00  0.00    +0.144 HD
ATOM     18  H   UNL     1       3.153  -6.872  24.159  0.00  0.00    +0.144 HD
ATOM     19  N   UNL     1       4.028  -4.771  23.849  0.00  0.00    -0.239 NA
ATOM     20  C   UNL     1       4.651  -3.579  23.627  0.00  0.00    +0.136 A 
ENDBRANCH   9  12
ENDBRANCH   3   8
BRANCH   5  21
ATOM     21  C   UNL     1       7.068   3.342  22.648  0.00  0.00    +0.244 C 
ATOM     22  N   UNL     1       7.655   4.443  22.065  0.00  0.00    -0.311 N 
ATOM     23  H   UNL     1       8.613   4.400  21.742  0.00  0.00    +0.149 HD
ATOM     24  O   UNL     1       5.987   3.389  23.228  0.00  0.00    -0.270 OA
BRANCH  22  25
ATOM     25  C   UNL     1       7.007   5.742  22.102  0.00  0.00    +0.105 C 
BRANCH  25  26
ATOM     26  C   UNL     1       7.842   6.813  22.807  0.00  0.00    +0.022 C 
BRANCH  26  27
ATOM     27  C   UNL     1       8.838   6.254  23.829  0.00  0.00    -0.010 C 
ATOM     28  C   UNL     1       8.914   7.103  25.107  0.00  0.00    +0.003 C 
ATOM     29  C   UNL     1      10.365   7.026  25.586  0.00  0.00    +0.000 C 
ATOM     30  C   UNL     1      11.081   6.094  24.619  0.00  0.00    +0.000 C 
ATOM     31  C   UNL     1      10.281   6.209  23.333  0.00  0.00    +0.003 C 
ENDBRANCH  26  27
ENDBRANCH  25  26
ENDBRANCH  22  25
ENDBRANCH   5  21
TORSDOF 6
ENDMDL
MODEL 5
REMARK VINA RESULT:      -6.8      2.860      3.363
REMARK  Name = 
REMARK  7 active torsions:
REMARK  status: ('A' for Active; 'I' for Inactive)
REMARK    1  A    between atoms: C_1  and  C_2
REMARK    2  A    between atoms: C_5  and  C_18
REMARK    3  A    between atoms: C_7  and  C_8
REMARK    4  A    between atoms: N_10  and  C_11
REMARK    5  A    between atoms: N_20  and  C_21
REMARK    6  A    between atoms: C_21  and  C_22
REMARK    7  A    between atoms: C_22  and  C_23
REMARK                            x       y       z     vdW  Elec       q    Type
REMARK                         _______ _______ _______ _____ _____    ______ ____
ROOT
ATOM      1  C   UNL     1      10.210  -1.549  22.444  0.00  0.00    +0.044 C 
ATOM      2  C   UNL     1       9.326  -0.335  22.404  0.00  0.00    -0.038 A 
ATOM      3  C   UNL     1       7.976  -0.305  22.821  0.00  0.00    +0.041 A 
ATOM      4  C   UNL     1       7.245   0.905  22.729  0.00  0.00    +0.026 A 
ATOM      5  C   UNL     1       7.837   2.074  22.240  0.00  0.00    +0.037 A 
ATOM      6  C   UNL     1       9.168   2.037  21.829  0.00  0.00    +0.013 A 
ATOM      7  C   UNL     1       9.901   0.852  21.910  0.00  0.00    +0.005 A 
ENDROOT
BRANCH   3   8
ATOM      8  C   UNL     1       7.182  -1.476  23.325  0.00  0.00    +0.249 C 
ATOM      9  N   UNL     1       6.668  -2.358  22.393  0.00  0.00    -0.280 N 
ATOM     10  H   UNL     1       6.852  -2.179  21.418  0.00  0.00    +0.155 HD
ATOM     11  O   UNL     1       7.080  -1.599  24.542  0.00  0.00    -0.270 OA
BRANCH   9  12
ATOM     12  C   UNL     1       5.985  -3.568  22.672  0.00  0.00    +0.052 A 
ATOM     13  C   UNL     1       6.566  -4.763  22.243  0.00  0.00    +0.028 A 
ATOM     14  C   UNL     1       5.955  -5.983  22.544  0.00  0.00    +0.045 A 
ATOM     15  C   UNL     1       4.784  -5.986  23.281  0.00  0.00    +0.116 A 
ATOM     16  N   UNL     1       4.156  -7.183  23.619  0.00  0.00    -0.343 N 
ATOM     17  H   UNL     1       4.786  -7.808  24.105  0.00  0.00    +0.144 HD
ATOM     18  H   UNL     1       3.355  -6.937  24.196  0.00  0.00    +0.144 HD
ATOM     19  N   UNL     1       4.184  -4.858  23.683  0.00  0.00    -0.239 NA
ATOM     20  C   UNL     1       4.788  -3.676  23.371  0.00  0.00    +0.136 A 
ENDBRANCH   9  12
ENDBRANCH   3   8
BRANCH   5  21
ATOM     21  C   UNL     1       7.139   3.389  22.197  0.00  0.00    +0.244 C 
ATOM     22  N   UNL     1       7.916   4.526  22.146  0.00  0.00    -0.311 N 
ATOM     23  H   UNL     1       8.915   4.468  22.292  0.00  0.00    +0.149 HD
ATOM     24  O   UNL     1       5.911   3.419  22.219  0.00  0.00    -0.270 OA
BRANCH  22  25
ATOM     25  C   UNL     1       7.308   5.844  22.108  0.00  0.00    +0.105 C 
BRANCH  25  26
ATOM     26  C   UNL     1       7.911   6.815  23.126  0.00  0.00    +0.022 C 
BRANCH  26  27
ATOM     27  C   UNL     1       7.584   6.472  24.583  0.00  0.00    -0.010 C 
ATOM     28  C   UNL     1       8.514   5.395  25.160  0.00  0.00    +0.003 C 
ATOM     29  C   UNL     1       7.666   4.573  26.133  0.00  0.00    +0.000 C 
ATOM     30  C   UNL     1       6.289   5.221  26.145  0.00  0.00    +0.000 C 
ATOM     31  C   UNL     1       6.185   5.895  24.789  0.00  0.00    +0.003 C 
ENDBRANCH  26  27
ENDBRANCH  25  26
ENDBRANCH  22  25
ENDBRANCH   5  21
TORSDOF 6
ENDMDL
MODEL 6
REMARK VINA RESULT:      -6.5      4.314      6.029
REMARK  Name = 
REMARK  7 active torsions:
REMARK  status: ('A' for Active; 'I' for Inactive)
REMARK    1  A    between atoms: C_1  and  C_2
REMARK    2  A    between atoms: C_5  and  C_18
REMARK    3  A    between atoms: C_7  and  C_8
REMARK    4  A    between atoms: N_10  and  C_11
REMARK    5  A    between atoms: N_20  and  C_21
REMARK    6  A    between atoms: C_21  and  C_22
REMARK    7  A    between atoms: C_22  and  C_23
REMARK                            x       y       z     vdW  Elec       q    Type
REMARK                         _______ _______ _______ _____ _____    ______ ____
ROOT
ATOM      1  C   UNL     1      10.598   0.618  24.309  0.00  0.00    +0.044 C 
ATOM      2  C   UNL     1       9.385   1.386  23.862  0.00  0.00    -0.038 A 
ATOM      3  C   UNL     1       8.306   0.838  23.134  0.00  0.00    +0.041 A 
ATOM      4  C   UNL     1       7.220   1.670  22.767  0.00  0.00    +0.026 A 
ATOM      5  C   UNL     1       7.192   3.023  23.119  0.00  0.00    +0.037 A 
ATOM      6  C   UNL     1       8.261   3.558  23.836  0.00  0.00    +0.013 A 
ATOM      7  C   UNL     1       9.340   2.752  24.202  0.00  0.00    +0.005 A 
ENDROOT
BRANCH   3   8
ATOM      8  C   UNL     1       8.201  -0.577  22.641  0.00  0.00    +0.249 C 
ATOM      9  N   UNL     1       7.271  -1.404  23.242  0.00  0.00    -0.280 N 
ATOM     10  H   UNL     1       6.702  -1.022  23.982  0.00  0.00    +0.155 HD
ATOM     11  O   UNL     1       8.922  -0.894  21.699  0.00  0.00    -0.270 OA
BRANCH   9  12
ATOM     12  C   UNL     1       6.954  -2.730  22.853  0.00  0.00    +0.052 A 
ATOM     13  C   UNL     1       7.745  -3.766  23.352  0.00  0.00    +0.028 A 
ATOM     14  C   UNL     1       7.436  -5.093  23.040  0.00  0.00    +0.045 A 
ATOM     15  C   UNL     1       6.333  -5.358  22.248  0.00  0.00    +0.116 A 
ATOM     16  N   UNL     1       5.980  -6.668  21.931  0.00  0.00    -0.343 N 
ATOM     17  H   UNL     1       5.860  -7.231  22.764  0.00  0.00    +0.144 HD
ATOM     18  H   UNL     1       5.120  -6.614  21.390  0.00  0.00    +0.144 HD
ATOM     19  N   UNL     1       5.570  -4.387  21.729  0.00  0.00    -0.239 NA
ATOM     20  C   UNL     1       5.893  -3.099  22.035  0.00  0.00    +0.136 A 
ENDBRANCH   9  12
ENDBRANCH   3   8
BRANCH   5  21
ATOM     21  C   UNL     1       6.040   3.922  22.827  0.00  0.00    +0.244 C 
ATOM     22  N   UNL     1       4.900   3.352  22.301  0.00  0.00    -0.311 N 
ATOM     23  H   UNL     1       4.910   2.392  21.982  0.00  0.00    +0.149 HD
ATOM     24  O   UNL     1       6.145   5.125  23.050  0.00  0.00    -0.270 OA
BRANCH  22  25
ATOM     25  C   UNL     1       3.739   4.164  21.985  0.00  0.00    +0.105 C 
BRANCH  25  26
ATOM     26  C   UNL     1       2.502   3.334  21.632  0.00  0.00    +0.022 C 
BRANCH  26  27
ATOM     27  C   UNL     1       1.619   3.964  20.550  0.00  0.00    -0.010 C 
ATOM     28  C   UNL     1       1.766   3.268  19.188  0.00  0.00    +0.003 C 
ATOM     29  C   UNL     1       1.603   4.361  18.129  0.00  0.00    +0.000 C 
ATOM     30  C   UNL     1       1.309   5.646  18.890  0.00  0.00    +0.000 C 
ATOM     31  C   UNL     1       1.945   5.425  20.251  0.00  0.00    +0.003 C 
ENDBRANCH  26  27
ENDBRANCH  25  26
ENDBRANCH  22  25
ENDBRANCH   5  21
TORSDOF 6
ENDMDL
MODEL 7
REMARK VINA RESULT:      -6.4      2.120      3.613
REMARK  Name = 
REMARK  7 active torsions:
REMARK  status: ('A' for Active; 'I' for Inactive)
REMARK    1  A    between atoms: C_1  and  C_2
REMARK    2  A    between atoms: C_5  and  C_18
REMARK    3  A    between atoms: C_7  and  C_8
REMARK    4  A    between atoms: N_10  and  C_11
REMARK    5  A    between atoms: N_20  and  C_21
REMARK    6  A    between atoms: C_21  and  C_22
REMARK    7  A    between atoms: C_22  and  C_23
REMARK                            x       y       z     vdW  Elec       q    Type
REMARK                         _______ _______ _______ _____ _____    ______ ____
ROOT
ATOM      1  C   UNL     1      10.399  -1.730  22.620  0.00  0.00    +0.044 C 
ATOM      2  C   UNL     1       9.820  -0.369  22.886  0.00  0.00    -0.038 A 
ATOM      3  C   UNL     1       9.106  -0.009  24.050  0.00  0.00    +0.041 A 
ATOM      4  C   UNL     1       8.604   1.309  24.180  0.00  0.00    +0.026 A 
ATOM      5  C   UNL     1       8.810   2.265  23.180  0.00  0.00    +0.037 A 
ATOM      6  C   UNL     1       9.515   1.903  22.033  0.00  0.00    +0.013 A 
ATOM      7  C   UNL     1      10.012   0.607  21.888  0.00  0.00    +0.005 A 
ENDROOT
BRANCH   3   8
ATOM      8  C   UNL     1       8.760  -0.923  25.191  0.00  0.00    +0.249 C 
ATOM      9  N   UNL     1       8.011  -2.050  24.913  0.00  0.00    -0.280 N 
ATOM     10  H   UNL     1       7.732  -2.212  23.957  0.00  0.00    +0.155 HD
ATOM     11  O   UNL     1       9.209  -0.630  26.296  0.00  0.00    -0.270 OA
BRANCH   9  12
ATOM     12  C   UNL     1       7.672  -3.078  25.828  0.00  0.00    +0.052 A 
ATOM     13  C   UNL     1       6.375  -3.095  26.344  0.00  0.00    +0.028 A 
ATOM     14  C   UNL     1       5.980  -4.121  27.206  0.00  0.00    +0.045 A 
ATOM     15  C   UNL     1       6.885  -5.118  27.524  0.00  0.00    +0.116 A 
ATOM     16  N   UNL     1       6.523  -6.170  28.364  0.00  0.00    -0.343 N 
ATOM     17  H   UNL     1       5.698  -6.648  28.026  0.00  0.00    +0.144 HD
ATOM     18  H   UNL     1       7.325  -6.795  28.408  0.00  0.00    +0.144 HD
ATOM     19  N   UNL     1       8.146  -5.118  27.071  0.00  0.00    -0.239 NA
ATOM     20  C   UNL     1       8.517  -4.103  26.240  0.00  0.00    +0.136 A 
ENDBRANCH   9  12
ENDBRANCH   3   8
BRANCH   5  21
ATOM     21  C   UNL     1       8.374   3.684  23.301  0.00  0.00    +0.244 C 
ATOM     22  N   UNL     1       7.683   4.235  22.243  0.00  0.00    -0.311 N 
ATOM     23  H   UNL     1       7.618   3.740  21.363  0.00  0.00    +0.149 HD
ATOM     24  O   UNL     1       8.650   4.312  24.319  0.00  0.00    -0.270 OA
BRANCH  22  25
ATOM     25  C   UNL     1       7.231   5.614  22.285  0.00  0.00    +0.105 C 
BRANCH  25  26
ATOM     26  C   UNL     1       5.787   5.760  22.770  0.00  0.00    +0.022 C 
BRANCH  26  27
ATOM     27  C   UNL     1       5.071   4.427  23.007  0.00  0.00    -0.010 C 
ATOM     28  C   UNL     1       3.656   4.401  22.411  0.00  0.00    +0.003 C 
ATOM     29  C   UNL     1       2.811   3.539  23.350  0.00  0.00    +0.000 C 
ATOM     30  C   UNL     1       3.758   3.038  24.432  0.00  0.00    +0.000 C 
ATOM     31  C   UNL     1       4.853   4.089  24.480  0.00  0.00    +0.003 C 
ENDBRANCH  26  27
ENDBRANCH  25  26
ENDBRANCH  22  25
ENDBRANCH   5  21
TORSDOF 6
ENDMDL
MODEL 8
REMARK VINA RESULT:      -6.4      3.057      4.905
REMARK  Name = 
REMARK  7 active torsions:
REMARK  status: ('A' for Active; 'I' for Inactive)
REMARK    1  A    between atoms: C_1  and  C_2
REMARK    2  A    between atoms: C_5  and  C_18
REMARK    3  A    between atoms: C_7  and  C_8
REMARK    4  A    between atoms: N_10  and  C_11
REMARK    5  A    between atoms: N_20  and  C_21
REMARK    6  A    between atoms: C_21  and  C_22
REMARK    7  A    between atoms: C_22  and  C_23
REMARK                            x       y       z     vdW  Elec       q    Type
REMARK                         _______ _______ _______ _____ _____    ______ ____
ROOT
ATOM      1  C   UNL     1       6.764  -6.165  22.270  0.00  0.00    +0.044 C 
ATOM      2  C   UNL     1       6.750  -4.759  22.802  0.00  0.00    -0.038 A 
ATOM      3  C   UNL     1       6.234  -4.377  24.060  0.00  0.00    +0.041 A 
ATOM      4  C   UNL     1       6.274  -3.015  24.445  0.00  0.00    +0.026 A 
ATOM      5  C   UNL     1       6.824  -2.040  23.605  0.00  0.00    +0.037 A 
ATOM      6  C   UNL     1       7.331  -2.424  22.365  0.00  0.00    +0.013 A 
ATOM      7  C   UNL     1       7.294  -3.762  21.969  0.00  0.00    +0.005 A 
ENDROOT
BRANCH   3   8
ATOM      8  C   UNL     1       5.572  -5.287  25.056  0.00  0.00    +0.249 C 
ATOM      9  N   UNL     1       5.648  -4.947  26.393  0.00  0.00    -0.280 N 
ATOM     10  H   UNL     1       6.141  -4.103  26.641  0.00  0.00    +0.155 HD
ATOM     11  O   UNL     1       4.962  -6.254  24.608  0.00  0.00    -0.270 OA
BRANCH   9  12
ATOM     12  C   UNL     1       5.007  -5.616  27.466  0.00  0.00    +0.052 A 
ATOM     13  C   UNL     1       3.678  -5.289  27.741  0.00  0.00    +0.028 A 
ATOM     14  C   UNL     1       2.990  -5.962  28.754  0.00  0.00    +0.045 A 
ATOM     15  C   UNL     1       3.639  -6.959  29.461  0.00  0.00    +0.116 A 
ATOM     16  N   UNL     1       2.980  -7.667  30.464  0.00  0.00    -0.343 N 
ATOM     17  H   UNL     1       2.126  -8.087  30.121  0.00  0.00    +0.144 HD
ATOM     18  H   UNL     1       3.634  -8.371  30.799  0.00  0.00    +0.144 HD
ATOM     19  N   UNL     1       4.921  -7.277  29.243  0.00  0.00    -0.239 NA
ATOM     20  C   UNL     1       5.581  -6.603  28.259  0.00  0.00    +0.136 A 
ENDBRANCH   9  12
ENDBRANCH   3   8
BRANCH   5  21
ATOM     21  C   UNL     1       6.964  -0.609  23.994  0.00  0.00    +0.244 C 
ATOM     22  N   UNL     1       6.107   0.300  23.413  0.00  0.00    -0.311 N 
ATOM     23  H   UNL     1       5.517   0.022  22.638  0.00  0.00    +0.149 HD
ATOM     24  O   UNL     1       7.834  -0.287  24.799  0.00  0.00    -0.270 OA
BRANCH  22  25
ATOM     25  C   UNL     1       6.186   1.713  23.736  0.00  0.00    +0.105 C 
BRANCH  25  26
ATOM     26  C   UNL     1       6.510   2.591  22.525  0.00  0.00    +0.022 C 
BRANCH  26  27
ATOM     27  C   UNL     1       8.009   2.720  22.234  0.00  0.00    -0.010 C 
ATOM     28  C   UNL     1       8.565   1.520  21.452  0.00  0.00    +0.003 C 
ATOM     29  C   UNL     1       9.998   1.314  21.946  0.00  0.00    +0.000 C 
ATOM     30  C   UNL     1      10.262   2.424  22.954  0.00  0.00    +0.000 C 
ATOM     31  C   UNL     1       8.884   2.779  23.484  0.00  0.00    +0.003 C 
ENDBRANCH  26  27
ENDBRANCH  25  26
ENDBRANCH  22  25
ENDBRANCH   5  21
TORSDOF 6
ENDMDL
MODEL 9
REMARK VINA RESULT:      -6.4      3.029      9.637
REMARK  Name = 
REMARK  7 active torsions:
REMARK  status: ('A' for Active; 'I' for Inactive)
REMARK    1  A    between atoms: C_1  and  C_2
REMARK    2  A    between atoms: C_5  and  C_18
REMARK    3  A    between atoms: C_7  and  C_8
REMARK    4  A    between atoms: N_10  and  C_11
REMARK    5  A    between atoms: N_20  and  C_21
REMARK    6  A    between atoms: C_21  and  C_22
REMARK    7  A    between atoms: C_22  and  C_23
REMARK                            x       y       z     vdW  Elec       q    Type
REMARK                         _______ _______ _______ _____ _____    ______ ____
ROOT
ATOM      1  C   UNL     1       6.677   1.870  26.256  0.00  0.00    +0.044 C 
ATOM      2  C   UNL     1       6.829   0.703  25.320  0.00  0.00    -0.038 A 
ATOM      3  C   UNL     1       7.959   0.462  24.507  0.00  0.00    +0.041 A 
ATOM      4  C   UNL     1       7.979  -0.674  23.662  0.00  0.00    +0.026 A 
ATOM      5  C   UNL     1       6.903  -1.567  23.622  0.00  0.00    +0.037 A 
ATOM      6  C   UNL     1       5.791  -1.322  24.426  0.00  0.00    +0.013 A 
ATOM      7  C   UNL     1       5.755  -0.206  25.261  0.00  0.00    +0.005 A 
ENDROOT
BRANCH   3   8
ATOM      8  C   UNL     1       9.171   1.342  24.398  0.00  0.00    +0.249 C 
ATOM      9  N   UNL     1       9.010   2.600  23.848  0.00  0.00    -0.280 N 
ATOM     10  H   UNL     1       8.087   2.873  23.548  0.00  0.00    +0.155 HD
ATOM     11  O   UNL     1      10.224   0.901  24.850  0.00  0.00    -0.270 OA
BRANCH   9  12
ATOM     12  C   UNL     1      10.004   3.607  23.753  0.00  0.00    +0.052 A 
ATOM     13  C   UNL     1       9.669   4.898  24.163  0.00  0.00    +0.028 A 
ATOM     14  C   UNL     1      10.633   5.910  24.139  0.00  0.00    +0.045 A 
ATOM     15  C   UNL     1      11.916   5.607  23.719  0.00  0.00    +0.116 A 
ATOM     16  N   UNL     1      12.910   6.583  23.700  0.00  0.00    -0.343 N 
ATOM     17  H   UNL     1      13.016   7.022  24.605  0.00  0.00    +0.144 HD
ATOM     18  H   UNL     1      13.767   6.118  23.408  0.00  0.00    +0.144 HD
ATOM     19  N   UNL     1      12.264   4.386  23.291  0.00  0.00    -0.239 NA
ATOM     20  C   UNL     1      11.308   3.414  23.312  0.00  0.00    +0.136 A 
ENDBRANCH   9  12
ENDBRANCH   3   8
BRANCH   5  21
ATOM     21  C   UNL     1       6.906  -2.817  22.812  0.00  0.00    +0.244 C 
ATOM     22  N   UNL     1       5.719  -3.508  22.694  0.00  0.00    -0.311 N 
ATOM     23  H   UNL     1       4.924  -3.256  23.266  0.00  0.00    +0.149 HD
ATOM     24  O   UNL     1       7.953  -3.194  22.293  0.00  0.00    -0.270 OA
BRANCH  22  25
ATOM     25  C   UNL     1       5.645  -4.737  21.926  0.00  0.00    +0.105 C 
BRANCH  25  26
ATOM     26  C   UNL     1       5.738  -5.996  22.793  0.00  0.00    +0.022 C 
BRANCH  26  27
ATOM     27  C   UNL     1       5.032  -5.873  24.147  0.00  0.00    -0.010 C 
ATOM     28  C   UNL     1       6.014  -5.672  25.310  0.00  0.00    +0.003 C 
ATOM     29  C   UNL     1       5.401  -6.388  26.516  0.00  0.00    +0.000 C 
ATOM     30  C   UNL     1       4.061  -6.935  26.047  0.00  0.00    +0.000 C 
ATOM     31  C   UNL     1       4.237  -7.113  24.549  0.00  0.00    +0.003 C 
ENDBRANCH  26  27
ENDBRANCH  25  26
ENDBRANCH  22  25
ENDBRANCH   5  21
TORSDOF 6
ENDMDL
