MODEL 1
REMARK VINA RESULT:      -7.1      0.000      0.000
REMARK  Name = 
REMARK  9 active torsions:
REMARK  status: ('A' for Active; 'I' for Inactive)
REMARK    1  A    between atoms: C_1  and  C_2
REMARK    2  A    between atoms: C_2  and  C_3
REMARK    3  A    between atoms: C_2  and  N_4
REMARK    4  A    between atoms: C_2  and  C_5
REMARK    5  A    between atoms: C_8  and  C_11
REMARK    6  A    between atoms: N_14  and  C_15
REMARK    7  A    between atoms: C_18  and  C_19
REMARK    8  A    between atoms: C_19  and  C_20
REMARK    9  A    between atoms: C_20  and  N_21
REMARK                            x       y       z     vdW  Elec       q    Type
REMARK                         _______ _______ _______ _____ _____    ______ ____
ROOT
ATOM      1  C   UNL     1       7.984   4.310  23.524  0.00  0.00    +0.094 A 
ATOM      2  C   UNL     1       8.596   5.548  23.420  0.00  0.00    +0.085 A 
ATOM      3 CL   UNL     1       7.811   7.073  23.334  0.00  0.00    -0.080 Cl
ATOM      4  C   UNL     1       9.980   5.536  23.464  0.00  0.00    +0.136 A 
ATOM      5  N   UNL     1      10.737   4.437  23.662  0.00  0.00    -0.221 NA
ATOM      6  C   UNL     1      10.081   3.277  23.735  0.00  0.00    +0.220 A 
ATOM      7  N   UNL     1      10.821   2.117  23.925  0.00  0.00    -0.284 N 
ATOM      8  H   UNL     1      11.572   2.257  24.584  0.00  0.00    +0.155 HD
ATOM      9  N   UNL     1       8.741   3.191  23.658  0.00  0.00    -0.213 NA
ENDROOT
BRANCH   1  13
ATOM     10  C   UNL     1       3.664   3.654  23.679  0.00  0.00    -0.028 A 
ATOM     11  C   UNL     1       4.411   3.315  22.540  0.00  0.00    +0.006 A 
ATOM     12  C   UNL     1       5.805   3.473  22.493  0.00  0.00    +0.010 A 
ATOM     13  C   UNL     1       6.521   4.028  23.562  0.00  0.00    +0.002 A 
ATOM     14  C   UNL     1       5.772   4.309  24.723  0.00  0.00    +0.010 A 
ATOM     15  C   UNL     1       4.381   4.125  24.786  0.00  0.00    +0.006 A 
BRANCH  10  17
ATOM     16  C   UNL     1       1.701   3.066  22.279  0.00  0.00    +0.032 C 
ATOM     17  C   UNL     1       2.132   3.618  23.651  0.00  0.00    +0.036 C 
ATOM     18  C   UNL     1       1.467   4.991  23.875  0.00  0.00    +0.032 C 
BRANCH  17  19
ATOM     19  N   UNL     1       1.594   2.716  24.684  0.00  0.00    -0.321 NA
ATOM     20  H   UNL     1       1.100   3.278  25.382  0.00  0.00    +0.119 HD
ATOM     21  H   UNL     1       0.896   2.099  24.274  0.00  0.00    +0.119 HD
ENDBRANCH  17  19
ENDBRANCH  10  17
ENDBRANCH   1  13
BRANCH   7  22
ATOM     22  C   UNL     1      10.381   0.811  23.668  0.00  0.00    +0.034 A 
ATOM     23  C   UNL     1      10.165  -0.102  24.702  0.00  0.00    +0.023 A 
ATOM     24  C   UNL     1       9.550  -1.334  24.441  0.00  0.00    +0.005 A 
ATOM     25  C   UNL     1       9.143  -1.666  23.139  0.00  0.00    -0.046 A 
ATOM     26  C   UNL     1       9.442  -0.793  22.093  0.00  0.00    +0.005 A 
ATOM     27  C   UNL     1      10.054   0.425  22.363  0.00  0.00    +0.023 A 
BRANCH  25  28
ATOM     28  C   UNL     1       8.345  -2.911  22.855  0.00  0.00    +0.050 C 
BRANCH  28  29
ATOM     29  C   UNL     1       7.483  -3.348  24.047  0.00  0.00    +0.089 C 
BRANCH  29  30
ATOM     30  N   UNL     1       7.598  -4.787  24.364  0.00  0.00    -0.298 NA
ATOM     31  C   UNL     1       6.545  -5.285  25.277  0.00  0.00    +0.112 C 
ATOM     32  C   UNL     1       6.663  -4.725  26.701  0.00  0.00    +0.175 C 
ATOM     33  O   UNL     1       7.938  -5.045  27.273  0.00  0.00    -0.377 OA
ATOM     34  C   UNL     1       9.013  -4.566  26.453  0.00  0.00    +0.175 C 
ATOM     35  C   UNL     1       8.904  -5.078  25.003  0.00  0.00    +0.112 C 
ENDBRANCH  29  30
ENDBRANCH  28  29
ENDBRANCH  25  28
ENDBRANCH   7  22
TORSDOF 7
ENDMDL
MODEL 2
REMARK VINA RESULT:      -7.1      1.903      2.590
REMARK  Name = 
REMARK  9 active torsions:
REMARK  status: ('A' for Active; 'I' for Inactive)
REMARK    1  A    between atoms: C_1  and  C_2
REMARK    2  A    between atoms: C_2  and  C_3
REMARK    3  A    between atoms: C_2  and  N_4
REMARK    4  A    between atoms: C_2  and  C_5
REMARK    5  A    between atoms: C_8  and  C_11
REMARK    6  A    between atoms: N_14  and  C_15
REMARK    7  A    between atoms: C_18  and  C_19
REMARK    8  A    between atoms: C_19  and  C_20
REMARK    9  A    between atoms: C_20  and  N_21
REMARK                            x       y       z     vdW  Elec       q    Type
REMARK                         _______ _______ _______ _____ _____    ______ ____
ROOT
ATOM      1  C   UNL     1       7.991   3.332  23.634  0.00  0.00    +0.094 A 
ATOM      2  C   UNL     1       8.796   4.428  23.369  0.00  0.00    +0.085 A 
ATOM      3 CL   UNL     1       8.270   5.992  22.892  0.00  0.00    -0.080 Cl
ATOM      4  C   UNL     1      10.150   4.241  23.588  0.00  0.00    +0.136 A 
ATOM      5  N   UNL     1      10.705   3.117  24.088  0.00  0.00    -0.221 NA
ATOM      6  C   UNL     1       9.871   2.097  24.301  0.00  0.00    +0.220 A 
ATOM      7  N   UNL     1      10.400   0.914  24.804  0.00  0.00    -0.284 N 
ATOM      8  H   UNL     1      11.097   1.088  25.513  0.00  0.00    +0.155 HD
ATOM      9  N   UNL     1       8.548   2.176  24.076  0.00  0.00    -0.213 NA
ENDROOT
BRANCH   1  13
ATOM     10  C   UNL     1       3.622   3.265  23.478  0.00  0.00    -0.028 A 
ATOM     11  C   UNL     1       4.391   3.337  22.306  0.00  0.00    +0.006 A 
ATOM     12  C   UNL     1       5.794   3.310  22.337  0.00  0.00    +0.010 A 
ATOM     13  C   UNL     1       6.505   3.262  23.542  0.00  0.00    +0.002 A 
ATOM     14  C   UNL     1       5.726   3.130  24.710  0.00  0.00    +0.010 A 
ATOM     15  C   UNL     1       4.322   3.127  24.683  0.00  0.00    +0.006 A 
BRANCH  10  17
ATOM     16  C   UNL     1       1.822   4.899  22.980  0.00  0.00    +0.032 C 
ATOM     17  C   UNL     1       2.101   3.453  23.431  0.00  0.00    +0.036 C 
ATOM     18  C   UNL     1       1.395   3.198  24.777  0.00  0.00    +0.032 C 
BRANCH  17  19
ATOM     19  N   UNL     1       1.476   2.551  22.449  0.00  0.00    -0.321 NA
ATOM     20  H   UNL     1       0.978   1.814  22.955  0.00  0.00    +0.119 HD
ATOM     21  H   UNL     1       0.770   3.055  21.917  0.00  0.00    +0.119 HD
ENDBRANCH  17  19
ENDBRANCH  10  17
ENDBRANCH   1  13
BRANCH   7  22
ATOM     22  C   UNL     1       9.788  -0.345  24.753  0.00  0.00    +0.034 A 
ATOM     23  C   UNL     1       9.990  -1.212  23.677  0.00  0.00    +0.023 A 
ATOM     24  C   UNL     1       9.523  -2.531  23.733  0.00  0.00    +0.005 A 
ATOM     25  C   UNL     1       8.845  -3.000  24.870  0.00  0.00    -0.046 A 
ATOM     26  C   UNL     1       8.563  -2.109  25.905  0.00  0.00    +0.005 A 
ATOM     27  C   UNL     1       9.030  -0.802  25.838  0.00  0.00    +0.023 A 
BRANCH  25  28
ATOM     28  C   UNL     1       8.467  -4.450  25.023  0.00  0.00    +0.050 C 
BRANCH  28  29
ATOM     29  C   UNL     1       7.993  -5.080  23.706  0.00  0.00    +0.089 C 
BRANCH  29  30
ATOM     30  N   UNL     1       6.525  -5.230  23.618  0.00  0.00    -0.298 NA
ATOM     31  C   UNL     1       6.081  -6.149  22.546  0.00  0.00    +0.112 C 
ATOM     32  C   UNL     1       6.343  -5.606  21.135  0.00  0.00    +0.175 C 
ATOM     33  O   UNL     1       5.689  -4.345  20.941  0.00  0.00    -0.377 OA
ATOM     34  C   UNL     1       6.095  -3.390  21.931  0.00  0.00    +0.175 C 
ATOM     35  C   UNL     1       5.881  -3.919  23.364  0.00  0.00    +0.112 C 
ENDBRANCH  29  30
ENDBRANCH  28  29
ENDBRANCH  25  28
ENDBRANCH   7  22
TORSDOF 7
ENDMDL
MODEL 3
REMARK VINA RESULT:      -7.0      3.862      7.060
REMARK  Name = 
REMARK  9 active torsions:
REMARK  status: ('A' for Active; 'I' for Inactive)
REMARK    1  A    between atoms: C_1  and  C_2
REMARK    2  A    between atoms: C_2  and  C_3
REMARK    3  A    between atoms: C_2  and  N_4
REMARK    4  A    between atoms: C_2  and  C_5
REMARK    5  A    between atoms: C_8  and  C_11
REMARK    6  A    between atoms: N_14  and  C_15
REMARK    7  A    between atoms: C_18  and  C_19
REMARK    8  A    between atoms: C_19  and  C_20
REMARK    9  A    between atoms: C_20  and  N_21
REMARK                            x       y       z     vdW  Elec       q    Type
REMARK                         _______ _______ _______ _____ _____    ______ ____
ROOT
ATOM      1  C   UNL     1       7.760  -3.108  25.755  0.00  0.00    +0.094 A 
ATOM      2  C   UNL     1       8.193  -4.380  26.092  0.00  0.00    +0.085 A 
ATOM      3 CL   UNL     1       7.400  -5.487  27.138  0.00  0.00    -0.080 Cl
ATOM      4  C   UNL     1       9.344  -4.808  25.452  0.00  0.00    +0.136 A 
ATOM      5  N   UNL     1      10.008  -4.112  24.506  0.00  0.00    -0.221 NA
ATOM      6  C   UNL     1       9.545  -2.887  24.247  0.00  0.00    +0.220 A 
ATOM      7  N   UNL     1      10.205  -2.127  23.289  0.00  0.00    -0.284 N 
ATOM      8  H   UNL     1      10.483  -2.686  22.496  0.00  0.00    +0.155 HD
ATOM      9  N   UNL     1       8.459  -2.374  24.853  0.00  0.00    -0.213 NA
ENDROOT
BRANCH   1  13
ATOM     10  C   UNL     1       4.218  -0.925  27.098  0.00  0.00    -0.028 A 
ATOM     11  C   UNL     1       4.104  -2.134  26.393  0.00  0.00    +0.006 A 
ATOM     12  C   UNL     1       5.232  -2.871  25.998  0.00  0.00    +0.010 A 
ATOM     13  C   UNL     1       6.534  -2.415  26.241  0.00  0.00    +0.002 A 
ATOM     14  C   UNL     1       6.639  -1.232  27.001  0.00  0.00    +0.010 A 
ATOM     15  C   UNL     1       5.514  -0.505  27.424  0.00  0.00    +0.006 A 
BRANCH  10  17
ATOM     16  C   UNL     1       3.137   0.528  28.794  0.00  0.00    +0.032 C 
ATOM     17  C   UNL     1       2.983  -0.063  27.380  0.00  0.00    +0.036 C 
ATOM     18  C   UNL     1       1.648  -0.830  27.295  0.00  0.00    +0.032 C 
BRANCH  17  19
ATOM     19  N   UNL     1       2.883   1.063  26.435  0.00  0.00    -0.321 NA
ATOM     20  H   UNL     1       2.102   1.659  26.721  0.00  0.00    +0.119 HD
ATOM     21  H   UNL     1       3.717   1.641  26.497  0.00  0.00    +0.119 HD
ENDBRANCH  17  19
ENDBRANCH  10  17
ENDBRANCH   1  13
BRANCH   7  22
ATOM     22  C   UNL     1      10.113  -0.737  23.138  0.00  0.00    +0.034 A 
ATOM     23  C   UNL     1       9.597  -0.162  21.975  0.00  0.00    +0.023 A 
ATOM     24  C   UNL     1       9.341   1.214  21.919  0.00  0.00    +0.005 A 
ATOM     25  C   UNL     1       9.600   2.033  23.030  0.00  0.00    -0.046 A 
ATOM     26  C   UNL     1      10.201   1.474  24.158  0.00  0.00    +0.005 A 
ATOM     27  C   UNL     1      10.452   0.108  24.201  0.00  0.00    +0.023 A 
BRANCH  25  28
ATOM     28  C   UNL     1       9.194   3.484  23.054  0.00  0.00    +0.050 C 
BRANCH  28  29
ATOM     29  C   UNL     1       7.712   3.690  22.714  0.00  0.00    +0.089 C 
BRANCH  29  30
ATOM     30  N   UNL     1       6.888   4.085  23.875  0.00  0.00    -0.298 NA
ATOM     31  C   UNL     1       6.837   3.066  24.947  0.00  0.00    +0.112 C 
ATOM     32  C   UNL     1       6.072   1.798  24.542  0.00  0.00    +0.175 C 
ATOM     33  O   UNL     1       4.726   2.112  24.159  0.00  0.00    -0.377 OA
ATOM     34  C   UNL     1       4.698   3.077  23.099  0.00  0.00    +0.175 C 
ATOM     35  C   UNL     1       5.490   4.350  23.457  0.00  0.00    +0.112 C 
ENDBRANCH  29  30
ENDBRANCH  28  29
ENDBRANCH  25  28
ENDBRANCH   7  22
TORSDOF 7
ENDMDL
MODEL 4
REMARK VINA RESULT:      -6.9      4.098      7.414
REMARK  Name = 
REMARK  9 active torsions:
REMARK  status: ('A' for Active; 'I' for Inactive)
REMARK    1  A    between atoms: C_1  and  C_2
REMARK    2  A    between atoms: C_2  and  C_3
REMARK    3  A    between atoms: C_2  and  N_4
REMARK    4  A    between atoms: C_2  and  C_5
REMARK    5  A    between atoms: C_8  and  C_11
REMARK    6  A    between atoms: N_14  and  C_15
REMARK    7  A    between atoms: C_18  and  C_19
REMARK    8  A    between atoms: C_19  and  C_20
REMARK    9  A    between atoms: C_20  and  N_21
REMARK                            x       y       z     vdW  Elec       q    Type
REMARK                         _______ _______ _______ _____ _____    ______ ____
ROOT
ATOM      1  C   UNL     1       7.744  -2.896  25.846  0.00  0.00    +0.094 A 
ATOM      2  C   UNL     1       8.022  -4.220  26.145  0.00  0.00    +0.085 A 
ATOM      3 CL   UNL     1       7.124  -5.241  27.194  0.00  0.00    -0.080 Cl
ATOM      4  C   UNL     1       9.090  -4.776  25.462  0.00  0.00    +0.136 A 
ATOM      5  N   UNL     1       9.810  -4.147  24.509  0.00  0.00    -0.221 NA
ATOM      6  C   UNL     1       9.499  -2.868  24.287  0.00  0.00    +0.220 A 
ATOM      7  N   UNL     1      10.223  -2.177  23.324  0.00  0.00    -0.284 N 
ATOM      8  H   UNL     1      10.405  -2.748  22.512  0.00  0.00    +0.155 HD
ATOM      9  N   UNL     1       8.505  -2.236  24.936  0.00  0.00    -0.213 NA
ENDROOT
BRANCH   1  13
ATOM     10  C   UNL     1       4.535  -0.319  27.321  0.00  0.00    -0.028 A 
ATOM     11  C   UNL     1       4.257  -1.557  26.720  0.00  0.00    +0.006 A 
ATOM     12  C   UNL     1       5.277  -2.418  26.287  0.00  0.00    +0.010 A 
ATOM     13  C   UNL     1       6.630  -2.065  26.381  0.00  0.00    +0.002 A 
ATOM     14  C   UNL     1       6.902  -0.848  27.039  0.00  0.00    +0.010 A 
ATOM     15  C   UNL     1       5.886   0.003  27.502  0.00  0.00    +0.006 A 
BRANCH  10  17
ATOM     16  C   UNL     1       3.970   2.092  27.481  0.00  0.00    +0.032 C 
ATOM     17  C   UNL     1       3.407   0.667  27.643  0.00  0.00    +0.036 C 
ATOM     18  C   UNL     1       2.823   0.513  29.062  0.00  0.00    +0.032 C 
BRANCH  17  19
ATOM     19  N   UNL     1       2.280   0.524  26.705  0.00  0.00    -0.321 NA
ATOM     20  H   UNL     1       1.573  -0.078  27.137  0.00  0.00    +0.119 HD
ATOM     21  H   UNL     1       1.833   1.427  26.561  0.00  0.00    +0.119 HD
ENDBRANCH  17  19
ENDBRANCH  10  17
ENDBRANCH   1  13
BRANCH   7  22
ATOM     22  C   UNL     1      10.303  -0.783  23.202  0.00  0.00    +0.034 A 
ATOM     23  C   UNL     1       9.881  -0.126  22.044  0.00  0.00    +0.023 A 
ATOM     24  C   UNL     1       9.796   1.272  22.015  0.00  0.00    +0.005 A 
ATOM     25  C   UNL     1      10.134   2.030  23.146  0.00  0.00    -0.046 A 
ATOM     26  C   UNL     1      10.644   1.381  24.271  0.00  0.00    +0.005 A 
ATOM     27  C   UNL     1      10.725  -0.007  24.288  0.00  0.00    +0.023 A 
BRANCH  25  28
ATOM     28  C   UNL     1       9.908   3.519  23.196  0.00  0.00    +0.050 C 
BRANCH  28  29
ATOM     29  C   UNL     1       8.761   3.913  24.137  0.00  0.00    +0.089 C 
BRANCH  29  30
ATOM     30  N   UNL     1       7.420   3.654  23.575  0.00  0.00    -0.298 NA
ATOM     31  C   UNL     1       7.214   4.229  22.227  0.00  0.00    +0.112 C 
ATOM     32  C   UNL     1       7.175   5.764  22.222  0.00  0.00    +0.175 C 
ATOM     33  O   UNL     1       6.134   6.252  23.078  0.00  0.00    -0.377 OA
ATOM     34  C   UNL     1       6.285   5.757  24.416  0.00  0.00    +0.175 C 
ATOM     35  C   UNL     1       6.368   4.218  24.455  0.00  0.00    +0.112 C 
ENDBRANCH  29  30
ENDBRANCH  28  29
ENDBRANCH  25  28
ENDBRANCH   7  22
TORSDOF 7
ENDMDL
MODEL 5
REMARK VINA RESULT:      -6.7      3.255      5.392
REMARK  Name = 
REMARK  9 active torsions:
REMARK  status: ('A' for Active; 'I' for Inactive)
REMARK    1  A    between atoms: C_1  and  C_2
REMARK    2  A    between atoms: C_2  and  C_3
REMARK    3  A    between atoms: C_2  and  N_4
REMARK    4  A    between atoms: C_2  and  C_5
REMARK    5  A    between atoms: C_8  and  C_11
REMARK    6  A    between atoms: N_14  and  C_15
REMARK    7  A    between atoms: C_18  and  C_19
REMARK    8  A    between atoms: C_19  and  C_20
REMARK    9  A    between atoms: C_20  and  N_21
REMARK                            x       y       z     vdW  Elec       q    Type
REMARK                         _______ _______ _______ _____ _____    ______ ____
ROOT
ATOM      1  C   UNL     1       8.624  -0.349  23.414  0.00  0.00    +0.094 A 
ATOM      2  C   UNL     1       9.687  -0.057  22.575  0.00  0.00    +0.085 A 
ATOM      3 CL   UNL     1      10.029   1.461  21.849  0.00  0.00    -0.080 Cl
ATOM      4  C   UNL     1      10.589  -1.088  22.373  0.00  0.00    +0.136 A 
ATOM      5  N   UNL     1      10.533  -2.293  22.976  0.00  0.00    -0.221 NA
ATOM      6  C   UNL     1       9.472  -2.510  23.756  0.00  0.00    +0.220 A 
ATOM      7  N   UNL     1       9.365  -3.743  24.388  0.00  0.00    -0.284 N 
ATOM      8  H   UNL     1      10.258  -4.064  24.733  0.00  0.00    +0.155 HD
ATOM      9  N   UNL     1       8.524  -1.581  23.974  0.00  0.00    -0.213 NA
ENDROOT
BRANCH   1  13
ATOM     10  C   UNL     1       5.328   2.272  24.591  0.00  0.00    -0.028 A 
ATOM     11  C   UNL     1       6.112   1.613  25.551  0.00  0.00    +0.006 A 
ATOM     12  C   UNL     1       7.204   0.807  25.191  0.00  0.00    +0.010 A 
ATOM     13  C   UNL     1       7.540   0.575  23.851  0.00  0.00    +0.002 A 
ATOM     14  C   UNL     1       6.786   1.288  22.897  0.00  0.00    +0.010 A 
ATOM     15  C   UNL     1       5.710   2.119  23.253  0.00  0.00    +0.006 A 
BRANCH  10  17
ATOM     16  C   UNL     1       3.352   3.486  23.709  0.00  0.00    +0.032 C 
ATOM     17  C   UNL     1       4.052   3.017  24.999  0.00  0.00    +0.036 C 
ATOM     18  C   UNL     1       4.300   4.235  25.912  0.00  0.00    +0.032 C 
BRANCH  17  19
ATOM     19  N   UNL     1       3.118   2.134  25.718  0.00  0.00    -0.321 NA
ATOM     20  H   UNL     1       2.167   2.338  25.399  0.00  0.00    +0.119 HD
ATOM     21  H   UNL     1       3.297   1.164  25.467  0.00  0.00    +0.119 HD
ENDBRANCH  17  19
ENDBRANCH  10  17
ENDBRANCH   1  13
BRANCH   7  22
ATOM     22  C   UNL     1       8.194  -4.289  24.931  0.00  0.00    +0.034 A 
ATOM     23  C   UNL     1       7.112  -4.642  24.124  0.00  0.00    +0.023 A 
ATOM     24  C   UNL     1       6.031  -5.354  24.661  0.00  0.00    +0.005 A 
ATOM     25  C   UNL     1       6.022  -5.721  26.015  0.00  0.00    -0.046 A 
ATOM     26  C   UNL     1       7.059  -5.289  26.842  0.00  0.00    +0.005 A 
ATOM     27  C   UNL     1       8.125  -4.581  26.298  0.00  0.00    +0.023 A 
BRANCH  25  28
ATOM     28  C   UNL     1       4.952  -6.616  26.585  0.00  0.00    +0.050 C 
BRANCH  28  29
ATOM     29  C   UNL     1       4.070  -7.249  25.500  0.00  0.00    +0.089 C 
BRANCH  29  30
ATOM     30  N   UNL     1       2.638  -6.905  25.626  0.00  0.00    -0.298 NA
ATOM     31  C   UNL     1       1.726  -7.917  25.048  0.00  0.00    +0.112 C 
ATOM     32  C   UNL     1       1.809  -8.004  23.518  0.00  0.00    +0.175 C 
ATOM     33  O   UNL     1       1.509  -6.737  22.916  0.00  0.00    -0.377 OA
ATOM     34  C   UNL     1       2.377  -5.708  23.410  0.00  0.00    +0.175 C 
ATOM     35  C   UNL     1       2.349  -5.618  24.948  0.00  0.00    +0.112 C 
ENDBRANCH  29  30
ENDBRANCH  28  29
ENDBRANCH  25  28
ENDBRANCH   7  22
TORSDOF 7
ENDMDL
MODEL 6
REMARK VINA RESULT:      -6.7      2.359      3.168
REMARK  Name = 
REMARK  9 active torsions:
REMARK  status: ('A' for Active; 'I' for Inactive)
REMARK    1  A    between atoms: C_1  and  C_2
REMARK    2  A    between atoms: C_2  and  C_3
REMARK    3  A    between atoms: C_2  and  N_4
REMARK    4  A    between atoms: C_2  and  C_5
REMARK    5  A    between atoms: C_8  and  C_11
REMARK    6  A    between atoms: N_14  and  C_15
REMARK    7  A    between atoms: C_18  and  C_19
REMARK    8  A    between atoms: C_19  and  C_20
REMARK    9  A    between atoms: C_20  and  N_21
REMARK                            x       y       z     vdW  Elec       q    Type
REMARK                         _______ _______ _______ _____ _____    ______ ____
ROOT
ATOM      1  C   UNL     1       6.702   4.205  24.786  0.00  0.00    +0.094 A 
ATOM      2  C   UNL     1       6.425   5.532  24.501  0.00  0.00    +0.085 A 
ATOM      3 CL   UNL     1       5.082   6.440  25.069  0.00  0.00    -0.080 Cl
ATOM      4  C   UNL     1       7.376   6.191  23.742  0.00  0.00    +0.136 A 
ATOM      5  N   UNL     1       8.546   5.657  23.334  0.00  0.00    -0.221 NA
ATOM      6  C   UNL     1       8.737   4.370  23.628  0.00  0.00    +0.220 A 
ATOM      7  N   UNL     1       9.922   3.773  23.216  0.00  0.00    -0.284 N 
ATOM      8  H   UNL     1      10.712   4.390  23.336  0.00  0.00    +0.155 HD
ATOM      9  N   UNL     1       7.847   3.640  24.323  0.00  0.00    -0.213 NA
ENDROOT
BRANCH   1  13
ATOM     10  C   UNL     1       4.299   1.369  27.089  0.00  0.00    -0.028 A 
ATOM     11  C   UNL     1       5.599   1.716  27.490  0.00  0.00    +0.006 A 
ATOM     12  C   UNL     1       6.364   2.662  26.790  0.00  0.00    +0.010 A 
ATOM     13  C   UNL     1       5.893   3.273  25.621  0.00  0.00    +0.002 A 
ATOM     14  C   UNL     1       4.566   2.964  25.259  0.00  0.00    +0.010 A 
ATOM     15  C   UNL     1       3.784   2.041  25.973  0.00  0.00    +0.006 A 
BRANCH  10  17
ATOM     16  C   UNL     1       3.066   0.738  29.147  0.00  0.00    +0.032 C 
ATOM     17  C   UNL     1       3.545   0.226  27.776  0.00  0.00    +0.036 C 
ATOM     18  C   UNL     1       4.387  -1.050  27.978  0.00  0.00    +0.032 C 
BRANCH  17  19
ATOM     19  N   UNL     1       2.353  -0.173  27.007  0.00  0.00    -0.321 NA
ATOM     20  H   UNL     1       2.267   0.445  26.196  0.00  0.00    +0.119 HD
ATOM     21  H   UNL     1       2.481  -1.112  26.634  0.00  0.00    +0.119 HD
ENDBRANCH  17  19
ENDBRANCH  10  17
ENDBRANCH   1  13
BRANCH   7  22
ATOM     22  C   UNL     1      10.151   2.396  23.101  0.00  0.00    +0.034 A 
ATOM     23  C   UNL     1      10.682   1.654  24.158  0.00  0.00    +0.023 A 
ATOM     24  C   UNL     1      10.728   0.255  24.089  0.00  0.00    +0.005 A 
ATOM     25  C   UNL     1      10.242  -0.418  22.957  0.00  0.00    -0.046 A 
ATOM     26  C   UNL     1       9.797   0.326  21.864  0.00  0.00    +0.005 A 
ATOM     27  C   UNL     1       9.758   1.713  21.944  0.00  0.00    +0.023 A 
BRANCH  25  28
ATOM     28  C   UNL     1      10.137  -1.921  22.916  0.00  0.00    +0.050 C 
BRANCH  28  29
ATOM     29  C   UNL     1       9.408  -2.497  24.138  0.00  0.00    +0.089 C 
BRANCH  29  30
ATOM     30  N   UNL     1       9.150  -3.949  24.042  0.00  0.00    -0.298 NA
ATOM     31  C   UNL     1       7.717  -4.296  23.919  0.00  0.00    +0.112 C 
ATOM     32  C   UNL     1       6.910  -4.001  25.191  0.00  0.00    +0.175 C 
ATOM     33  O   UNL     1       7.446  -4.713  26.314  0.00  0.00    -0.377 OA
ATOM     34  C   UNL     1       8.832  -4.402  26.514  0.00  0.00    +0.175 C 
ATOM     35  C   UNL     1       9.668  -4.650  25.242  0.00  0.00    +0.112 C 
ENDBRANCH  29  30
ENDBRANCH  28  29
ENDBRANCH  25  28
ENDBRANCH   7  22
TORSDOF 7
ENDMDL
MODEL 7
REMARK VINA RESULT:      -6.6      1.215      1.669
REMARK  Name = 
REMARK  9 active torsions:
REMARK  status: ('A' for Active; 'I' for Inactive)
REMARK    1  A    between atoms: C_1  and  C_2
REMARK    2  A    between atoms: C_2  and  C_3
REMARK    3  A    between atoms: C_2  and  N_4
REMARK    4  A    between atoms: C_2  and  C_5
REMARK    5  A    between atoms: C_8  and  C_11
REMARK    6  A    between atoms: N_14  and  C_15
REMARK    7  A    between atoms: C_18  and  C_19
REMARK    8  A    between atoms: C_19  and  C_20
REMARK    9  A    between atoms: C_20  and  N_21
REMARK                            x       y       z     vdW  Elec       q    Type
REMARK                         _______ _______ _______ _____ _____    ______ ____
ROOT
ATOM      1  C   UNL     1       8.600   3.986  23.572  0.00  0.00    +0.094 A 
ATOM      2  C   UNL     1       9.457   5.075  23.542  0.00  0.00    +0.085 A 
ATOM      3 CL   UNL     1       9.006   6.732  23.564  0.00  0.00    -0.080 Cl
ATOM      4  C   UNL     1      10.807   4.773  23.571  0.00  0.00    +0.136 A 
ATOM      5  N   UNL     1      11.320   3.530  23.690  0.00  0.00    -0.221 NA
ATOM      6  C   UNL     1      10.436   2.530  23.693  0.00  0.00    +0.220 A 
ATOM      7  N   UNL     1      10.919   1.231  23.800  0.00  0.00    -0.284 N 
ATOM      8  H   UNL     1      11.680   1.169  24.460  0.00  0.00    +0.155 HD
ATOM      9  N   UNL     1       9.108   2.729  23.624  0.00  0.00    -0.213 NA
ENDROOT
BRANCH   1  13
ATOM     10  C   UNL     1       4.229   3.885  23.633  0.00  0.00    -0.028 A 
ATOM     11  C   UNL     1       4.961   4.397  24.717  0.00  0.00    +0.006 A 
ATOM     12  C   UNL     1       6.362   4.482  24.692  0.00  0.00    +0.010 A 
ATOM     13  C   UNL     1       7.110   4.012  23.605  0.00  0.00    +0.002 A 
ATOM     14  C   UNL     1       6.366   3.555  22.498  0.00  0.00    +0.010 A 
ATOM     15  C   UNL     1       4.963   3.495  22.506  0.00  0.00    +0.006 A 
BRANCH  10  17
ATOM     16  C   UNL     1       2.212   3.184  22.370  0.00  0.00    +0.032 C 
ATOM     17  C   UNL     1       2.718   3.658  23.745  0.00  0.00    +0.036 C 
ATOM     18  C   UNL     1       1.925   4.910  24.171  0.00  0.00    +0.032 C 
BRANCH  17  19
ATOM     19  N   UNL     1       2.401   2.605  24.725  0.00  0.00    -0.321 NA
ATOM     20  H   UNL     1       2.020   1.798  24.222  0.00  0.00    +0.119 HD
ATOM     21  H   UNL     1       3.255   2.280  25.172  0.00  0.00    +0.119 HD
ENDBRANCH  17  19
ENDBRANCH  10  17
ENDBRANCH   1  13
BRANCH   7  22
ATOM     22  C   UNL     1      10.218   0.065  23.463  0.00  0.00    +0.034 A 
ATOM     23  C   UNL     1       9.616  -0.732  24.439  0.00  0.00    +0.023 A 
ATOM     24  C   UNL     1       8.767  -1.784  24.070  0.00  0.00    +0.005 A 
ATOM     25  C   UNL     1       8.511  -2.050  22.715  0.00  0.00    -0.046 A 
ATOM     26  C   UNL     1       9.184  -1.314  21.740  0.00  0.00    +0.005 A 
ATOM     27  C   UNL     1      10.025  -0.274  22.119  0.00  0.00    +0.023 A 
BRANCH  25  28
ATOM     28  C   UNL     1       7.488  -3.072  22.291  0.00  0.00    +0.050 C 
BRANCH  28  29
ATOM     29  C   UNL     1       7.248  -4.149  23.358  0.00  0.00    +0.089 C 
BRANCH  29  30
ATOM     30  N   UNL     1       5.819  -4.441  23.592  0.00  0.00    -0.298 NA
ATOM     31  C   UNL     1       5.029  -3.264  24.017  0.00  0.00    +0.112 C 
ATOM     32  C   UNL     1       5.396  -2.762  25.421  0.00  0.00    +0.175 C 
ATOM     33  O   UNL     1       5.216  -3.796  26.398  0.00  0.00    -0.377 OA
ATOM     34  C   UNL     1       5.979  -4.964  26.066  0.00  0.00    +0.175 C 
ATOM     35  C   UNL     1       5.664  -5.474  24.645  0.00  0.00    +0.112 C 
ENDBRANCH  29  30
ENDBRANCH  28  29
ENDBRANCH  25  28
ENDBRANCH   7  22
TORSDOF 7
ENDMDL
MODEL 8
REMARK VINA RESULT:      -6.5      2.636      3.952
REMARK  Name = 
REMARK  9 active torsions:
REMARK  status: ('A' for Active; 'I' for Inactive)
REMARK    1  A    between atoms: C_1  and  C_2
REMARK    2  A    between atoms: C_2  and  C_3
REMARK    3  A    between atoms: C_2  and  N_4
REMARK    4  A    between atoms: C_2  and  C_5
REMARK    5  A    between atoms: C_8  and  C_11
REMARK    6  A    between atoms: N_14  and  C_15
REMARK    7  A    between atoms: C_18  and  C_19
REMARK    8  A    between atoms: C_19  and  C_20
REMARK    9  A    between atoms: C_20  and  N_21
REMARK                            x       y       z     vdW  Elec       q    Type
REMARK                         _______ _______ _______ _____ _____    ______ ____
ROOT
ATOM      1  C   UNL     1       8.314   1.481  23.933  0.00  0.00    +0.094 A 
ATOM      2  C   UNL     1       9.518   2.161  24.014  0.00  0.00    +0.085 A 
ATOM      3 CL   UNL     1       9.732   3.866  24.012  0.00  0.00    -0.080 Cl
ATOM      4  C   UNL     1      10.641   1.370  24.187  0.00  0.00    +0.136 A 
ATOM      5  N   UNL     1      10.627   0.030  24.342  0.00  0.00    -0.221 NA
ATOM      6  C   UNL     1       9.434  -0.560  24.233  0.00  0.00    +0.220 A 
ATOM      7  N   UNL     1       9.372  -1.941  24.373  0.00  0.00    -0.284 N 
ATOM      8  H   UNL     1       9.977  -2.269  25.111  0.00  0.00    +0.155 HD
ATOM      9  N   UNL     1       8.297   0.126  24.022  0.00  0.00    -0.213 NA
ENDROOT
BRANCH   1  13
ATOM     10  C   UNL     1       4.296   3.118  23.398  0.00  0.00    -0.028 A 
ATOM     11  C   UNL     1       4.666   2.473  24.589  0.00  0.00    +0.006 A 
ATOM     12  C   UNL     1       5.967   1.985  24.795  0.00  0.00    +0.010 A 
ATOM     13  C   UNL     1       6.952   2.070  23.803  0.00  0.00    +0.002 A 
ATOM     14  C   UNL     1       6.590   2.772  22.635  0.00  0.00    +0.010 A 
ATOM     15  C   UNL     1       5.298   3.288  22.435  0.00  0.00    +0.006 A 
BRANCH  10  17
ATOM     16  C   UNL     1       2.815   4.960  22.643  0.00  0.00    +0.032 C 
ATOM     17  C   UNL     1       2.835   3.501  23.136  0.00  0.00    +0.036 C 
ATOM     18  C   UNL     1       1.920   3.371  24.370  0.00  0.00    +0.032 C 
BRANCH  17  19
ATOM     19  N   UNL     1       2.240   2.665  22.079  0.00  0.00    -0.321 NA
ATOM     20  H   UNL     1       2.467   1.686  22.272  0.00  0.00    +0.119 HD
ATOM     21  H   UNL     1       1.225   2.732  22.116  0.00  0.00    +0.119 HD
ENDBRANCH  17  19
ENDBRANCH  10  17
ENDBRANCH   1  13
BRANCH   7  22
ATOM     22  C   UNL     1       8.322  -2.763  23.944  0.00  0.00    +0.034 A 
ATOM     23  C   UNL     1       8.101  -3.017  22.589  0.00  0.00    +0.023 A 
ATOM     24  C   UNL     1       7.167  -3.984  22.193  0.00  0.00    +0.005 A 
ATOM     25  C   UNL     1       6.443  -4.709  23.152  0.00  0.00    -0.046 A 
ATOM     26  C   UNL     1       6.596  -4.391  24.501  0.00  0.00    +0.005 A 
ATOM     27  C   UNL     1       7.524  -3.428  24.882  0.00  0.00    +0.023 A 
BRANCH  25  28
ATOM     28  C   UNL     1       5.548  -5.858  22.764  0.00  0.00    +0.050 C 
BRANCH  28  29
ATOM     29  C   UNL     1       4.884  -6.527  23.975  0.00  0.00    +0.089 C 
BRANCH  29  30
ATOM     30  N   UNL     1       3.424  -6.702  23.827  0.00  0.00    -0.298 NA
ATOM     31  C   UNL     1       2.692  -5.439  23.580  0.00  0.00    +0.112 C 
ATOM     32  C   UNL     1       2.691  -4.493  24.789  0.00  0.00    +0.175 C 
ATOM     33  O   UNL     1       2.111  -5.128  25.936  0.00  0.00    -0.377 OA
ATOM     34  C   UNL     1       2.791  -6.350  26.254  0.00  0.00    +0.175 C 
ATOM     35  C   UNL     1       2.845  -7.310  25.050  0.00  0.00    +0.112 C 
ENDBRANCH  29  30
ENDBRANCH  28  29
ENDBRANCH  25  28
ENDBRANCH   7  22
TORSDOF 7
ENDMDL
MODEL 9
REMARK VINA RESULT:      -6.4      3.818      7.360
REMARK  Name = 
REMARK  9 active torsions:
REMARK  status: ('A' for Active; 'I' for Inactive)
REMARK    1  A    between atoms: C_1  and  C_2
REMARK    2  A    between atoms: C_2  and  C_3
REMARK    3  A    between atoms: C_2  and  N_4
REMARK    4  A    between atoms: C_2  and  C_5
REMARK    5  A    between atoms: C_8  and  C_11
REMARK    6  A    between atoms: N_14  and  C_15
REMARK    7  A    between atoms: C_18  and  C_19
REMARK    8  A    between atoms: C_19  and  C_20
REMARK    9  A    between atoms: C_20  and  N_21
REMARK                            x       y       z     vdW  Elec       q    Type
REMARK                         _______ _______ _______ _____ _____    ______ ____
ROOT
ATOM      1  C   UNL     1       5.744  -3.538  27.290  0.00  0.00    +0.094 A 
ATOM      2  C   UNL     1       5.638  -4.535  28.246  0.00  0.00    +0.085 A 
ATOM      3 CL   UNL     1       4.659  -4.499  29.656  0.00  0.00    -0.080 Cl
ATOM      4  C   UNL     1       6.345  -5.695  27.979  0.00  0.00    +0.136 A 
ATOM      5  N   UNL     1       7.051  -5.929  26.854  0.00  0.00    -0.221 NA
ATOM      6  C   UNL     1       7.125  -4.917  25.987  0.00  0.00    +0.220 A 
ATOM      7  N   UNL     1       7.853  -5.108  24.819  0.00  0.00    -0.284 N 
ATOM      8  H   UNL     1       7.705  -6.028  24.433  0.00  0.00    +0.155 HD
ATOM      9  N   UNL     1       6.507  -3.740  26.186  0.00  0.00    -0.213 NA
ENDROOT
BRANCH   1  13
ATOM     10  C   UNL     1       3.721   0.334  27.098  0.00  0.00    -0.028 A 
ATOM     11  C   UNL     1       3.214  -0.715  27.883  0.00  0.00    +0.006 A 
ATOM     12  C   UNL     1       3.878  -1.946  27.994  0.00  0.00    +0.010 A 
ATOM     13  C   UNL     1       5.057  -2.216  27.286  0.00  0.00    +0.002 A 
ATOM     14  C   UNL     1       5.590  -1.139  26.548  0.00  0.00    +0.010 A 
ATOM     15  C   UNL     1       4.945   0.106  26.457  0.00  0.00    +0.006 A 
BRANCH  10  17
ATOM     16  C   UNL     1       3.287   2.616  27.968  0.00  0.00    +0.032 C 
ATOM     17  C   UNL     1       2.901   1.609  26.869  0.00  0.00    +0.036 C 
ATOM     18  C   UNL     1       1.376   1.389  26.897  0.00  0.00    +0.032 C 
BRANCH  17  19
ATOM     19  N   UNL     1       3.215   2.225  25.568  0.00  0.00    -0.321 NA
ATOM     20  H   UNL     1       2.860   3.185  25.570  0.00  0.00    +0.119 HD
ATOM     21  H   UNL     1       4.224   2.298  25.455  0.00  0.00    +0.119 HD
ENDBRANCH  17  19
ENDBRANCH  10  17
ENDBRANCH   1  13
BRANCH   7  22
ATOM     22  C   UNL     1       8.346  -4.096  23.985  0.00  0.00    +0.034 A 
ATOM     23  C   UNL     1       7.641  -3.673  22.856  0.00  0.00    +0.023 A 
ATOM     24  C   UNL     1       8.057  -2.539  22.145  0.00  0.00    +0.005 A 
ATOM     25  C   UNL     1       9.186  -1.814  22.558  0.00  0.00    -0.046 A 
ATOM     26  C   UNL     1       9.942  -2.288  23.629  0.00  0.00    +0.005 A 
ATOM     27  C   UNL     1       9.521  -3.415  24.326  0.00  0.00    +0.023 A 
BRANCH  25  28
ATOM     28  C   UNL     1       9.566  -0.509  21.908  0.00  0.00    +0.050 C 
BRANCH  28  29
ATOM     29  C   UNL     1       9.955   0.569  22.929  0.00  0.00    +0.089 C 
BRANCH  29  30
ATOM     30  N   UNL     1       9.803   1.948  22.420  0.00  0.00    -0.298 NA
ATOM     31  C   UNL     1      10.052   2.993  23.438  0.00  0.00    +0.112 C 
ATOM     32  C   UNL     1       8.983   3.034  24.538  0.00  0.00    +0.175 C 
ATOM     33  O   UNL     1       7.681   3.256  23.980  0.00  0.00    -0.377 OA
ATOM     34  C   UNL     1       7.358   2.259  23.000  0.00  0.00    +0.175 C 
ATOM     35  C   UNL     1       8.432   2.164  21.899  0.00  0.00    +0.112 C 
ENDBRANCH  29  30
ENDBRANCH  28  29
ENDBRANCH  25  28
ENDBRANCH   7  22
TORSDOF 7
ENDMDL
