MODEL 1
REMARK VINA RESULT:      -4.1      0.000      0.000
REMARK  Name = 
REMARK  12 active torsions:
REMARK  status: ('A' for Active; 'I' for Inactive)
REMARK    1  A    between atoms: C_1  and  C_2
REMARK    2  A    between atoms: C_2  and  C_3
REMARK    3  A    between atoms: C_3  and  C_4
REMARK    4  A    between atoms: C_4  and  C_5
REMARK    5  A    between atoms: C_5  and  C_6
REMARK    6  A    between atoms: C_6  and  C_7
REMARK    7  A    between atoms: C_7  and  C_8
REMARK    8  A    between atoms: C_8  and  C_9
REMARK    9  A    between atoms: C_9  and  C_10
REMARK   10  A    between atoms: C_10  and  O_11
REMARK   11  A    between atoms: O_11  and  C_12
REMARK   12  A    between atoms: C_12  and  O_13
REMARK                            x       y       z     vdW  Elec       q    Type
REMARK                         _______ _______ _______ _____ _____    ______ ____
ROOT
ATOM      1  C   UNL     1       9.058  -1.153  24.898  0.00  0.00    +0.000 C 
ENDROOT
BRANCH   1   2
ATOM      2  C   UNL     1       9.906   0.046  25.323  0.00  0.00    +0.000 C 
BRANCH   2   3
ATOM      3  C   UNL     1      10.803   0.524  24.181  0.00  0.00    -0.000 C 
BRANCH   3   4
ATOM      4  C   UNL     1      10.413   1.932  23.728  0.00  0.00    -0.000 C 
BRANCH   4   5
ATOM      5  C   UNL     1      10.264   2.000  22.209  0.00  0.00    -0.000 C 
BRANCH   5   7
ATOM      6  C   UNL     1       7.840   1.356  22.006  0.00  0.00    +0.004 C 
ATOM      7  C   UNL     1       9.275   0.953  21.702  0.00  0.00    -0.003 C 
ENDBRANCH   5   7
ENDBRANCH   4   5
ENDBRANCH   3   4
ENDBRANCH   2   3
ENDBRANCH   1   2
BRANCH   1   8
ATOM      8  C   UNL     1       9.759  -1.956  23.805  0.00  0.00    +0.002 C 
BRANCH   8   9
ATOM      9  C   UNL     1       8.764  -2.798  23.002  0.00  0.00    +0.028 C 
BRANCH   9  10
ATOM     10  C   UNL     1       7.968  -3.740  23.900  0.00  0.00    +0.162 C 
BRANCH  10  11
ATOM     11  O   UNL     1       8.596  -5.020  23.900  0.00  0.00    -0.354 OA
BRANCH  11  12
ATOM     12  C   UNL     1       9.098  -5.367  25.178  0.00  0.00    +0.319 C 
BRANCH  12  13
ATOM     13  O   UNL     1      10.509  -5.335  25.170  0.00  0.00    -0.370 OA
ATOM     14  H   UNL     1      10.743  -4.852  25.979  0.00  0.00    +0.212 HD
ENDBRANCH  12  13
ENDBRANCH  11  12
ENDBRANCH  10  11
ENDBRANCH   9  10
ENDBRANCH   8   9
ENDBRANCH   1   8
TORSDOF 11
ENDMDL
MODEL 2
REMARK VINA RESULT:      -4.0      0.937      1.417
REMARK  Name = 
REMARK  12 active torsions:
REMARK  status: ('A' for Active; 'I' for Inactive)
REMARK    1  A    between atoms: C_1  and  C_2
REMARK    2  A    between atoms: C_2  and  C_3
REMARK    3  A    between atoms: C_3  and  C_4
REMARK    4  A    between atoms: C_4  and  C_5
REMARK    5  A    between atoms: C_5  and  C_6
REMARK    6  A    between atoms: C_6  and  C_7
REMARK    7  A    between atoms: C_7  and  C_8
REMARK    8  A    between atoms: C_8  and  C_9
REMARK    9  A    between atoms: C_9  and  C_10
REMARK   10  A    between atoms: C_10  and  O_11
REMARK   11  A    between atoms: O_11  and  C_12
REMARK   12  A    between atoms: C_12  and  O_13
REMARK                            x       y       z     vdW  Elec       q    Type
REMARK                         _______ _______ _______ _____ _____    ______ ____
ROOT
ATOM      1  C   UNL     1       9.772  -0.139  25.290  0.00  0.00    +0.000 C 
ENDROOT
BRANCH   1   2
ATOM      2  C   UNL     1      10.749   0.396  24.243  0.00  0.00    +0.000 C 
BRANCH   2   3
ATOM      3  C   UNL     1      10.534   1.889  23.993  0.00  0.00    -0.000 C 
BRANCH   3   4
ATOM      4  C   UNL     1      10.377   2.180  22.500  0.00  0.00    -0.000 C 
BRANCH   4   5
ATOM      5  C   UNL     1       9.544   1.098  21.813  0.00  0.00    -0.000 C 
BRANCH   5   7
ATOM      6  C   UNL     1       7.146   1.336  22.537  0.00  0.00    +0.004 C 
ATOM      7  C   UNL     1       8.159   1.620  21.438  0.00  0.00    -0.003 C 
ENDBRANCH   5   7
ENDBRANCH   4   5
ENDBRANCH   3   4
ENDBRANCH   2   3
ENDBRANCH   1   2
BRANCH   1   8
ATOM      8  C   UNL     1       8.859  -1.205  24.688  0.00  0.00    +0.002 C 
BRANCH   8   9
ATOM      9  C   UNL     1       9.667  -2.341  24.053  0.00  0.00    +0.028 C 
BRANCH   9  10
ATOM     10  C   UNL     1       8.928  -3.673  24.134  0.00  0.00    +0.162 C 
BRANCH  10  11
ATOM     11  O   UNL     1       9.726  -4.601  24.866  0.00  0.00    -0.354 OA
BRANCH  11  12
ATOM     12  C   UNL     1       9.314  -4.709  26.216  0.00  0.00    +0.319 C 
BRANCH  12  13
ATOM     13  O   UNL     1       8.544  -5.878  26.396  0.00  0.00    -0.370 OA
ATOM     14  H   UNL     1       9.084  -6.433  26.982  0.00  0.00    +0.212 HD
ENDBRANCH  12  13
ENDBRANCH  11  12
ENDBRANCH  10  11
ENDBRANCH   9  10
ENDBRANCH   8   9
ENDBRANCH   1   8
TORSDOF 11
ENDMDL
MODEL 3
REMARK VINA RESULT:      -4.0      4.996      7.323
REMARK  Name = 
REMARK  12 active torsions:
REMARK  status: ('A' for Active; 'I' for Inactive)
REMARK    1  A    between atoms: C_1  and  C_2
REMARK    2  A    between atoms: C_2  and  C_3
REMARK    3  A    between atoms: C_3  and  C_4
REMARK    4  A    between atoms: C_4  and  C_5
REMARK    5  A    between atoms: C_5  and  C_6
REMARK    6  A    between atoms: C_6  and  C_7
REMARK    7  A    between atoms: C_7  and  C_8
REMARK    8  A    between atoms: C_8  and  C_9
REMARK    9  A    between atoms: C_9  and  C_10
REMARK   10  A    between atoms: C_10  and  O_11
REMARK   11  A    between atoms: O_11  and  C_12
REMARK   12  A    between atoms: C_12  and  O_13
REMARK                            x       y       z     vdW  Elec       q    Type
REMARK                         _______ _______ _______ _____ _____    ______ ____
ROOT
ATOM      1  C   UNL     1       9.191   3.676  23.850  0.00  0.00    +0.000 C 
ENDROOT
BRANCH   1   2
ATOM      2  C   UNL     1       8.050   3.372  22.880  0.00  0.00    +0.000 C 
BRANCH   2   3
ATOM      3  C   UNL     1       8.455   2.307  21.861  0.00  0.00    -0.000 C 
BRANCH   3   4
ATOM      4  C   UNL     1       9.874   1.802  22.129  0.00  0.00    -0.000 C 
BRANCH   4   5
ATOM      5  C   UNL     1       9.960   0.286  21.956  0.00  0.00    -0.000 C 
BRANCH   5   7
ATOM      6  C   UNL     1      10.669   0.487  24.362  0.00  0.00    +0.004 C 
ATOM      7  C   UNL     1      10.058  -0.421  23.307  0.00  0.00    -0.003 C 
ENDBRANCH   5   7
ENDBRANCH   4   5
ENDBRANCH   3   4
ENDBRANCH   2   3
ENDBRANCH   1   2
BRANCH   1   8
ATOM      8  C   UNL     1       8.851   4.876  24.732  0.00  0.00    +0.002 C 
BRANCH   8   9
ATOM      9  C   UNL     1       9.987   5.902  24.745  0.00  0.00    +0.028 C 
BRANCH   9  10
ATOM     10  C   UNL     1      10.840   5.818  23.484  0.00  0.00    +0.162 C 
BRANCH  10  11
ATOM     11  O   UNL     1      12.153   5.392  23.840  0.00  0.00    -0.354 OA
BRANCH  11  12
ATOM     12  C   UNL     1      13.019   5.339  22.721  0.00  0.00    +0.319 C 
BRANCH  12  13
ATOM     13  O   UNL     1      14.342   5.086  23.142  0.00  0.00    -0.370 OA
ATOM     14  H   UNL     1      14.545   4.208  22.781  0.00  0.00    +0.212 HD
ENDBRANCH  12  13
ENDBRANCH  11  12
ENDBRANCH  10  11
ENDBRANCH   9  10
ENDBRANCH   8   9
ENDBRANCH   1   8
TORSDOF 11
ENDMDL
MODEL 4
REMARK VINA RESULT:      -3.9      0.969      2.412
REMARK  Name = 
REMARK  12 active torsions:
REMARK  status: ('A' for Active; 'I' for Inactive)
REMARK    1  A    between atoms: C_1  and  C_2
REMARK    2  A    between atoms: C_2  and  C_3
REMARK    3  A    between atoms: C_3  and  C_4
REMARK    4  A    between atoms: C_4  and  C_5
REMARK    5  A    between atoms: C_5  and  C_6
REMARK    6  A    between atoms: C_6  and  C_7
REMARK    7  A    between atoms: C_7  and  C_8
REMARK    8  A    between atoms: C_8  and  C_9
REMARK    9  A    between atoms: C_9  and  C_10
REMARK   10  A    between atoms: C_10  and  O_11
REMARK   11  A    between atoms: O_11  and  C_12
REMARK   12  A    between atoms: C_12  and  O_13
REMARK                            x       y       z     vdW  Elec       q    Type
REMARK                         _______ _______ _______ _____ _____    ______ ____
ROOT
ATOM      1  C   UNL     1       8.777  -1.529  22.018  0.00  0.00    +0.000 C 
ENDROOT
BRANCH   1   2
ATOM      2  C   UNL     1       9.679  -0.426  21.465  0.00  0.00    +0.000 C 
BRANCH   2   3
ATOM      3  C   UNL     1       8.963   0.924  21.451  0.00  0.00    -0.000 C 
BRANCH   3   4
ATOM      4  C   UNL     1       8.152   1.130  22.732  0.00  0.00    -0.000 C 
BRANCH   4   5
ATOM      5  C   UNL     1       8.939   1.949  23.755  0.00  0.00    -0.000 C 
BRANCH   5   7
ATOM      6  C   UNL     1      10.933   0.721  24.677  0.00  0.00    +0.004 C 
ATOM      7  C   UNL     1       9.466   1.065  24.884  0.00  0.00    -0.003 C 
ENDBRANCH   5   7
ENDBRANCH   4   5
ENDBRANCH   3   4
ENDBRANCH   2   3
ENDBRANCH   1   2
BRANCH   1   8
ATOM      8  C   UNL     1       9.472  -2.287  23.146  0.00  0.00    +0.002 C 
BRANCH   8   9
ATOM      9  C   UNL     1       8.535  -2.504  24.337  0.00  0.00    +0.028 C 
BRANCH   9  10
ATOM     10  C   UNL     1       7.762  -3.813  24.216  0.00  0.00    +0.162 C 
BRANCH  10  11
ATOM     11  O   UNL     1       8.685  -4.877  23.993  0.00  0.00    -0.354 OA
BRANCH  11  12
ATOM     12  C   UNL     1       9.174  -5.422  25.205  0.00  0.00    +0.319 C 
BRANCH  12  13
ATOM     13  O   UNL     1      10.584  -5.377  25.224  0.00  0.00    -0.370 OA
ATOM     14  H   UNL     1      10.848  -5.758  24.371  0.00  0.00    +0.212 HD
ENDBRANCH  12  13
ENDBRANCH  11  12
ENDBRANCH  10  11
ENDBRANCH   9  10
ENDBRANCH   8   9
ENDBRANCH   1   8
TORSDOF 11
ENDMDL
MODEL 5
REMARK VINA RESULT:      -3.8      4.476      6.719
REMARK  Name = 
REMARK  12 active torsions:
REMARK  status: ('A' for Active; 'I' for Inactive)
REMARK    1  A    between atoms: C_1  and  C_2
REMARK    2  A    between atoms: C_2  and  C_3
REMARK    3  A    between atoms: C_3  and  C_4
REMARK    4  A    between atoms: C_4  and  C_5
REMARK    5  A    between atoms: C_5  and  C_6
REMARK    6  A    between atoms: C_6  and  C_7
REMARK    7  A    between atoms: C_7  and  C_8
REMARK    8  A    between atoms: C_8  and  C_9
REMARK    9  A    between atoms: C_9  and  C_10
REMARK   10  A    between atoms: C_10  and  O_11
REMARK   11  A    between atoms: O_11  and  C_12
REMARK   12  A    between atoms: C_12  and  O_13
REMARK                            x       y       z     vdW  Elec       q    Type
REMARK                         _______ _______ _______ _____ _____    ______ ____
ROOT
ATOM      1  C   UNL     1       8.282   1.970  22.903  0.00  0.00    +0.000 C 
ENDROOT
BRANCH   1   2
ATOM      2  C   UNL     1       9.240   1.658  21.753  0.00  0.00    +0.000 C 
BRANCH   2   3
ATOM      3  C   UNL     1       9.102   0.208  21.292  0.00  0.00    -0.000 C 
BRANCH   3   4
ATOM      4  C   UNL     1       8.491  -0.663  22.391  0.00  0.00    -0.000 C 
BRANCH   4   5
ATOM      5  C   UNL     1       9.277  -1.962  22.564  0.00  0.00    -0.000 C 
BRANCH   5   7
ATOM      6  C   UNL     1       9.080  -1.192  24.952  0.00  0.00    +0.004 C 
ATOM      7  C   UNL     1       9.832  -2.090  23.981  0.00  0.00    -0.003 C 
ENDBRANCH   5   7
ENDBRANCH   4   5
ENDBRANCH   3   4
ENDBRANCH   2   3
ENDBRANCH   1   2
BRANCH   1   8
ATOM      8  C   UNL     1       9.043   2.498  24.118  0.00  0.00    +0.002 C 
BRANCH   8   9
ATOM      9  C   UNL     1      10.532   2.678  23.812  0.00  0.00    +0.028 C 
BRANCH   9  10
ATOM     10  C   UNL     1      10.896   4.147  23.621  0.00  0.00    +0.162 C 
BRANCH  10  11
ATOM     11  O   UNL     1      12.145   4.229  22.938  0.00  0.00    -0.354 OA
BRANCH  11  12
ATOM     12  C   UNL     1      12.892   5.368  23.327  0.00  0.00    +0.319 C 
BRANCH  12  13
ATOM     13  O   UNL     1      14.271   5.126  23.153  0.00  0.00    -0.370 OA
ATOM     14  H   UNL     1      14.442   5.367  22.229  0.00  0.00    +0.212 HD
ENDBRANCH  12  13
ENDBRANCH  11  12
ENDBRANCH  10  11
ENDBRANCH   9  10
ENDBRANCH   8   9
ENDBRANCH   1   8
TORSDOF 11
ENDMDL
MODEL 6
REMARK VINA RESULT:      -3.8      0.954      2.026
REMARK  Name = 
REMARK  12 active torsions:
REMARK  status: ('A' for Active; 'I' for Inactive)
REMARK    1  A    between atoms: C_1  and  C_2
REMARK    2  A    between atoms: C_2  and  C_3
REMARK    3  A    between atoms: C_3  and  C_4
REMARK    4  A    between atoms: C_4  and  C_5
REMARK    5  A    between atoms: C_5  and  C_6
REMARK    6  A    between atoms: C_6  and  C_7
REMARK    7  A    between atoms: C_7  and  C_8
REMARK    8  A    between atoms: C_8  and  C_9
REMARK    9  A    between atoms: C_9  and  C_10
REMARK   10  A    between atoms: C_10  and  O_11
REMARK   11  A    between atoms: O_11  and  C_12
REMARK   12  A    between atoms: C_12  and  O_13
REMARK                            x       y       z     vdW  Elec       q    Type
REMARK                         _______ _______ _______ _____ _____    ______ ____
ROOT
ATOM      1  C   UNL     1       9.006  -2.311  22.785  0.00  0.00    +0.000 C 
ENDROOT
BRANCH   1   2
ATOM      2  C   UNL     1       9.966  -1.719  23.817  0.00  0.00    +0.000 C 
BRANCH   2   3
ATOM      3  C   UNL     1       9.211  -1.156  25.020  0.00  0.00    -0.000 C 
BRANCH   3   4
ATOM      4  C   UNL     1       9.356   0.364  25.099  0.00  0.00    -0.000 C 
BRANCH   4   5
ATOM      5  C   UNL     1      10.644   0.830  24.421  0.00  0.00    -0.000 C 
BRANCH   5   7
ATOM      6  C   UNL     1      10.008   1.552  22.095  0.00  0.00    +0.004 C 
ATOM      7  C   UNL     1      10.385   2.016  23.494  0.00  0.00    -0.003 C 
ENDBRANCH   5   7
ENDBRANCH   4   5
ENDBRANCH   3   4
ENDBRANCH   2   3
ENDBRANCH   1   2
BRANCH   1   8
ATOM      8  C   UNL     1       7.619  -2.519  23.389  0.00  0.00    +0.002 C 
BRANCH   8   9
ATOM      9  C   UNL     1       7.134  -3.959  23.197  0.00  0.00    +0.028 C 
BRANCH   9  10
ATOM     10  C   UNL     1       8.051  -4.962  23.889  0.00  0.00    +0.162 C 
BRANCH  10  11
ATOM     11  O   UNL     1       8.045  -4.703  25.291  0.00  0.00    -0.354 OA
BRANCH  11  12
ATOM     12  C   UNL     1       9.333  -4.835  25.863  0.00  0.00    +0.319 C 
BRANCH  12  13
ATOM     13  O   UNL     1      10.280  -5.137  24.862  0.00  0.00    -0.370 OA
ATOM     14  H   UNL     1      10.058  -6.041  24.586  0.00  0.00    +0.212 HD
ENDBRANCH  12  13
ENDBRANCH  11  12
ENDBRANCH  10  11
ENDBRANCH   9  10
ENDBRANCH   8   9
ENDBRANCH   1   8
TORSDOF 11
ENDMDL
MODEL 7
REMARK VINA RESULT:      -3.8      1.763      2.804
REMARK  Name = 
REMARK  12 active torsions:
REMARK  status: ('A' for Active; 'I' for Inactive)
REMARK    1  A    between atoms: C_1  and  C_2
REMARK    2  A    between atoms: C_2  and  C_3
REMARK    3  A    between atoms: C_3  and  C_4
REMARK    4  A    between atoms: C_4  and  C_5
REMARK    5  A    between atoms: C_5  and  C_6
REMARK    6  A    between atoms: C_6  and  C_7
REMARK    7  A    between atoms: C_7  and  C_8
REMARK    8  A    between atoms: C_8  and  C_9
REMARK    9  A    between atoms: C_9  and  C_10
REMARK   10  A    between atoms: C_10  and  O_11
REMARK   11  A    between atoms: O_11  and  C_12
REMARK   12  A    between atoms: C_12  and  O_13
REMARK                            x       y       z     vdW  Elec       q    Type
REMARK                         _______ _______ _______ _____ _____    ______ ____
ROOT
ATOM      1  C   UNL     1       8.544  -0.136  22.305  0.00  0.00    +0.000 C 
ENDROOT
BRANCH   1   2
ATOM      2  C   UNL     1       8.945   1.074  21.462  0.00  0.00    +0.000 C 
BRANCH   2   3
ATOM      3  C   UNL     1      10.125   1.819  22.086  0.00  0.00    -0.000 C 
BRANCH   3   4
ATOM      4  C   UNL     1       9.820   2.222  23.530  0.00  0.00    -0.000 C 
BRANCH   4   5
ATOM      5  C   UNL     1       9.362   3.678  23.610  0.00  0.00    -0.000 C 
BRANCH   5   7
ATOM      6  C   UNL     1      10.123   6.077  23.659  0.00  0.00    +0.004 C 
ATOM      7  C   UNL     1      10.548   4.623  23.793  0.00  0.00    -0.003 C 
ENDBRANCH   5   7
ENDBRANCH   4   5
ENDBRANCH   3   4
ENDBRANCH   2   3
ENDBRANCH   1   2
BRANCH   1   8
ATOM      8  C   UNL     1       9.439  -1.334  21.998  0.00  0.00    +0.002 C 
BRANCH   8   9
ATOM      9  C   UNL     1      10.250  -1.758  23.225  0.00  0.00    +0.028 C 
BRANCH   9  10
ATOM     10  C   UNL     1       9.434  -2.638  24.166  0.00  0.00    +0.162 C 
BRANCH  10  11
ATOM     11  O   UNL     1      10.064  -3.913  24.270  0.00  0.00    -0.354 OA
BRANCH  11  12
ATOM     12  C   UNL     1       9.425  -4.748  25.219  0.00  0.00    +0.319 C 
BRANCH  12  13
ATOM     13  O   UNL     1      10.349  -5.672  25.752  0.00  0.00    -0.370 OA
ATOM     14  H   UNL     1       9.847  -6.148  26.432  0.00  0.00    +0.212 HD
ENDBRANCH  12  13
ENDBRANCH  11  12
ENDBRANCH  10  11
ENDBRANCH   9  10
ENDBRANCH   8   9
ENDBRANCH   1   8
TORSDOF 11
ENDMDL
MODEL 8
REMARK VINA RESULT:      -3.8      2.422      3.196
REMARK  Name = 
REMARK  12 active torsions:
REMARK  status: ('A' for Active; 'I' for Inactive)
REMARK    1  A    between atoms: C_1  and  C_2
REMARK    2  A    between atoms: C_2  and  C_3
REMARK    3  A    between atoms: C_3  and  C_4
REMARK    4  A    between atoms: C_4  and  C_5
REMARK    5  A    between atoms: C_5  and  C_6
REMARK    6  A    between atoms: C_6  and  C_7
REMARK    7  A    between atoms: C_7  and  C_8
REMARK    8  A    between atoms: C_8  and  C_9
REMARK    9  A    between atoms: C_9  and  C_10
REMARK   10  A    between atoms: C_10  and  O_11
REMARK   11  A    between atoms: O_11  and  C_12
REMARK   12  A    between atoms: C_12  and  O_13
REMARK                            x       y       z     vdW  Elec       q    Type
REMARK                         _______ _______ _______ _____ _____    ______ ____
ROOT
ATOM      1  C   UNL     1       9.190  -1.868  23.349  0.00  0.00    +0.000 C 
ENDROOT
BRANCH   1   2
ATOM      2  C   UNL     1      10.088  -1.394  22.206  0.00  0.00    +0.000 C 
BRANCH   2   3
ATOM      3  C   UNL     1       9.419  -0.282  21.398  0.00  0.00    -0.000 C 
BRANCH   3   4
ATOM      4  C   UNL     1       9.888   1.096  21.865  0.00  0.00    -0.000 C 
BRANCH   4   5
ATOM      5  C   UNL     1       8.707   2.050  22.041  0.00  0.00    -0.000 C 
BRANCH   5   7
ATOM      6  C   UNL     1       9.540   1.826  24.405  0.00  0.00    +0.004 C 
ATOM      7  C   UNL     1       8.669   2.631  23.453  0.00  0.00    -0.003 C 
ENDBRANCH   5   7
ENDBRANCH   4   5
ENDBRANCH   3   4
ENDBRANCH   2   3
ENDBRANCH   1   2
BRANCH   1   8
ATOM      8  C   UNL     1       7.726  -1.891  22.917  0.00  0.00    +0.002 C 
BRANCH   8   9
ATOM      9  C   UNL     1       7.294  -3.290  22.471  0.00  0.00    +0.028 C 
BRANCH   9  10
ATOM     10  C   UNL     1       5.916  -3.276  21.819  0.00  0.00    +0.162 C 
BRANCH  10  11
ATOM     11  O   UNL     1       5.364  -4.589  21.874  0.00  0.00    -0.354 OA
BRANCH  11  12
ATOM     12  C   UNL     1       6.183  -5.540  21.218  0.00  0.00    +0.319 C 
BRANCH  12  13
ATOM     13  O   UNL     1       6.242  -6.732  21.972  0.00  0.00    -0.370 OA
ATOM     14  H   UNL     1       6.044  -7.432  21.329  0.00  0.00    +0.212 HD
ENDBRANCH  12  13
ENDBRANCH  11  12
ENDBRANCH  10  11
ENDBRANCH   9  10
ENDBRANCH   8   9
ENDBRANCH   1   8
TORSDOF 11
ENDMDL
MODEL 9
REMARK VINA RESULT:      -3.7      2.989      4.419
REMARK  Name = 
REMARK  12 active torsions:
REMARK  status: ('A' for Active; 'I' for Inactive)
REMARK    1  A    between atoms: C_1  and  C_2
REMARK    2  A    between atoms: C_2  and  C_3
REMARK    3  A    between atoms: C_3  and  C_4
REMARK    4  A    between atoms: C_4  and  C_5
REMARK    5  A    between atoms: C_5  and  C_6
REMARK    6  A    between atoms: C_6  and  C_7
REMARK    7  A    between atoms: C_7  and  C_8
REMARK    8  A    between atoms: C_8  and  C_9
REMARK    9  A    between atoms: C_9  and  C_10
REMARK   10  A    between atoms: C_10  and  O_11
REMARK   11  A    between atoms: O_11  and  C_12
REMARK   12  A    between atoms: C_12  and  O_13
REMARK                            x       y       z     vdW  Elec       q    Type
REMARK                         _______ _______ _______ _____ _____    ______ ____
ROOT
ATOM      1  C   UNL     1       8.866   2.099  24.718  0.00  0.00    +0.000 C 
ENDROOT
BRANCH   1   2
ATOM      2  C   UNL     1       8.687   3.614  24.813  0.00  0.00    +0.000 C 
BRANCH   2   3
ATOM      3  C   UNL     1       9.608   4.345  23.836  0.00  0.00    -0.000 C 
BRANCH   3   4
ATOM      4  C   UNL     1       9.965   5.739  24.355  0.00  0.00    -0.000 C 
BRANCH   4   5
ATOM      5  C   UNL     1      11.420   6.086  24.042  0.00  0.00    -0.000 C 
BRANCH   5   7
ATOM      6  C   UNL     1      13.239   5.438  22.429  0.00  0.00    +0.004 C 
ATOM      7  C   UNL     1      12.125   4.933  23.332  0.00  0.00    -0.003 C 
ENDBRANCH   5   7
ENDBRANCH   4   5
ENDBRANCH   3   4
ENDBRANCH   2   3
ENDBRANCH   1   2
BRANCH   1   8
ATOM      8  C   UNL     1      10.274   1.745  24.243  0.00  0.00    +0.002 C 
BRANCH   8   9
ATOM      9  C   UNL     1      10.621   0.287  24.553  0.00  0.00    +0.028 C 
BRANCH   9  10
ATOM     10  C   UNL     1       9.387  -0.608  24.517  0.00  0.00    +0.162 C 
BRANCH  10  11
ATOM     11  O   UNL     1       9.702  -1.803  23.806  0.00  0.00    -0.354 OA
BRANCH  11  12
ATOM     12  C   UNL     1      10.531  -1.553  22.685  0.00  0.00    +0.319 C 
BRANCH  12  13
ATOM     13  O   UNL     1       9.789  -1.691  21.493  0.00  0.00    -0.370 OA
ATOM     14  H   UNL     1      10.364  -1.316  20.807  0.00  0.00    +0.212 HD
ENDBRANCH  12  13
ENDBRANCH  11  12
ENDBRANCH  10  11
ENDBRANCH   9  10
ENDBRANCH   8   9
ENDBRANCH   1   8
TORSDOF 11
ENDMDL
