MODEL 1
REMARK VINA RESULT:      -5.1      0.000      0.000
REMARK  Name = 
REMARK  11 active torsions:
REMARK  status: ('A' for Active; 'I' for Inactive)
REMARK    1  A    between atoms: CA_2  and  CB_3
REMARK    2  A    between atoms: CA_2  and  N_7
REMARK    3  A    between atoms: CA_2  and  C_15
REMARK    4  A    between atoms: CB_3  and  CG_4
REMARK    5  A    between atoms: CG_4  and  SD_5
REMARK    6  A    between atoms: SD_5  and  CE_6
REMARK    7  A    between atoms: C_8  and  C_10
REMARK    8  A    between atoms: C_10  and  C_11
REMARK    9  A    between atoms: C_11  and  C_12
REMARK   10  A    between atoms: C_12  and  O_13
REMARK   11  A    between atoms: C_15  and  O_16
REMARK                            x       y       z     vdW  Elec       q    Type
REMARK                         _______ _______ _______ _____ _____    ______ ____
ROOT
ATOM      1  N   MET A   1       9.253  -1.073  24.306  0.00  0.00    -0.302 N 
ATOM      2  H   MET A   1       8.411  -0.536  24.489  0.00  0.00    +0.150 HD
ATOM      3  C   UNK A   0       9.198  -2.436  24.459  0.00  0.00    +0.214 C 
ATOM      4  O   UNK A   0      10.013  -3.225  23.993  0.00  0.00    -0.276 OA
ENDROOT
BRANCH   1   5
ATOM      5  CA  MET A   1      10.296  -0.372  23.520  0.00  0.00    +0.182 C 
BRANCH   5   6
ATOM      6  C   MET A   1       9.944  -0.339  22.020  0.00  0.00    +0.325 C 
ATOM      7  OXT MET A   1       9.591   0.663  21.413  0.00  0.00    -0.249 OA
BRANCH   6   8
ATOM      8  O   MET A   1      10.166  -1.518  21.389  0.00  0.00    -0.479 OA
ATOM      9  H   MET A   1      10.019  -1.414  20.431  0.00  0.00    +0.295 HD
ENDBRANCH   6   8
ENDBRANCH   5   6
BRANCH   5  10
ATOM     10  CB  MET A   1      10.673   1.030  24.026  0.00  0.00    +0.044 C 
BRANCH  10  11
ATOM     11  CG  MET A   1       9.512   1.848  24.593  0.00  0.00    +0.071 C 
BRANCH  11  12
ATOM     12  SD  MET A   1       9.403   3.500  23.834  0.00  0.00    -0.164 S 
ATOM     13  CE  MET A   1      11.142   3.700  23.371  0.00  0.00    +0.084 C 
ENDBRANCH  11  12
ENDBRANCH  10  11
ENDBRANCH   5  10
ENDBRANCH   1   5
BRANCH   3  14
ATOM     14  C   UNK A   0       8.014  -2.957  25.226  0.00  0.00    +0.107 C 
BRANCH  14  15
ATOM     15  C   UNK A   0       7.789  -4.427  24.937  0.00  0.00    +0.129 C 
BRANCH  15  16
ATOM     16  C   UNK A   0       8.397  -5.445  25.878  0.00  0.00    +0.305 C 
ATOM     17  O   UNK A   0       7.742  -5.899  26.809  0.00  0.00    -0.251 OA
BRANCH  16  18
ATOM     18  O   UNK A   0       9.653  -5.859  25.654  0.00  0.00    -0.481 OA
ATOM     19  H   UNK A   0      10.282  -5.979  26.400  0.00  0.00    +0.295 HD
ENDBRANCH  16  18
ENDBRANCH  15  16
ENDBRANCH  14  15
ENDBRANCH   3  14
TORSDOF 10
ENDMDL
MODEL 2
REMARK VINA RESULT:      -4.9      2.957      6.650
REMARK  Name = 
REMARK  11 active torsions:
REMARK  status: ('A' for Active; 'I' for Inactive)
REMARK    1  A    between atoms: CA_2  and  CB_3
REMARK    2  A    between atoms: CA_2  and  N_7
REMARK    3  A    between atoms: CA_2  and  C_15
REMARK    4  A    between atoms: CB_3  and  CG_4
REMARK    5  A    between atoms: CG_4  and  SD_5
REMARK    6  A    between atoms: SD_5  and  CE_6
REMARK    7  A    between atoms: C_8  and  C_10
REMARK    8  A    between atoms: C_10  and  C_11
REMARK    9  A    between atoms: C_11  and  C_12
REMARK   10  A    between atoms: C_12  and  O_13
REMARK   11  A    between atoms: C_15  and  O_16
REMARK                            x       y       z     vdW  Elec       q    Type
REMARK                         _______ _______ _______ _____ _____    ______ ____
ROOT
ATOM      1  N   MET A   1       9.351  -2.078  24.288  0.00  0.00    -0.302 N 
ATOM      2  H   MET A   1       9.271  -1.715  25.234  0.00  0.00    +0.150 HD
ATOM      3  C   UNK A   0      10.095  -1.366  23.381  0.00  0.00    +0.214 C 
ATOM      4  O   UNK A   0      10.527  -1.815  22.325  0.00  0.00    -0.276 OA
ENDROOT
BRANCH   1   5
ATOM      5  CA  MET A   1       8.998  -3.508  24.125  0.00  0.00    +0.182 C 
BRANCH   5   6
ATOM      6  C   MET A   1       9.400  -4.333  25.364  0.00  0.00    +0.325 C 
ATOM      7  OXT MET A   1       8.875  -4.234  26.464  0.00  0.00    -0.249 OA
BRANCH   6   8
ATOM      8  O   MET A   1      10.337  -5.277  25.099  0.00  0.00    -0.479 OA
ATOM      9  H   MET A   1      11.228  -4.910  25.252  0.00  0.00    +0.295 HD
ENDBRANCH   6   8
ENDBRANCH   5   6
BRANCH   5  10
ATOM     10  CB  MET A   1       7.537  -3.787  23.733  0.00  0.00    +0.044 C 
BRANCH  10  11
ATOM     11  CG  MET A   1       7.291  -3.973  22.236  0.00  0.00    +0.071 C 
BRANCH  11  12
ATOM     12  SD  MET A   1       6.927  -5.707  21.812  0.00  0.00    -0.164 S 
ATOM     13  CE  MET A   1       5.599  -6.004  23.006  0.00  0.00    +0.084 C 
ENDBRANCH  11  12
ENDBRANCH  10  11
ENDBRANCH   5  10
ENDBRANCH   1   5
BRANCH   3  14
ATOM     14  C   UNK A   0      10.414   0.051  23.771  0.00  0.00    +0.107 C 
BRANCH  14  15
ATOM     15  C   UNK A   0       9.274   0.980  23.406  0.00  0.00    +0.129 C 
BRANCH  15  16
ATOM     16  C   UNK A   0       9.256   1.584  22.018  0.00  0.00    +0.305 C 
ATOM     17  O   UNK A   0       8.275   1.447  21.295  0.00  0.00    -0.251 OA
BRANCH  16  18
ATOM     18  O   UNK A   0      10.318   2.292  21.609  0.00  0.00    -0.481 OA
ATOM     19  H   UNK A   0      10.552   3.142  22.044  0.00  0.00    +0.295 HD
ENDBRANCH  16  18
ENDBRANCH  15  16
ENDBRANCH  14  15
ENDBRANCH   3  14
TORSDOF 10
ENDMDL
MODEL 3
REMARK VINA RESULT:      -4.8      2.882      6.736
REMARK  Name = 
REMARK  11 active torsions:
REMARK  status: ('A' for Active; 'I' for Inactive)
REMARK    1  A    between atoms: CA_2  and  CB_3
REMARK    2  A    between atoms: CA_2  and  N_7
REMARK    3  A    between atoms: CA_2  and  C_15
REMARK    4  A    between atoms: CB_3  and  CG_4
REMARK    5  A    between atoms: CG_4  and  SD_5
REMARK    6  A    between atoms: SD_5  and  CE_6
REMARK    7  A    between atoms: C_8  and  C_10
REMARK    8  A    between atoms: C_10  and  C_11
REMARK    9  A    between atoms: C_11  and  C_12
REMARK   10  A    between atoms: C_12  and  O_13
REMARK   11  A    between atoms: C_15  and  O_16
REMARK                            x       y       z     vdW  Elec       q    Type
REMARK                         _______ _______ _______ _____ _____    ______ ____
ROOT
ATOM      1  N   MET A   1       8.240  -3.173  24.429  0.00  0.00    -0.302 N 
ATOM      2  H   MET A   1       7.553  -2.720  25.026  0.00  0.00    +0.150 HD
ATOM      3  C   UNK A   0       9.382  -2.480  24.115  0.00  0.00    +0.214 C 
ATOM      4  O   UNK A   0      10.409  -2.986  23.677  0.00  0.00    -0.276 OA
ENDROOT
BRANCH   1   5
ATOM      5  CA  MET A   1       8.109  -4.644  24.312  0.00  0.00    +0.182 C 
BRANCH   5   6
ATOM      6  C   MET A   1       8.763  -5.365  25.508  0.00  0.00    +0.325 C 
ATOM      7  OXT MET A   1       8.160  -5.750  26.500  0.00  0.00    -0.249 OA
BRANCH   6   8
ATOM      8  O   MET A   1      10.077  -5.638  25.317  0.00  0.00    -0.479 OA
ATOM      9  H   MET A   1      10.179  -6.275  24.586  0.00  0.00    +0.295 HD
ENDBRANCH   6   8
ENDBRANCH   5   6
BRANCH   5  10
ATOM     10  CB  MET A   1       6.681  -5.163  24.075  0.00  0.00    +0.044 C 
BRANCH  10  11
ATOM     11  CG  MET A   1       5.565  -4.211  24.504  0.00  0.00    +0.071 C 
BRANCH  11  12
ATOM     12  SD  MET A   1       4.647  -4.837  25.947  0.00  0.00    -0.164 S 
ATOM     13  CE  MET A   1       4.822  -6.611  25.630  0.00  0.00    +0.084 C 
ENDBRANCH  11  12
ENDBRANCH  10  11
ENDBRANCH   5  10
ENDBRANCH   1   5
BRANCH   3  14
ATOM     14  C   UNK A   0       9.339  -1.000  24.381  0.00  0.00    +0.107 C 
BRANCH  14  15
ATOM     15  C   UNK A   0      10.316  -0.262  23.489  0.00  0.00    +0.129 C 
BRANCH  15  16
ATOM     16  C   UNK A   0       9.918   0.003  22.053  0.00  0.00    +0.305 C 
ATOM     17  O   UNK A   0       9.626   1.137  21.689  0.00  0.00    -0.251 OA
BRANCH  16  18
ATOM     18  O   UNK A   0       9.919  -1.018  21.184  0.00  0.00    -0.481 OA
ATOM     19  H   UNK A   0       9.859  -0.854  20.216  0.00  0.00    +0.295 HD
ENDBRANCH  16  18
ENDBRANCH  15  16
ENDBRANCH  14  15
ENDBRANCH   3  14
TORSDOF 10
ENDMDL
MODEL 4
REMARK VINA RESULT:      -4.7      2.962      6.567
REMARK  Name = 
REMARK  11 active torsions:
REMARK  status: ('A' for Active; 'I' for Inactive)
REMARK    1  A    between atoms: CA_2  and  CB_3
REMARK    2  A    between atoms: CA_2  and  N_7
REMARK    3  A    between atoms: CA_2  and  C_15
REMARK    4  A    between atoms: CB_3  and  CG_4
REMARK    5  A    between atoms: CG_4  and  SD_5
REMARK    6  A    between atoms: SD_5  and  CE_6
REMARK    7  A    between atoms: C_8  and  C_10
REMARK    8  A    between atoms: C_10  and  C_11
REMARK    9  A    between atoms: C_11  and  C_12
REMARK   10  A    between atoms: C_12  and  O_13
REMARK   11  A    between atoms: C_15  and  O_16
REMARK                            x       y       z     vdW  Elec       q    Type
REMARK                         _______ _______ _______ _____ _____    ______ ____
ROOT
ATOM      1  N   MET A   1       9.344  -2.534  24.349  0.00  0.00    -0.302 N 
ATOM      2  H   MET A   1      10.220  -2.348  24.829  0.00  0.00    +0.150 HD
ATOM      3  C   UNK A   0       9.199  -2.073  23.064  0.00  0.00    +0.214 C 
ATOM      4  O   UNK A   0       8.353  -2.470  22.271  0.00  0.00    -0.276 OA
ENDROOT
BRANCH   1   5
ATOM      5  CA  MET A   1       8.511  -3.607  24.940  0.00  0.00    +0.182 C 
BRANCH   5   6
ATOM      6  C   MET A   1       9.021  -5.004  24.536  0.00  0.00    +0.325 C 
ATOM      7  OXT MET A   1       8.495  -5.718  23.693  0.00  0.00    -0.249 OA
BRANCH   6   8
ATOM      8  O   MET A   1      10.192  -5.341  25.131  0.00  0.00    -0.479 OA
ATOM      9  H   MET A   1      10.438  -4.662  25.785  0.00  0.00    +0.295 HD
ENDBRANCH   6   8
ENDBRANCH   5   6
BRANCH   5  10
ATOM     10  CB  MET A   1       8.303  -3.520  26.462  0.00  0.00    +0.044 C 
BRANCH  10  11
ATOM     11  CG  MET A   1       7.172  -4.387  27.013  0.00  0.00    +0.071 C 
BRANCH  11  12
ATOM     12  SD  MET A   1       5.654  -4.248  26.016  0.00  0.00    -0.164 S 
ATOM     13  CE  MET A   1       5.452  -5.995  25.586  0.00  0.00    +0.084 C 
ENDBRANCH  11  12
ENDBRANCH  10  11
ENDBRANCH   5  10
ENDBRANCH   1   5
BRANCH   3  14
ATOM     14  C   UNK A   0      10.197  -1.036  22.628  0.00  0.00    +0.107 C 
BRANCH  14  15
ATOM     15  C   UNK A   0       9.660  -0.223  21.469  0.00  0.00    +0.129 C 
BRANCH  15  16
ATOM     16  C   UNK A   0       9.168   1.182  21.744  0.00  0.00    +0.305 C 
ATOM     17  O   UNK A   0       8.050   1.367  22.213  0.00  0.00    -0.251 OA
BRANCH  16  18
ATOM     18  O   UNK A   0       9.988   2.213  21.493  0.00  0.00    -0.481 OA
ATOM     19  H   UNK A   0      10.949   2.149  21.690  0.00  0.00    +0.295 HD
ENDBRANCH  16  18
ENDBRANCH  15  16
ENDBRANCH  14  15
ENDBRANCH   3  14
TORSDOF 10
ENDMDL
MODEL 5
REMARK VINA RESULT:      -4.7      1.683      2.306
REMARK  Name = 
REMARK  11 active torsions:
REMARK  status: ('A' for Active; 'I' for Inactive)
REMARK    1  A    between atoms: CA_2  and  CB_3
REMARK    2  A    between atoms: CA_2  and  N_7
REMARK    3  A    between atoms: CA_2  and  C_15
REMARK    4  A    between atoms: CB_3  and  CG_4
REMARK    5  A    between atoms: CG_4  and  SD_5
REMARK    6  A    between atoms: SD_5  and  CE_6
REMARK    7  A    between atoms: C_8  and  C_10
REMARK    8  A    between atoms: C_10  and  C_11
REMARK    9  A    between atoms: C_11  and  C_12
REMARK   10  A    between atoms: C_12  and  O_13
REMARK   11  A    between atoms: C_15  and  O_16
REMARK                            x       y       z     vdW  Elec       q    Type
REMARK                         _______ _______ _______ _____ _____    ______ ____
ROOT
ATOM      1  N   MET A   1       8.723  -3.037  24.740  0.00  0.00    -0.302 N 
ATOM      2  H   MET A   1       7.721  -2.872  24.737  0.00  0.00    +0.150 HD
ATOM      3  C   UNK A   0       9.168  -4.317  24.958  0.00  0.00    +0.214 C 
ATOM      4  O   UNK A   0      10.295  -4.720  24.694  0.00  0.00    -0.276 OA
ENDROOT
BRANCH   1   5
ATOM      5  CA  MET A   1       9.545  -1.973  24.116  0.00  0.00    +0.182 C 
BRANCH   5   6
ATOM      6  C   MET A   1       9.312  -1.901  22.593  0.00  0.00    +0.325 C 
ATOM      7  OXT MET A   1       8.211  -1.898  22.059  0.00  0.00    -0.249 OA
BRANCH   6   8
ATOM      8  O   MET A   1      10.454  -1.731  21.883  0.00  0.00    -0.479 OA
ATOM      9  H   MET A   1      10.900  -0.912  22.165  0.00  0.00    +0.295 HD
ENDBRANCH   6   8
ENDBRANCH   5   6
BRANCH   5  10
ATOM     10  CB  MET A   1       9.418  -0.580  24.755  0.00  0.00    +0.044 C 
BRANCH  10  11
ATOM     11  CG  MET A   1      10.605   0.353  24.517  0.00  0.00    +0.071 C 
BRANCH  11  12
ATOM     12  SD  MET A   1      10.075   2.006  23.962  0.00  0.00    -0.164 S 
ATOM     13  CE  MET A   1      10.042   1.695  22.179  0.00  0.00    +0.084 C 
ENDBRANCH  11  12
ENDBRANCH  10  11
ENDBRANCH   5  10
ENDBRANCH   1   5
BRANCH   3  14
ATOM     14  C   UNK A   0       8.153  -5.270  25.529  0.00  0.00    +0.107 C 
BRANCH  14  15
ATOM     15  C   UNK A   0       7.798  -4.892  26.952  0.00  0.00    +0.129 C 
BRANCH  15  16
ATOM     16  C   UNK A   0       6.649  -5.615  27.621  0.00  0.00    +0.305 C 
ATOM     17  O   UNK A   0       5.995  -6.447  27.003  0.00  0.00    -0.251 OA
BRANCH  16  18
ATOM     18  O   UNK A   0       6.382  -5.348  28.908  0.00  0.00    -0.481 OA
ATOM     19  H   UNK A   0       5.662  -4.725  29.153  0.00  0.00    +0.295 HD
ENDBRANCH  16  18
ENDBRANCH  15  16
ENDBRANCH  14  15
ENDBRANCH   3  14
TORSDOF 10
ENDMDL
MODEL 6
REMARK VINA RESULT:      -4.7      2.571      2.935
REMARK  Name = 
REMARK  11 active torsions:
REMARK  status: ('A' for Active; 'I' for Inactive)
REMARK    1  A    between atoms: CA_2  and  CB_3
REMARK    2  A    between atoms: CA_2  and  N_7
REMARK    3  A    between atoms: CA_2  and  C_15
REMARK    4  A    between atoms: CB_3  and  CG_4
REMARK    5  A    between atoms: CG_4  and  SD_5
REMARK    6  A    between atoms: SD_5  and  CE_6
REMARK    7  A    between atoms: C_8  and  C_10
REMARK    8  A    between atoms: C_10  and  C_11
REMARK    9  A    between atoms: C_11  and  C_12
REMARK   10  A    between atoms: C_12  and  O_13
REMARK   11  A    between atoms: C_15  and  O_16
REMARK                            x       y       z     vdW  Elec       q    Type
REMARK                         _______ _______ _______ _____ _____    ______ ____
ROOT
ATOM      1  N   MET A   1       8.004  -2.342  23.379  0.00  0.00    -0.302 N 
ATOM      2  H   MET A   1       7.162  -2.361  22.811  0.00  0.00    +0.150 HD
ATOM      3  C   UNK A   0       8.520  -3.537  23.813  0.00  0.00    +0.214 C 
ATOM      4  O   UNK A   0       9.662  -3.695  24.231  0.00  0.00    -0.276 OA
ENDROOT
BRANCH   1   5
ATOM      5  CA  MET A   1       8.779  -1.080  23.325  0.00  0.00    +0.182 C 
BRANCH   5   6
ATOM      6  C   MET A   1       9.549  -0.948  21.996  0.00  0.00    +0.325 C 
ATOM      7  OXT MET A   1       9.292  -0.131  21.123  0.00  0.00    -0.249 OA
BRANCH   6   8
ATOM      8  O   MET A   1      10.630  -1.763  21.919  0.00  0.00    -0.479 OA
ATOM      9  H   MET A   1      11.390  -1.348  22.366  0.00  0.00    +0.295 HD
ENDBRANCH   6   8
ENDBRANCH   5   6
BRANCH   5  10
ATOM     10  CB  MET A   1       7.979   0.199  23.623  0.00  0.00    +0.044 C 
BRANCH  10  11
ATOM     11  CG  MET A   1       8.419   0.965  24.870  0.00  0.00    +0.071 C 
BRANCH  11  12
ATOM     12  SD  MET A   1       8.926   2.671  24.483  0.00  0.00    -0.164 S 
ATOM     13  CE  MET A   1      10.488   2.305  23.644  0.00  0.00    +0.084 C 
ENDBRANCH  11  12
ENDBRANCH  10  11
ENDBRANCH   5  10
ENDBRANCH   1   5
BRANCH   3  14
ATOM     14  C   UNK A   0       7.595  -4.720  23.714  0.00  0.00    +0.107 C 
BRANCH  14  15
ATOM     15  C   UNK A   0       7.436  -5.160  22.273  0.00  0.00    +0.129 C 
BRANCH  15  16
ATOM     16  C   UNK A   0       6.073  -5.024  21.628  0.00  0.00    +0.305 C 
ATOM     17  O   UNK A   0       5.696  -3.940  21.197  0.00  0.00    -0.251 OA
BRANCH  16  18
ATOM     18  O   UNK A   0       5.303  -6.116  21.512  0.00  0.00    -0.481 OA
ATOM     19  H   UNK A   0       5.396  -6.865  22.141  0.00  0.00    +0.295 HD
ENDBRANCH  16  18
ENDBRANCH  15  16
ENDBRANCH  14  15
ENDBRANCH   3  14
TORSDOF 10
ENDMDL
MODEL 7
REMARK VINA RESULT:      -4.7      3.495      6.399
REMARK  Name = 
REMARK  11 active torsions:
REMARK  status: ('A' for Active; 'I' for Inactive)
REMARK    1  A    between atoms: CA_2  and  CB_3
REMARK    2  A    between atoms: CA_2  and  N_7
REMARK    3  A    between atoms: CA_2  and  C_15
REMARK    4  A    between atoms: CB_3  and  CG_4
REMARK    5  A    between atoms: CG_4  and  SD_5
REMARK    6  A    between atoms: SD_5  and  CE_6
REMARK    7  A    between atoms: C_8  and  C_10
REMARK    8  A    between atoms: C_10  and  C_11
REMARK    9  A    between atoms: C_11  and  C_12
REMARK   10  A    between atoms: C_12  and  O_13
REMARK   11  A    between atoms: C_15  and  O_16
REMARK                            x       y       z     vdW  Elec       q    Type
REMARK                         _______ _______ _______ _____ _____    ______ ____
ROOT
ATOM      1  N   MET A   1       8.444  -2.959  22.509  0.00  0.00    -0.302 N 
ATOM      2  H   MET A   1       8.646  -3.034  21.516  0.00  0.00    +0.150 HD
ATOM      3  C   UNK A   0       8.995  -1.913  23.206  0.00  0.00    +0.214 C 
ATOM      4  O   UNK A   0       8.610  -1.524  24.303  0.00  0.00    -0.276 OA
ENDROOT
BRANCH   1   5
ATOM      5  CA  MET A   1       7.277  -3.741  22.981  0.00  0.00    +0.182 C 
BRANCH   5   6
ATOM      6  C   MET A   1       6.443  -4.277  21.800  0.00  0.00    +0.325 C 
ATOM      7  OXT MET A   1       5.570  -3.644  21.223  0.00  0.00    -0.249 OA
BRANCH   6   8
ATOM      8  O   MET A   1       6.841  -5.501  21.373  0.00  0.00    -0.479 OA
ATOM      9  H   MET A   1       6.320  -5.764  20.592  0.00  0.00    +0.295 HD
ENDBRANCH   6   8
ENDBRANCH   5   6
BRANCH   5  10
ATOM     10  CB  MET A   1       7.595  -4.866  23.980  0.00  0.00    +0.044 C 
BRANCH  10  11
ATOM     11  CG  MET A   1       6.640  -4.967  25.169  0.00  0.00    +0.071 C 
BRANCH  11  12
ATOM     12  SD  MET A   1       7.526  -5.213  26.741  0.00  0.00    -0.164 S 
ATOM     13  CE  MET A   1       9.144  -4.571  26.243  0.00  0.00    +0.084 C 
ENDBRANCH  11  12
ENDBRANCH  10  11
ENDBRANCH   5  10
ENDBRANCH   1   5
BRANCH   3  14
ATOM     14  C   UNK A   0      10.125  -1.196  22.518  0.00  0.00    +0.107 C 
BRANCH  14  15
ATOM     15  C   UNK A   0       9.596  -0.131  21.580  0.00  0.00    +0.129 C 
BRANCH  15  16
ATOM     16  C   UNK A   0       9.499   1.291  22.091  0.00  0.00    +0.305 C 
ATOM     17  O   UNK A   0       8.760   1.563  23.031  0.00  0.00    -0.251 OA
BRANCH  16  18
ATOM     18  O   UNK A   0      10.256   2.236  21.516  0.00  0.00    -0.481 OA
ATOM     19  H   UNK A   0      11.141   2.461  21.881  0.00  0.00    +0.295 HD
ENDBRANCH  16  18
ENDBRANCH  15  16
ENDBRANCH  14  15
ENDBRANCH   3  14
TORSDOF 10
ENDMDL
MODEL 8
REMARK VINA RESULT:      -4.7      3.954      7.310
REMARK  Name = 
REMARK  11 active torsions:
REMARK  status: ('A' for Active; 'I' for Inactive)
REMARK    1  A    between atoms: CA_2  and  CB_3
REMARK    2  A    between atoms: CA_2  and  N_7
REMARK    3  A    between atoms: CA_2  and  C_15
REMARK    4  A    between atoms: CB_3  and  CG_4
REMARK    5  A    between atoms: CG_4  and  SD_5
REMARK    6  A    between atoms: SD_5  and  CE_6
REMARK    7  A    between atoms: C_8  and  C_10
REMARK    8  A    between atoms: C_10  and  C_11
REMARK    9  A    between atoms: C_11  and  C_12
REMARK   10  A    between atoms: C_12  and  O_13
REMARK   11  A    between atoms: C_15  and  O_16
REMARK                            x       y       z     vdW  Elec       q    Type
REMARK                         _______ _______ _______ _____ _____    ______ ____
ROOT
ATOM      1  N   MET A   1       8.968   3.139  23.694  0.00  0.00    -0.302 N 
ATOM      2  H   MET A   1       9.846   2.881  24.135  0.00  0.00    +0.150 HD
ATOM      3  C   UNK A   0       8.654   4.472  23.607  0.00  0.00    +0.214 C 
ATOM      4  O   UNK A   0       7.809   4.943  22.854  0.00  0.00    -0.276 OA
ENDROOT
BRANCH   1   5
ATOM      5  CA  MET A   1       8.345   2.088  22.855  0.00  0.00    +0.182 C 
BRANCH   5   6
ATOM      6  C   MET A   1       9.348   1.513  21.835  0.00  0.00    +0.325 C 
ATOM      7  OXT MET A   1       9.197   0.461  21.230  0.00  0.00    -0.249 OA
BRANCH   6   8
ATOM      8  O   MET A   1      10.389   2.344  21.579  0.00  0.00    -0.479 OA
ATOM      9  H   MET A   1      11.227   1.849  21.629  0.00  0.00    +0.295 HD
ENDBRANCH   6   8
ENDBRANCH   5   6
BRANCH   5  10
ATOM     10  CB  MET A   1       7.641   0.959  23.626  0.00  0.00    +0.044 C 
BRANCH  10  11
ATOM     11  CG  MET A   1       8.281   0.590  24.964  0.00  0.00    +0.071 C 
BRANCH  11  12
ATOM     12  SD  MET A   1       9.277  -0.931  24.851  0.00  0.00    -0.164 S 
ATOM     13  CE  MET A   1       8.442  -1.897  26.135  0.00  0.00    +0.084 C 
ENDBRANCH  11  12
ENDBRANCH  10  11
ENDBRANCH   5  10
ENDBRANCH   1   5
BRANCH   3  14
ATOM     14  C   UNK A   0       9.457   5.389  24.488  0.00  0.00    +0.107 C 
BRANCH  14  15
ATOM     15  C   UNK A   0      10.606   6.008  23.719  0.00  0.00    +0.129 C 
BRANCH  15  16
ATOM     16  C   UNK A   0      11.929   5.273  23.688  0.00  0.00    +0.305 C 
ATOM     17  O   UNK A   0      11.987   4.117  23.284  0.00  0.00    -0.251 OA
BRANCH  16  18
ATOM     18  O   UNK A   0      13.035   5.920  24.083  0.00  0.00    -0.481 OA
ATOM     19  H   UNK A   0      13.075   6.355  24.963  0.00  0.00    +0.295 HD
ENDBRANCH  16  18
ENDBRANCH  15  16
ENDBRANCH  14  15
ENDBRANCH   3  14
TORSDOF 10
ENDMDL
MODEL 9
REMARK VINA RESULT:      -4.6      2.217      2.787
REMARK  Name = 
REMARK  11 active torsions:
REMARK  status: ('A' for Active; 'I' for Inactive)
REMARK    1  A    between atoms: CA_2  and  CB_3
REMARK    2  A    between atoms: CA_2  and  N_7
REMARK    3  A    between atoms: CA_2  and  C_15
REMARK    4  A    between atoms: CB_3  and  CG_4
REMARK    5  A    between atoms: CG_4  and  SD_5
REMARK    6  A    between atoms: SD_5  and  CE_6
REMARK    7  A    between atoms: C_8  and  C_10
REMARK    8  A    between atoms: C_10  and  C_11
REMARK    9  A    between atoms: C_11  and  C_12
REMARK   10  A    between atoms: C_12  and  O_13
REMARK   11  A    between atoms: C_15  and  O_16
REMARK                            x       y       z     vdW  Elec       q    Type
REMARK                         _______ _______ _______ _____ _____    ______ ____
ROOT
ATOM      1  N   MET A   1       8.405  -2.656  23.141  0.00  0.00    -0.302 N 
ATOM      2  H   MET A   1       8.917  -2.754  24.012  0.00  0.00    +0.150 HD
ATOM      3  C   UNK A   0       7.557  -3.670  22.770  0.00  0.00    +0.214 C 
ATOM      4  O   UNK A   0       6.667  -3.566  21.933  0.00  0.00    -0.276 OA
ENDROOT
BRANCH   1   5
ATOM      5  CA  MET A   1       8.331  -1.279  22.598  0.00  0.00    +0.182 C 
BRANCH   5   6
ATOM      6  C   MET A   1       7.385  -0.393  23.433  0.00  0.00    +0.325 C 
ATOM      7  OXT MET A   1       7.549  -0.127  24.616  0.00  0.00    -0.249 OA
BRANCH   6   8
ATOM      8  O   MET A   1       6.389   0.166  22.704  0.00  0.00    -0.479 OA
ATOM      9  H   MET A   1       6.648   0.203  21.764  0.00  0.00    +0.295 HD
ENDBRANCH   6   8
ENDBRANCH   5   6
BRANCH   5  10
ATOM     10  CB  MET A   1       9.685  -0.581  22.382  0.00  0.00    +0.044 C 
BRANCH  10  11
ATOM     11  CG  MET A   1       9.602   0.828  21.796  0.00  0.00    +0.071 C 
BRANCH  11  12
ATOM     12  SD  MET A   1      10.207   2.090  22.962  0.00  0.00    -0.164 S 
ATOM     13  CE  MET A   1      10.853   0.987  24.244  0.00  0.00    +0.084 C 
ENDBRANCH  11  12
ENDBRANCH  10  11
ENDBRANCH   5  10
ENDBRANCH   1   5
BRANCH   3  14
ATOM     14  C   UNK A   0       7.744  -4.973  23.498  0.00  0.00    +0.107 C 
BRANCH  14  15
ATOM     15  C   UNK A   0       7.883  -4.743  24.989  0.00  0.00    +0.129 C 
BRANCH  15  16
ATOM     16  C   UNK A   0       9.265  -4.828  25.602  0.00  0.00    +0.305 C 
ATOM     17  O   UNK A   0      10.262  -4.804  24.890  0.00  0.00    -0.251 OA
BRANCH  16  18
ATOM     18  O   UNK A   0       9.374  -4.898  26.937  0.00  0.00    -0.481 OA
ATOM     19  H   UNK A   0       8.816  -5.521  27.454  0.00  0.00    +0.295 HD
ENDBRANCH  16  18
ENDBRANCH  15  16
ENDBRANCH  14  15
ENDBRANCH   3  14
TORSDOF 10
ENDMDL
