MODEL 1
REMARK VINA RESULT:      -6.3      0.000      0.000
REMARK  Name = 
REMARK  9 active torsions:
REMARK  status: ('A' for Active; 'I' for Inactive)
REMARK    1  A    between atoms: C_2  and  C_3
REMARK    2  A    between atoms: C_2  and  C_5
REMARK    3  A    between atoms: C_2  and  C_12
REMARK    4  A    between atoms: C_3  and  C_4
REMARK    5  A    between atoms: C_8  and  O_9
REMARK    6  A    between atoms: C_12  and  C_14
REMARK    7  A    between atoms: C_12  and  C_16
REMARK    8  A    between atoms: C_14  and  C_15
REMARK    9  A    between atoms: C_19  and  O_20
REMARK                            x       y       z     vdW  Elec       q    Type
REMARK                         _______ _______ _______ _____ _____    ______ ____
ROOT
ATOM      1  C   UNL     1       7.203  -3.032  24.326  0.00  0.00    +0.026 C 
ENDROOT
BRANCH   1   2
ATOM      2  C   UNL     1       6.513  -4.402  24.247  0.00  0.00    -0.043 A 
ATOM      3  C   UNL     1       5.970  -4.978  25.407  0.00  0.00    +0.007 A 
ATOM      4  C   UNL     1       5.126  -6.087  25.323  0.00  0.00    +0.045 A 
ATOM      5  C   UNL     1       4.814  -6.623  24.079  0.00  0.00    +0.117 A 
ATOM      6  C   UNL     1       5.416  -6.135  22.928  0.00  0.00    +0.045 A 
ATOM      7  C   UNL     1       6.277  -5.044  23.017  0.00  0.00    +0.007 A 
BRANCH   5   8
ATOM      8  O   UNL     1       3.876  -7.605  24.013  0.00  0.00    -0.507 OA
ATOM      9  H   UNL     1       4.013  -8.078  23.174  0.00  0.00    +0.292 HD
ENDBRANCH   5   8
ENDBRANCH   1   2
BRANCH   1  10
ATOM     10  C   UNL     1       6.221  -1.944  23.784  0.00  0.00    +0.005 C 
ATOM     11  C   UNL     1       5.779  -0.849  24.737  0.00  0.00    +0.004 C 
ENDBRANCH   1  10
BRANCH   1  12
ATOM     12  C   UNL     1       8.689  -3.008  23.796  0.00  0.00    +0.026 C 
BRANCH  12  13
ATOM     13  C   UNL     1       9.117  -1.619  23.226  0.00  0.00    -0.043 A 
ATOM     14  C   UNL     1       9.045  -1.349  21.845  0.00  0.00    +0.007 A 
ATOM     15  C   UNL     1       9.405  -0.093  21.321  0.00  0.00    +0.045 A 
ATOM     16  C   UNL     1       9.878   0.900  22.167  0.00  0.00    +0.117 A 
ATOM     17  C   UNL     1      10.005   0.657  23.521  0.00  0.00    +0.045 A 
ATOM     18  C   UNL     1       9.627  -0.587  24.039  0.00  0.00    +0.007 A 
BRANCH  16  19
ATOM     19  O   UNL     1      10.215   2.108  21.630  0.00  0.00    -0.507 OA
ATOM     20  H   UNL     1      10.800   2.568  22.254  0.00  0.00    +0.292 HD
ENDBRANCH  16  19
ENDBRANCH  12  13
BRANCH  12  21
ATOM     21  C   UNL     1       9.766  -3.547  24.779  0.00  0.00    +0.005 C 
ATOM     22  C   UNL     1       9.701  -4.995  25.218  0.00  0.00    +0.004 C 
ENDBRANCH  12  21
ENDBRANCH   1  12
TORSDOF 7
ENDMDL
MODEL 2
REMARK VINA RESULT:      -6.3      1.844      6.563
REMARK  Name = 
REMARK  9 active torsions:
REMARK  status: ('A' for Active; 'I' for Inactive)
REMARK    1  A    between atoms: C_2  and  C_3
REMARK    2  A    between atoms: C_2  and  C_5
REMARK    3  A    between atoms: C_2  and  C_12
REMARK    4  A    between atoms: C_3  and  C_4
REMARK    5  A    between atoms: C_8  and  O_9
REMARK    6  A    between atoms: C_12  and  C_14
REMARK    7  A    between atoms: C_12  and  C_16
REMARK    8  A    between atoms: C_14  and  C_15
REMARK    9  A    between atoms: C_19  and  O_20
REMARK                            x       y       z     vdW  Elec       q    Type
REMARK                         _______ _______ _______ _____ _____    ______ ____
ROOT
ATOM      1  C   UNL     1       6.832  -1.764  23.480  0.00  0.00    +0.026 C 
ENDROOT
BRANCH   1   2
ATOM      2  C   UNL     1       7.680  -0.735  22.720  0.00  0.00    -0.043 A 
ATOM      3  C   UNL     1       7.279   0.611  22.686  0.00  0.00    +0.007 A 
ATOM      4  C   UNL     1       8.149   1.602  22.225  0.00  0.00    +0.045 A 
ATOM      5  C   UNL     1       9.427   1.255  21.804  0.00  0.00    +0.117 A 
ATOM      6  C   UNL     1       9.811  -0.076  21.734  0.00  0.00    +0.045 A 
ATOM      7  C   UNL     1       8.932  -1.065  22.170  0.00  0.00    +0.007 A 
BRANCH   5   8
ATOM      8  O   UNL     1      10.302   2.250  21.502  0.00  0.00    -0.507 OA
ATOM      9  H   UNL     1      10.161   2.964  22.147  0.00  0.00    +0.292 HD
ENDBRANCH   5   8
ENDBRANCH   1   2
BRANCH   1  10
ATOM     10  C   UNL     1       6.636  -1.267  24.949  0.00  0.00    +0.005 C 
ATOM     11  C   UNL     1       5.221  -1.206  25.494  0.00  0.00    +0.004 C 
ENDBRANCH   1  10
BRANCH   1  12
ATOM     12  C   UNL     1       7.266  -3.266  23.267  0.00  0.00    +0.026 C 
BRANCH  12  13
ATOM     13  C   UNL     1       7.301  -4.091  24.592  0.00  0.00    -0.043 A 
ATOM     14  C   UNL     1       8.486  -4.205  25.344  0.00  0.00    +0.007 A 
ATOM     15  C   UNL     1       8.524  -4.926  26.552  0.00  0.00    +0.045 A 
ATOM     16  C   UNL     1       7.386  -5.576  27.007  0.00  0.00    +0.117 A 
ATOM     17  C   UNL     1       6.216  -5.523  26.274  0.00  0.00    +0.045 A 
ATOM     18  C   UNL     1       6.178  -4.789  25.083  0.00  0.00    +0.007 A 
BRANCH  16  19
ATOM     19  O   UNL     1       7.453  -6.262  28.183  0.00  0.00    -0.507 OA
ATOM     20  H   UNL     1       8.090  -5.815  28.765  0.00  0.00    +0.292 HD
ENDBRANCH  16  19
ENDBRANCH  12  13
BRANCH  12  21
ATOM     21  C   UNL     1       6.494  -4.043  22.163  0.00  0.00    +0.005 C 
ATOM     22  C   UNL     1       7.034  -5.377  21.688  0.00  0.00    +0.004 C 
ENDBRANCH  12  21
ENDBRANCH   1  12
TORSDOF 7
ENDMDL
MODEL 3
REMARK VINA RESULT:      -6.2      1.303      6.556
REMARK  Name = 
REMARK  9 active torsions:
REMARK  status: ('A' for Active; 'I' for Inactive)
REMARK    1  A    between atoms: C_2  and  C_3
REMARK    2  A    between atoms: C_2  and  C_5
REMARK    3  A    between atoms: C_2  and  C_12
REMARK    4  A    between atoms: C_3  and  C_4
REMARK    5  A    between atoms: C_8  and  O_9
REMARK    6  A    between atoms: C_12  and  C_14
REMARK    7  A    between atoms: C_12  and  C_16
REMARK    8  A    between atoms: C_14  and  C_15
REMARK    9  A    between atoms: C_19  and  O_20
REMARK                            x       y       z     vdW  Elec       q    Type
REMARK                         _______ _______ _______ _____ _____    ______ ____
ROOT
ATOM      1  C   UNL     1       8.937  -2.300  24.814  0.00  0.00    +0.026 C 
ENDROOT
BRANCH   1   2
ATOM      2  C   UNL     1       9.518  -1.145  23.986  0.00  0.00    -0.043 A 
ATOM      3  C   UNL     1       9.563  -1.244  22.585  0.00  0.00    +0.007 A 
ATOM      4  C   UNL     1       9.847  -0.124  21.801  0.00  0.00    +0.045 A 
ATOM      5  C   UNL     1      10.079   1.103  22.410  0.00  0.00    +0.117 A 
ATOM      6  C   UNL     1      10.138   1.206  23.792  0.00  0.00    +0.045 A 
ATOM      7  C   UNL     1       9.879   0.082  24.573  0.00  0.00    +0.007 A 
BRANCH   5   8
ATOM      8  O   UNL     1      10.205   2.204  21.623  0.00  0.00    -0.507 OA
ATOM      9  H   UNL     1       9.474   2.186  20.982  0.00  0.00    +0.292 HD
ENDBRANCH   5   8
ENDBRANCH   1   2
BRANCH   1  10
ATOM     10  C   UNL     1       9.697  -3.614  24.443  0.00  0.00    +0.005 C 
ATOM     11  C   UNL     1       9.723  -4.732  25.469  0.00  0.00    +0.004 C 
ENDBRANCH   1  10
BRANCH   1  12
ATOM     12  C   UNL     1       7.361  -2.354  24.860  0.00  0.00    +0.026 C 
BRANCH  12  13
ATOM     13  C   UNL     1       6.753  -3.446  23.924  0.00  0.00    -0.043 A 
ATOM     14  C   UNL     1       6.656  -3.236  22.534  0.00  0.00    +0.007 A 
ATOM     15  C   UNL     1       6.133  -4.222  21.677  0.00  0.00    +0.045 A 
ATOM     16  C   UNL     1       5.664  -5.418  22.201  0.00  0.00    +0.117 A 
ATOM     17  C   UNL     1       5.703  -5.641  23.564  0.00  0.00    +0.045 A 
ATOM     18  C   UNL     1       6.242  -4.665  24.411  0.00  0.00    +0.007 A 
BRANCH  16  19
ATOM     19  O   UNL     1       5.167  -6.356  21.345  0.00  0.00    -0.507 OA
ATOM     20  H   UNL     1       5.672  -6.312  20.516  0.00  0.00    +0.292 HD
ENDBRANCH  16  19
ENDBRANCH  12  13
BRANCH  12  21
ATOM     21  C   UNL     1       6.728  -2.441  26.278  0.00  0.00    +0.005 C 
ATOM     22  C   UNL     1       6.272  -1.166  26.959  0.00  0.00    +0.004 C 
ENDBRANCH  12  21
ENDBRANCH   1  12
TORSDOF 7
ENDMDL
MODEL 4
REMARK VINA RESULT:      -6.2      2.778      4.812
REMARK  Name = 
REMARK  9 active torsions:
REMARK  status: ('A' for Active; 'I' for Inactive)
REMARK    1  A    between atoms: C_2  and  C_3
REMARK    2  A    between atoms: C_2  and  C_5
REMARK    3  A    between atoms: C_2  and  C_12
REMARK    4  A    between atoms: C_3  and  C_4
REMARK    5  A    between atoms: C_8  and  O_9
REMARK    6  A    between atoms: C_12  and  C_14
REMARK    7  A    between atoms: C_12  and  C_16
REMARK    8  A    between atoms: C_14  and  C_15
REMARK    9  A    between atoms: C_19  and  O_20
REMARK                            x       y       z     vdW  Elec       q    Type
REMARK                         _______ _______ _______ _____ _____    ______ ____
ROOT
ATOM      1  C   UNL     1       7.858  -1.641  23.126  0.00  0.00    +0.026 C 
ENDROOT
BRANCH   1   2
ATOM      2  C   UNL     1       6.968  -2.834  22.752  0.00  0.00    -0.043 A 
ATOM      3  C   UNL     1       7.555  -4.029  22.302  0.00  0.00    +0.007 A 
ATOM      4  C   UNL     1       6.798  -5.198  22.197  0.00  0.00    +0.045 A 
ATOM      5  C   UNL     1       5.454  -5.183  22.549  0.00  0.00    +0.117 A 
ATOM      6  C   UNL     1       4.829  -3.996  22.900  0.00  0.00    +0.045 A 
ATOM      7  C   UNL     1       5.579  -2.825  22.979  0.00  0.00    +0.007 A 
BRANCH   5   8
ATOM      8  O   UNL     1       4.779  -6.363  22.580  0.00  0.00    -0.507 OA
ATOM      9  H   UNL     1       4.326  -6.459  21.725  0.00  0.00    +0.292 HD
ENDBRANCH   5   8
ENDBRANCH   1   2
BRANCH   1  10
ATOM     10  C   UNL     1       9.177  -1.718  22.292  0.00  0.00    +0.005 C 
ATOM     11  C   UNL     1       9.560  -0.511  21.455  0.00  0.00    +0.004 C 
ENDBRANCH   1  10
BRANCH   1  12
ATOM     12  C   UNL     1       7.986  -1.371  24.675  0.00  0.00    +0.026 C 
BRANCH  12  13
ATOM     13  C   UNL     1       7.900  -2.671  25.536  0.00  0.00    -0.043 A 
ATOM     14  C   UNL     1       6.792  -2.915  26.371  0.00  0.00    +0.007 A 
ATOM     15  C   UNL     1       6.691  -4.094  27.133  0.00  0.00    +0.045 A 
ATOM     16  C   UNL     1       7.715  -5.029  27.101  0.00  0.00    +0.117 A 
ATOM     17  C   UNL     1       8.838  -4.803  26.328  0.00  0.00    +0.045 A 
ATOM     18  C   UNL     1       8.925  -3.638  25.557  0.00  0.00    +0.007 A 
BRANCH  16  19
ATOM     19  O   UNL     1       7.587  -6.163  27.847  0.00  0.00    -0.507 OA
ATOM     20  H   UNL     1       7.143  -6.837  27.307  0.00  0.00    +0.292 HD
ENDBRANCH  16  19
ENDBRANCH  12  13
BRANCH  12  21
ATOM     21  C   UNL     1       9.204  -0.509  25.113  0.00  0.00    +0.005 C 
ATOM     22  C   UNL     1       9.168   0.987  24.877  0.00  0.00    +0.004 C 
ENDBRANCH  12  21
ENDBRANCH   1  12
TORSDOF 7
ENDMDL
MODEL 5
REMARK VINA RESULT:      -6.1      2.814      5.053
REMARK  Name = 
REMARK  9 active torsions:
REMARK  status: ('A' for Active; 'I' for Inactive)
REMARK    1  A    between atoms: C_2  and  C_3
REMARK    2  A    between atoms: C_2  and  C_5
REMARK    3  A    between atoms: C_2  and  C_12
REMARK    4  A    between atoms: C_3  and  C_4
REMARK    5  A    between atoms: C_8  and  O_9
REMARK    6  A    between atoms: C_12  and  C_14
REMARK    7  A    between atoms: C_12  and  C_16
REMARK    8  A    between atoms: C_14  and  C_15
REMARK    9  A    between atoms: C_19  and  O_20
REMARK                            x       y       z     vdW  Elec       q    Type
REMARK                         _______ _______ _______ _____ _____    ______ ____
ROOT
ATOM      1  C   UNL     1       9.032  -1.627  23.975  0.00  0.00    +0.026 C 
ENDROOT
BRANCH   1   2
ATOM      2  C   UNL     1       8.892  -2.774  24.986  0.00  0.00    -0.043 A 
ATOM      3  C   UNL     1       8.009  -2.644  26.071  0.00  0.00    +0.007 A 
ATOM      4  C   UNL     1       7.675  -3.751  26.854  0.00  0.00    +0.045 A 
ATOM      5  C   UNL     1       8.214  -4.995  26.554  0.00  0.00    +0.117 A 
ATOM      6  C   UNL     1       9.164  -5.130  25.551  0.00  0.00    +0.045 A 
ATOM      7  C   UNL     1       9.515  -4.020  24.788  0.00  0.00    +0.007 A 
BRANCH   5   8
ATOM      8  O   UNL     1       7.760  -6.080  27.235  0.00  0.00    -0.507 OA
ATOM      9  H   UNL     1       7.168  -5.754  27.935  0.00  0.00    +0.292 HD
ENDBRANCH   5   8
ENDBRANCH   1   2
BRANCH   1  10
ATOM     10  C   UNL     1       9.696  -0.406  24.689  0.00  0.00    +0.005 C 
ATOM     11  C   UNL     1      10.672   0.438  23.891  0.00  0.00    +0.004 C 
ENDBRANCH   1  10
BRANCH   1  12
ATOM     12  C   UNL     1       7.746  -1.355  23.102  0.00  0.00    +0.026 C 
BRANCH  12  13
ATOM     13  C   UNL     1       6.882  -2.633  22.862  0.00  0.00    -0.043 A 
ATOM     14  C   UNL     1       7.336  -3.668  22.022  0.00  0.00    +0.007 A 
ATOM     15  C   UNL     1       6.577  -4.835  21.817  0.00  0.00    +0.045 A 
ATOM     16  C   UNL     1       5.335  -4.969  22.420  0.00  0.00    +0.117 A 
ATOM     17  C   UNL     1       4.836  -3.954  23.215  0.00  0.00    +0.045 A 
ATOM     18  C   UNL     1       5.604  -2.804  23.431  0.00  0.00    +0.007 A 
BRANCH  16  19
ATOM     19  O   UNL     1       4.625  -6.113  22.205  0.00  0.00    -0.507 OA
ATOM     20  H   UNL     1       5.251  -6.850  22.110  0.00  0.00    +0.292 HD
ENDBRANCH  16  19
ENDBRANCH  12  13
BRANCH  12  21
ATOM     21  C   UNL     1       6.850  -0.172  23.568  0.00  0.00    +0.005 C 
ATOM     22  C   UNL     1       6.907   1.137  22.808  0.00  0.00    +0.004 C 
ENDBRANCH  12  21
ENDBRANCH   1  12
TORSDOF 7
ENDMDL
MODEL 6
REMARK VINA RESULT:      -6.0      2.132      6.195
REMARK  Name = 
REMARK  9 active torsions:
REMARK  status: ('A' for Active; 'I' for Inactive)
REMARK    1  A    between atoms: C_2  and  C_3
REMARK    2  A    between atoms: C_2  and  C_5
REMARK    3  A    between atoms: C_2  and  C_12
REMARK    4  A    between atoms: C_3  and  C_4
REMARK    5  A    between atoms: C_8  and  O_9
REMARK    6  A    between atoms: C_12  and  C_14
REMARK    7  A    between atoms: C_12  and  C_16
REMARK    8  A    between atoms: C_14  and  C_15
REMARK    9  A    between atoms: C_19  and  O_20
REMARK                            x       y       z     vdW  Elec       q    Type
REMARK                         _______ _______ _______ _____ _____    ______ ____
ROOT
ATOM      1  C   UNL     1       8.810  -2.945  23.782  0.00  0.00    +0.026 C 
ENDROOT
BRANCH   1   2
ATOM      2  C   UNL     1       9.390  -1.664  23.165  0.00  0.00    -0.043 A 
ATOM      3  C   UNL     1       9.120  -1.352  21.823  0.00  0.00    +0.007 A 
ATOM      4  C   UNL     1       9.416  -0.086  21.312  0.00  0.00    +0.045 A 
ATOM      5  C   UNL     1       9.977   0.877  22.142  0.00  0.00    +0.117 A 
ATOM      6  C   UNL     1      10.344   0.563  23.443  0.00  0.00    +0.045 A 
ATOM      7  C   UNL     1      10.070  -0.708  23.942  0.00  0.00    +0.007 A 
BRANCH   5   8
ATOM      8  O   UNL     1      10.118   2.142  21.664  0.00  0.00    -0.507 OA
ATOM      9  H   UNL     1      10.673   2.629  22.297  0.00  0.00    +0.292 HD
ENDBRANCH   5   8
ENDBRANCH   1   2
BRANCH   1  10
ATOM     10  C   UNL     1       7.658  -3.467  22.863  0.00  0.00    +0.005 C 
ATOM     11  C   UNL     1       7.366  -4.956  22.869  0.00  0.00    +0.004 C 
ENDBRANCH   1  10
BRANCH   1  12
ATOM     12  C   UNL     1       8.532  -2.866  25.333  0.00  0.00    +0.026 C 
BRANCH  12  13
ATOM     13  C   UNL     1       7.071  -2.434  25.675  0.00  0.00    -0.043 A 
ATOM     14  C   UNL     1       6.646  -1.104  25.487  0.00  0.00    +0.007 A 
ATOM     15  C   UNL     1       5.325  -0.707  25.769  0.00  0.00    +0.045 A 
ATOM     16  C   UNL     1       4.420  -1.626  26.279  0.00  0.00    +0.117 A 
ATOM     17  C   UNL     1       4.813  -2.929  26.519  0.00  0.00    +0.045 A 
ATOM     18  C   UNL     1       6.122  -3.323  26.218  0.00  0.00    +0.007 A 
BRANCH  16  19
ATOM     19  O   UNL     1       3.147  -1.212  26.538  0.00  0.00    -0.507 OA
ATOM     20  H   UNL     1       2.596  -1.996  26.700  0.00  0.00    +0.292 HD
ENDBRANCH  16  19
ENDBRANCH  12  13
BRANCH  12  21
ATOM     21  C   UNL     1       8.934  -4.122  26.157  0.00  0.00    +0.005 C 
ATOM     22  C   UNL     1       9.880  -5.133  25.542  0.00  0.00    +0.004 C 
ENDBRANCH  12  21
ENDBRANCH   1  12
TORSDOF 7
ENDMDL
MODEL 7
REMARK VINA RESULT:      -6.0      1.114      2.831
REMARK  Name = 
REMARK  9 active torsions:
REMARK  status: ('A' for Active; 'I' for Inactive)
REMARK    1  A    between atoms: C_2  and  C_3
REMARK    2  A    between atoms: C_2  and  C_5
REMARK    3  A    between atoms: C_2  and  C_12
REMARK    4  A    between atoms: C_3  and  C_4
REMARK    5  A    between atoms: C_8  and  O_9
REMARK    6  A    between atoms: C_12  and  C_14
REMARK    7  A    between atoms: C_12  and  C_16
REMARK    8  A    between atoms: C_14  and  C_15
REMARK    9  A    between atoms: C_19  and  O_20
REMARK                            x       y       z     vdW  Elec       q    Type
REMARK                         _______ _______ _______ _____ _____    ______ ____
ROOT
ATOM      1  C   UNL     1       8.708  -3.457  24.222  0.00  0.00    +0.026 C 
ENDROOT
BRANCH   1   2
ATOM      2  C   UNL     1       7.390  -4.054  23.709  0.00  0.00    -0.043 A 
ATOM      3  C   UNL     1       7.020  -3.878  22.365  0.00  0.00    +0.007 A 
ATOM      4  C   UNL     1       5.968  -4.614  21.814  0.00  0.00    +0.045 A 
ATOM      5  C   UNL     1       5.285  -5.533  22.599  0.00  0.00    +0.117 A 
ATOM      6  C   UNL     1       5.565  -5.653  23.953  0.00  0.00    +0.045 A 
ATOM      7  C   UNL     1       6.598  -4.900  24.506  0.00  0.00    +0.007 A 
BRANCH   5   8
ATOM      8  O   UNL     1       4.367  -6.340  22.003  0.00  0.00    -0.507 OA
ATOM      9  H   UNL     1       4.705  -6.555  21.117  0.00  0.00    +0.292 HD
ENDBRANCH   5   8
ENDBRANCH   1   2
BRANCH   1  10
ATOM     10  C   UNL     1       9.487  -4.561  25.006  0.00  0.00    +0.005 C 
ATOM     11  C   UNL     1       9.375  -4.569  26.519  0.00  0.00    +0.004 C 
ENDBRANCH   1  10
BRANCH   1  12
ATOM     12  C   UNL     1       8.573  -2.037  24.895  0.00  0.00    +0.026 C 
BRANCH  12  13
ATOM     13  C   UNL     1       9.059  -0.871  23.978  0.00  0.00    -0.043 A 
ATOM     14  C   UNL     1       9.407   0.382  24.520  0.00  0.00    +0.007 A 
ATOM     15  C   UNL     1       9.869   1.433  23.707  0.00  0.00    +0.045 A 
ATOM     16  C   UNL     1       9.954   1.260  22.333  0.00  0.00    +0.117 A 
ATOM     17  C   UNL     1       9.578   0.060  21.760  0.00  0.00    +0.045 A 
ATOM     18  C   UNL     1       9.138  -0.989  22.576  0.00  0.00    +0.007 A 
BRANCH  16  19
ATOM     19  O   UNL     1      10.409   2.295  21.572  0.00  0.00    -0.507 OA
ATOM     20  H   UNL     1      11.295   2.540  21.885  0.00  0.00    +0.292 HD
ENDBRANCH  16  19
ENDBRANCH  12  13
BRANCH  12  21
ATOM     21  C   UNL     1       7.180  -1.706  25.503  0.00  0.00    +0.005 C 
ATOM     22  C   UNL     1       6.157  -0.987  24.648  0.00  0.00    +0.004 C 
ENDBRANCH  12  21
ENDBRANCH   1  12
TORSDOF 7
ENDMDL
MODEL 8
REMARK VINA RESULT:      -5.9      2.194      6.930
REMARK  Name = 
REMARK  9 active torsions:
REMARK  status: ('A' for Active; 'I' for Inactive)
REMARK    1  A    between atoms: C_2  and  C_3
REMARK    2  A    between atoms: C_2  and  C_5
REMARK    3  A    between atoms: C_2  and  C_12
REMARK    4  A    between atoms: C_3  and  C_4
REMARK    5  A    between atoms: C_8  and  O_9
REMARK    6  A    between atoms: C_12  and  C_14
REMARK    7  A    between atoms: C_12  and  C_16
REMARK    8  A    between atoms: C_14  and  C_15
REMARK    9  A    between atoms: C_19  and  O_20
REMARK                            x       y       z     vdW  Elec       q    Type
REMARK                         _______ _______ _______ _____ _____    ______ ____
ROOT
ATOM      1  C   UNL     1       9.429  -0.728  23.956  0.00  0.00    +0.026 C 
ENDROOT
BRANCH   1   2
ATOM      2  C   UNL     1       9.499   0.804  24.024  0.00  0.00    -0.043 A 
ATOM      3  C   UNL     1      10.735   1.453  23.870  0.00  0.00    +0.007 A 
ATOM      4  C   UNL     1      10.795   2.835  23.676  0.00  0.00    +0.045 A 
ATOM      5  C   UNL     1       9.620   3.575  23.628  0.00  0.00    +0.117 A 
ATOM      6  C   UNL     1       8.395   2.973  23.877  0.00  0.00    +0.045 A 
ATOM      7  C   UNL     1       8.340   1.598  24.095  0.00  0.00    +0.007 A 
BRANCH   5   8
ATOM      8  O   UNL     1       9.695   4.890  23.291  0.00  0.00    -0.507 OA
ATOM      9  H   UNL     1      10.560   5.030  22.870  0.00  0.00    +0.292 HD
ENDBRANCH   5   8
ENDBRANCH   1   2
BRANCH   1  10
ATOM     10  C   UNL     1       9.875  -1.188  22.530  0.00  0.00    +0.005 C 
ATOM     11  C   UNL     1       9.364  -0.400  21.339  0.00  0.00    +0.004 C 
ENDBRANCH   1  10
BRANCH   1  12
ATOM     12  C   UNL     1       8.108  -1.357  24.548  0.00  0.00    +0.026 C 
BRANCH  12  13
ATOM     13  C   UNL     1       7.489  -2.462  23.635  0.00  0.00    -0.043 A 
ATOM     14  C   UNL     1       6.394  -2.179  22.796  0.00  0.00    +0.007 A 
ATOM     15  C   UNL     1       5.842  -3.161  21.951  0.00  0.00    +0.045 A 
ATOM     16  C   UNL     1       6.353  -4.450  21.961  0.00  0.00    +0.117 A 
ATOM     17  C   UNL     1       7.399  -4.776  22.804  0.00  0.00    +0.045 A 
ATOM     18  C   UNL     1       7.957  -3.792  23.628  0.00  0.00    +0.007 A 
BRANCH  16  19
ATOM     19  O   UNL     1       5.800  -5.377  21.128  0.00  0.00    -0.507 OA
ATOM     20  H   UNL     1       4.988  -5.004  20.749  0.00  0.00    +0.292 HD
ENDBRANCH  16  19
ENDBRANCH  12  13
BRANCH  12  21
ATOM     21  C   UNL     1       8.196  -1.853  26.019  0.00  0.00    +0.005 C 
ATOM     22  C   UNL     1       8.755  -0.923  27.076  0.00  0.00    +0.004 C 
ENDBRANCH  12  21
ENDBRANCH   1  12
TORSDOF 7
ENDMDL
MODEL 9
REMARK VINA RESULT:      -5.8      1.931      3.330
REMARK  Name = 
REMARK  9 active torsions:
REMARK  status: ('A' for Active; 'I' for Inactive)
REMARK    1  A    between atoms: C_2  and  C_3
REMARK    2  A    between atoms: C_2  and  C_5
REMARK    3  A    between atoms: C_2  and  C_12
REMARK    4  A    between atoms: C_3  and  C_4
REMARK    5  A    between atoms: C_8  and  O_9
REMARK    6  A    between atoms: C_12  and  C_14
REMARK    7  A    between atoms: C_12  and  C_16
REMARK    8  A    between atoms: C_14  and  C_15
REMARK    9  A    between atoms: C_19  and  O_20
REMARK                            x       y       z     vdW  Elec       q    Type
REMARK                         _______ _______ _______ _____ _____    ______ ____
ROOT
ATOM      1  C   UNL     1       6.999  -4.804  25.558  0.00  0.00    +0.026 C 
ENDROOT
BRANCH   1   2
ATOM      2  C   UNL     1       6.693  -5.269  24.126  0.00  0.00    -0.043 A 
ATOM      3  C   UNL     1       5.376  -5.212  23.641  0.00  0.00    +0.007 A 
ATOM      4  C   UNL     1       5.110  -5.386  22.281  0.00  0.00    +0.045 A 
ATOM      5  C   UNL     1       6.159  -5.608  21.398  0.00  0.00    +0.117 A 
ATOM      6  C   UNL     1       7.455  -5.767  21.865  0.00  0.00    +0.045 A 
ATOM      7  C   UNL     1       7.715  -5.619  23.225  0.00  0.00    +0.007 A 
BRANCH   5   8
ATOM      8  O   UNL     1       5.891  -5.625  20.065  0.00  0.00    -0.507 OA
ATOM      9  H   UNL     1       5.019  -5.213  19.941  0.00  0.00    +0.292 HD
ENDBRANCH   5   8
ENDBRANCH   1   2
BRANCH   1  10
ATOM     10  C   UNL     1       6.030  -5.537  26.541  0.00  0.00    +0.005 C 
ATOM     11  C   UNL     1       6.459  -5.673  27.990  0.00  0.00    +0.004 C 
ENDBRANCH   1  10
BRANCH   1  12
ATOM     12  C   UNL     1       7.171  -3.245  25.724  0.00  0.00    +0.026 C 
BRANCH  12  13
ATOM     13  C   UNL     1       7.921  -2.576  24.529  0.00  0.00    -0.043 A 
ATOM     14  C   UNL     1       9.323  -2.655  24.417  0.00  0.00    +0.007 A 
ATOM     15  C   UNL     1      10.007  -2.077  23.332  0.00  0.00    +0.045 A 
ATOM     16  C   UNL     1       9.304  -1.378  22.362  0.00  0.00    +0.117 A 
ATOM     17  C   UNL     1       7.932  -1.242  22.462  0.00  0.00    +0.045 A 
ATOM     18  C   UNL     1       7.254  -1.835  23.533  0.00  0.00    +0.007 A 
BRANCH  16  19
ATOM     19  O   UNL     1       9.995  -0.833  21.321  0.00  0.00    -0.507 OA
ATOM     20  H   UNL     1      10.705  -1.447  21.068  0.00  0.00    +0.292 HD
ENDBRANCH  16  19
ENDBRANCH  12  13
BRANCH  12  21
ATOM     21  C   UNL     1       5.876  -2.454  26.064  0.00  0.00    +0.005 C 
ATOM     22  C   UNL     1       5.954  -1.301  27.044  0.00  0.00    +0.004 C 
ENDBRANCH  12  21
ENDBRANCH   1  12
TORSDOF 7
ENDMDL
