MODEL 1
REMARK VINA RESULT:      -7.3      0.000      0.000
REMARK  Name = 
REMARK  4 active torsions:
REMARK  status: ('A' for Active; 'I' for Inactive)
REMARK    1  A    between atoms: C_1  and  C_2
REMARK    2  A    between atoms: C_2  and  N_3
REMARK    3  A    between atoms: C_4  and  C_6
REMARK    4  A    between atoms: C_9  and  C_16
REMARK                            x       y       z     vdW  Elec       q    Type
REMARK                         _______ _______ _______ _____ _____    ______ ____
ROOT
ATOM      1  C   UNL     1       8.550  -0.994  22.617  0.00  0.00    +0.076 A 
ATOM      2  S   UNL     1       9.996  -1.559  23.329  0.00  0.00    -0.064 S 
ATOM      3  C   UNL     1       9.251  -2.990  23.867  0.00  0.00    +0.115 A 
ATOM      4  C   UNL     1       7.910  -3.073  23.520  0.00  0.00    +0.035 A 
ATOM      5  C   UNL     1       7.222  -4.181  24.060  0.00  0.00    +0.086 A 
ATOM      6  N   UNL     1       7.944  -5.108  24.757  0.00  0.00    -0.214 NA
ATOM      7  C   UNL     1       9.247  -4.925  24.973  0.00  0.00    +0.214 A 
ATOM      8  N   UNL     1       9.928  -5.921  25.637  0.00  0.00    -0.327 N 
ATOM      9  H   UNL     1      10.911  -5.892  25.400  0.00  0.00    +0.145 HD
ATOM     10  H   UNL     1       9.451  -6.804  25.533  0.00  0.00    +0.145 HD
ATOM     11  N   UNL     1       9.958  -3.883  24.570  0.00  0.00    -0.207 NA
ATOM     12  C   UNL     1       7.570  -1.970  22.663  0.00  0.00    +0.033 A 
ENDROOT
BRANCH   5  13
ATOM     13  C   UNL     1       5.779  -4.478  23.890  0.00  0.00    +0.020 A 
ATOM     14  C   UNL     1       4.854  -3.737  24.667  0.00  0.00    +0.013 A 
ATOM     15  C   UNL     1       3.472  -3.948  24.597  0.00  0.00    +0.021 A 
ATOM     16  C   UNL     1       2.973  -4.943  23.771  0.00  0.00    +0.042 A 
ATOM     17 CL   UNL     1       1.281  -5.240  23.704  0.00  0.00    -0.083 Cl
ATOM     18  C   UNL     1       3.837  -5.670  22.964  0.00  0.00    +0.040 A 
ATOM     19  C   UNL     1       5.217  -5.399  22.980  0.00  0.00    +0.052 A 
ATOM     20 CL   UNL     1       6.114  -6.142  21.696  0.00  0.00    -0.083 Cl
ENDBRANCH   5  13
BRANCH   1  23
ATOM     21  N   UNL     1       7.365   1.089  22.551  0.00  0.00    -0.311 N 
ATOM     22  H   UNL     1       6.801   0.685  23.290  0.00  0.00    +0.149 HD
ATOM     23  C   UNL     1       8.425   0.351  22.069  0.00  0.00    +0.251 C 
ATOM     24  O   UNL     1       9.184   0.790  21.209  0.00  0.00    -0.270 OA
BRANCH  21  26
ATOM     25  C   UNL     1       7.708   3.481  22.934  0.00  0.00    +0.024 C 
ATOM     26  C   UNL     1       7.047   2.417  22.081  0.00  0.00    +0.101 C 
ENDBRANCH  21  26
ENDBRANCH   1  23
TORSDOF 3
ENDMDL
MODEL 2
REMARK VINA RESULT:      -7.0      2.836      3.789
REMARK  Name = 
REMARK  4 active torsions:
REMARK  status: ('A' for Active; 'I' for Inactive)
REMARK    1  A    between atoms: C_1  and  C_2
REMARK    2  A    between atoms: C_2  and  N_3
REMARK    3  A    between atoms: C_4  and  C_6
REMARK    4  A    between atoms: C_9  and  C_16
REMARK                            x       y       z     vdW  Elec       q    Type
REMARK                         _______ _______ _______ _____ _____    ______ ____
ROOT
ATOM      1  C   UNL     1       8.320  -4.063  24.839  0.00  0.00    +0.076 A 
ATOM      2  S   UNL     1       8.858  -4.482  26.404  0.00  0.00    -0.064 S 
ATOM      3  C   UNL     1       7.447  -5.376  26.723  0.00  0.00    +0.115 A 
ATOM      4  C   UNL     1       6.550  -5.380  25.665  0.00  0.00    +0.035 A 
ATOM      5  C   UNL     1       5.311  -5.999  25.935  0.00  0.00    +0.086 A 
ATOM      6  N   UNL     1       5.154  -6.624  27.140  0.00  0.00    -0.214 NA
ATOM      7  C   UNL     1       6.125  -6.583  28.053  0.00  0.00    +0.214 A 
ATOM      8  N   UNL     1       5.926  -7.276  29.226  0.00  0.00    -0.327 N 
ATOM      9  H   UNL     1       6.814  -7.520  29.645  0.00  0.00    +0.145 HD
ATOM     10  H   UNL     1       5.258  -8.020  29.088  0.00  0.00    +0.145 HD
ATOM     11  N   UNL     1       7.289  -5.965  27.915  0.00  0.00    -0.207 NA
ATOM     12  C   UNL     1       7.151  -4.737  24.528  0.00  0.00    +0.033 A 
ENDROOT
BRANCH   5  13
ATOM     13  C   UNL     1       4.162  -6.096  25.002  0.00  0.00    +0.020 A 
ATOM     14  C   UNL     1       3.622  -7.381  24.748  0.00  0.00    +0.013 A 
ATOM     15  C   UNL     1       2.549  -7.587  23.872  0.00  0.00    +0.021 A 
ATOM     16  C   UNL     1       2.006  -6.509  23.190  0.00  0.00    +0.042 A 
ATOM     17 CL   UNL     1       0.714  -6.753  22.083  0.00  0.00    -0.083 Cl
ATOM     18  C   UNL     1       2.478  -5.227  23.434  0.00  0.00    +0.040 A 
ATOM     19  C   UNL     1       3.502  -5.017  24.374  0.00  0.00    +0.052 A 
ATOM     20 CL   UNL     1       3.751  -3.358  24.813  0.00  0.00    -0.083 Cl
ENDBRANCH   5  13
BRANCH   1  23
ATOM     21  N   UNL     1       8.231  -2.202  23.329  0.00  0.00    -0.311 N 
ATOM     22  H   UNL     1       7.236  -2.218  23.515  0.00  0.00    +0.149 HD
ATOM     23  C   UNL     1       9.029  -3.104  24.001  0.00  0.00    +0.251 C 
ATOM     24  O   UNL     1      10.250  -3.117  23.868  0.00  0.00    -0.270 OA
BRANCH  21  26
ATOM     25  C   UNL     1       8.063   0.120  22.578  0.00  0.00    +0.024 C 
ATOM     26  C   UNL     1       8.752  -1.220  22.408  0.00  0.00    +0.101 C 
ENDBRANCH  21  26
ENDBRANCH   1  23
TORSDOF 3
ENDMDL
MODEL 3
REMARK VINA RESULT:      -6.6      6.069      7.958
REMARK  Name = 
REMARK  4 active torsions:
REMARK  status: ('A' for Active; 'I' for Inactive)
REMARK    1  A    between atoms: C_1  and  C_2
REMARK    2  A    between atoms: C_2  and  N_3
REMARK    3  A    between atoms: C_4  and  C_6
REMARK    4  A    between atoms: C_9  and  C_16
REMARK                            x       y       z     vdW  Elec       q    Type
REMARK                         _______ _______ _______ _____ _____    ______ ____
ROOT
ATOM      1  C   UNL     1       7.151   5.332  23.447  0.00  0.00    +0.076 A 
ATOM      2  S   UNL     1       8.302   6.593  23.472  0.00  0.00    -0.064 S 
ATOM      3  C   UNL     1       9.602   5.498  23.431  0.00  0.00    +0.115 A 
ATOM      4  C   UNL     1       9.200   4.171  23.395  0.00  0.00    +0.035 A 
ATOM      5  C   UNL     1      10.246   3.228  23.493  0.00  0.00    +0.086 A 
ATOM      6  N   UNL     1      11.531   3.692  23.497  0.00  0.00    -0.214 NA
ATOM      7  C   UNL     1      11.775   5.002  23.478  0.00  0.00    +0.214 A 
ATOM      8  N   UNL     1      13.092   5.403  23.430  0.00  0.00    -0.327 N 
ATOM      9  H   UNL     1      13.163   6.327  23.021  0.00  0.00    +0.145 HD
ATOM     10  H   UNL     1      13.668   4.676  23.034  0.00  0.00    +0.145 HD
ATOM     11  N   UNL     1      10.859   5.959  23.459  0.00  0.00    -0.207 NA
ATOM     12  C   UNL     1       7.771   4.110  23.250  0.00  0.00    +0.033 A 
ENDROOT
BRANCH   5  13
ATOM     13  C   UNL     1      10.090   1.754  23.531  0.00  0.00    +0.020 A 
ATOM     14  C   UNL     1      10.390   1.087  24.745  0.00  0.00    +0.013 A 
ATOM     15  C   UNL     1      10.292  -0.303  24.885  0.00  0.00    +0.021 A 
ATOM     16  C   UNL     1       9.927  -1.076  23.794  0.00  0.00    +0.042 A 
ATOM     17 CL   UNL     1       9.841  -2.786  23.941  0.00  0.00    -0.083 Cl
ATOM     18  C   UNL     1       9.588  -0.465  22.595  0.00  0.00    +0.040 A 
ATOM     19  C   UNL     1       9.611   0.937  22.484  0.00  0.00    +0.052 A 
ATOM     20 CL   UNL     1       8.852   1.561  21.056  0.00  0.00    -0.083 Cl
ENDBRANCH   5  13
BRANCH   1  23
ATOM     21  N   UNL     1       4.962   5.521  22.486  0.00  0.00    -0.311 N 
ATOM     22  H   UNL     1       5.419   5.253  21.623  0.00  0.00    +0.149 HD
ATOM     23  C   UNL     1       5.726   5.573  23.633  0.00  0.00    +0.251 C 
ATOM     24  O   UNL     1       5.237   5.841  24.727  0.00  0.00    -0.270 OA
BRANCH  21  26
ATOM     25  C   UNL     1       3.219   6.973  21.572  0.00  0.00    +0.024 C 
ATOM     26  C   UNL     1       3.544   5.794  22.467  0.00  0.00    +0.101 C 
ENDBRANCH  21  26
ENDBRANCH   1  23
TORSDOF 3
ENDMDL
MODEL 4
REMARK VINA RESULT:      -6.4      3.289      3.820
REMARK  Name = 
REMARK  4 active torsions:
REMARK  status: ('A' for Active; 'I' for Inactive)
REMARK    1  A    between atoms: C_1  and  C_2
REMARK    2  A    between atoms: C_2  and  N_3
REMARK    3  A    between atoms: C_4  and  C_6
REMARK    4  A    between atoms: C_9  and  C_16
REMARK                            x       y       z     vdW  Elec       q    Type
REMARK                         _______ _______ _______ _____ _____    ______ ____
ROOT
ATOM      1  C   UNL     1       8.257  -1.698  24.182  0.00  0.00    +0.076 A 
ATOM      2  S   UNL     1       8.279  -2.120  22.528  0.00  0.00    -0.064 S 
ATOM      3  C   UNL     1       7.348  -3.515  22.802  0.00  0.00    +0.115 A 
ATOM      4  C   UNL     1       7.000  -3.690  24.134  0.00  0.00    +0.035 A 
ATOM      5  C   UNL     1       6.341  -4.903  24.425  0.00  0.00    +0.086 A 
ATOM      6  N   UNL     1       6.008  -5.720  23.381  0.00  0.00    -0.214 NA
ATOM      7  C   UNL     1       6.364  -5.402  22.136  0.00  0.00    +0.214 A 
ATOM      8  N   UNL     1       5.953  -6.240  21.123  0.00  0.00    -0.327 N 
ATOM      9  H   UNL     1       5.907  -5.736  20.247  0.00  0.00    +0.145 HD
ATOM     10  H   UNL     1       5.134  -6.758  21.404  0.00  0.00    +0.145 HD
ATOM     11  N   UNL     1       7.046  -4.324  21.778  0.00  0.00    -0.207 NA
ATOM     12  C   UNL     1       7.413  -2.537  24.888  0.00  0.00    +0.033 A 
ENDROOT
BRANCH   5  13
ATOM     13  C   UNL     1       5.909  -5.360  25.767  0.00  0.00    +0.020 A 
ATOM     14  C   UNL     1       4.578  -5.827  25.911  0.00  0.00    +0.013 A 
ATOM     15  C   UNL     1       4.063  -6.267  27.137  0.00  0.00    +0.021 A 
ATOM     16  C   UNL     1       4.858  -6.214  28.271  0.00  0.00    +0.042 A 
ATOM     17 CL   UNL     1       4.225  -6.714  29.790  0.00  0.00    -0.083 Cl
ATOM     18  C   UNL     1       6.178  -5.799  28.172  0.00  0.00    +0.040 A 
ATOM     19  C   UNL     1       6.714  -5.434  26.924  0.00  0.00    +0.052 A 
ATOM     20 CL   UNL     1       8.439  -5.264  26.901  0.00  0.00    -0.083 Cl
ENDBRANCH   5  13
BRANCH   1  23
ATOM     21  N   UNL     1       9.516   0.305  23.788  0.00  0.00    -0.311 N 
ATOM     22  H   UNL     1       9.213   0.196  22.828  0.00  0.00    +0.149 HD
ATOM     23  C   UNL     1       9.056  -0.603  24.719  0.00  0.00    +0.251 C 
ATOM     24  O   UNL     1       9.337  -0.511  25.911  0.00  0.00    -0.270 OA
BRANCH  21  26
ATOM     25  C   UNL     1       9.636   2.738  24.008  0.00  0.00    +0.024 C 
ATOM     26  C   UNL     1      10.371   1.418  24.126  0.00  0.00    +0.101 C 
ENDBRANCH  21  26
ENDBRANCH   1  23
TORSDOF 3
ENDMDL
MODEL 5
REMARK VINA RESULT:      -6.1      3.380      4.649
REMARK  Name = 
REMARK  4 active torsions:
REMARK  status: ('A' for Active; 'I' for Inactive)
REMARK    1  A    between atoms: C_1  and  C_2
REMARK    2  A    between atoms: C_2  and  N_3
REMARK    3  A    between atoms: C_4  and  C_6
REMARK    4  A    between atoms: C_9  and  C_16
REMARK                            x       y       z     vdW  Elec       q    Type
REMARK                         _______ _______ _______ _____ _____    ______ ____
ROOT
ATOM      1  C   UNL     1       8.964   1.741  23.893  0.00  0.00    +0.076 A 
ATOM      2  S   UNL     1       7.921   2.632  24.910  0.00  0.00    -0.064 S 
ATOM      3  C   UNL     1       6.900   1.293  25.147  0.00  0.00    +0.115 A 
ATOM      4  C   UNL     1       7.321   0.156  24.473  0.00  0.00    +0.035 A 
ATOM      5  C   UNL     1       6.432  -0.938  24.536  0.00  0.00    +0.086 A 
ATOM      6  N   UNL     1       5.325  -0.823  25.329  0.00  0.00    -0.214 NA
ATOM      7  C   UNL     1       5.068   0.321  25.964  0.00  0.00    +0.214 A 
ATOM      8  N   UNL     1       3.965   0.356  26.789  0.00  0.00    -0.327 N 
ATOM      9  H   UNL     1       4.080   1.067  27.500  0.00  0.00    +0.145 HD
ATOM     10  H   UNL     1       3.726  -0.574  27.098  0.00  0.00    +0.145 HD
ATOM     11  N   UNL     1       5.804   1.421  25.906  0.00  0.00    -0.207 NA
ATOM     12  C   UNL     1       8.606   0.404  23.877  0.00  0.00    +0.033 A 
ENDROOT
BRANCH   5  13
ATOM     13  C   UNL     1       6.613  -2.249  23.866  0.00  0.00    +0.020 A 
ATOM     14  C   UNL     1       5.922  -2.471  22.649  0.00  0.00    +0.013 A 
ATOM     15  C   UNL     1       6.010  -3.677  21.942  0.00  0.00    +0.021 A 
ATOM     16  C   UNL     1       6.766  -4.718  22.458  0.00  0.00    +0.042 A 
ATOM     17 CL   UNL     1       6.851  -6.217  21.622  0.00  0.00    -0.083 Cl
ATOM     18  C   UNL     1       7.490  -4.534  23.628  0.00  0.00    +0.040 A 
ATOM     19  C   UNL     1       7.461  -3.294  24.291  0.00  0.00    +0.052 A 
ATOM     20 CL   UNL     1       8.659  -3.110  25.530  0.00  0.00    -0.083 Cl
ENDBRANCH   5  13
BRANCH   1  23
ATOM     21  N   UNL     1      10.715   3.378  23.817  0.00  0.00    -0.311 N 
ATOM     22  H   UNL     1      10.454   3.566  24.778  0.00  0.00    +0.149 HD
ATOM     23  C   UNL     1      10.054   2.366  23.154  0.00  0.00    +0.251 C 
ATOM     24  O   UNL     1      10.344   2.045  22.004  0.00  0.00    -0.270 OA
BRANCH  21  26
ATOM     25  C   UNL     1      11.635   5.627  23.536  0.00  0.00    +0.024 C 
ATOM     26  C   UNL     1      11.779   4.151  23.221  0.00  0.00    +0.101 C 
ENDBRANCH  21  26
ENDBRANCH   1  23
TORSDOF 3
ENDMDL
MODEL 6
REMARK VINA RESULT:      -6.1      5.342      7.082
REMARK  Name = 
REMARK  4 active torsions:
REMARK  status: ('A' for Active; 'I' for Inactive)
REMARK    1  A    between atoms: C_1  and  C_2
REMARK    2  A    between atoms: C_2  and  N_3
REMARK    3  A    between atoms: C_4  and  C_6
REMARK    4  A    between atoms: C_9  and  C_16
REMARK                            x       y       z     vdW  Elec       q    Type
REMARK                         _______ _______ _______ _____ _____    ______ ____
ROOT
ATOM      1  C   UNL     1       5.311   3.391  22.804  0.00  0.00    +0.076 A 
ATOM      2  S   UNL     1       6.076   4.913  22.915  0.00  0.00    -0.064 S 
ATOM      3  C   UNL     1       7.589   4.204  23.234  0.00  0.00    +0.115 A 
ATOM      4  C   UNL     1       7.550   2.818  23.260  0.00  0.00    +0.035 A 
ATOM      5  C   UNL     1       8.754   2.195  23.651  0.00  0.00    +0.086 A 
ATOM      6  N   UNL     1       9.852   2.984  23.849  0.00  0.00    -0.214 NA
ATOM      7  C   UNL     1       9.757   4.310  23.741  0.00  0.00    +0.214 A 
ATOM      8  N   UNL     1      10.911   5.045  23.901  0.00  0.00    -0.327 N 
ATOM      9  H   UNL     1      10.832   5.932  23.419  0.00  0.00    +0.145 HD
ATOM     10  H   UNL     1      11.721   4.479  23.699  0.00  0.00    +0.145 HD
ATOM     11  N   UNL     1       8.655   4.985  23.451  0.00  0.00    -0.207 NA
ATOM     12  C   UNL     1       6.245   2.370  22.855  0.00  0.00    +0.033 A 
ENDROOT
BRANCH   5  13
ATOM     13  C   UNL     1       8.969   0.736  23.812  0.00  0.00    +0.020 A 
ATOM     14  C   UNL     1       8.738   0.169  25.090  0.00  0.00    +0.013 A 
ATOM     15  C   UNL     1       8.926  -1.193  25.354  0.00  0.00    +0.021 A 
ATOM     16  C   UNL     1       9.393  -2.026  24.350  0.00  0.00    +0.042 A 
ATOM     17 CL   UNL     1       9.665  -3.693  24.672  0.00  0.00    -0.083 Cl
ATOM     18  C   UNL     1       9.598  -1.524  23.073  0.00  0.00    +0.040 A 
ATOM     19  C   UNL     1       9.331  -0.172  22.793  0.00  0.00    +0.052 A 
ATOM     20 CL   UNL     1       9.312   0.226  21.106  0.00  0.00    -0.083 Cl
ENDBRANCH   5  13
BRANCH   1  23
ATOM     21  N   UNL     1       3.319   3.681  21.500  0.00  0.00    -0.311 N 
ATOM     22  H   UNL     1       3.952   3.989  20.772  0.00  0.00    +0.149 HD
ATOM     23  C   UNL     1       3.864   3.251  22.692  0.00  0.00    +0.251 C 
ATOM     24  O   UNL     1       3.168   2.817  23.605  0.00  0.00    -0.270 OA
BRANCH  21  26
ATOM     25  C   UNL     1       1.493   2.464  20.421  0.00  0.00    +0.024 C 
ATOM     26  C   UNL     1       1.900   3.677  21.233  0.00  0.00    +0.101 C 
ENDBRANCH  21  26
ENDBRANCH   1  23
TORSDOF 3
ENDMDL
MODEL 7
REMARK VINA RESULT:      -6.1      2.820      3.206
REMARK  Name = 
REMARK  4 active torsions:
REMARK  status: ('A' for Active; 'I' for Inactive)
REMARK    1  A    between atoms: C_1  and  C_2
REMARK    2  A    between atoms: C_2  and  N_3
REMARK    3  A    between atoms: C_4  and  C_6
REMARK    4  A    between atoms: C_9  and  C_16
REMARK                            x       y       z     vdW  Elec       q    Type
REMARK                         _______ _______ _______ _____ _____    ______ ____
ROOT
ATOM      1  C   UNL     1       8.763  -0.532  22.910  0.00  0.00    +0.076 A 
ATOM      2  S   UNL     1      10.046  -1.649  22.764  0.00  0.00    -0.064 S 
ATOM      3  C   UNL     1       9.379  -2.674  23.946  0.00  0.00    +0.115 A 
ATOM      4  C   UNL     1       8.184  -2.201  24.469  0.00  0.00    +0.035 A 
ATOM      5  C   UNL     1       7.665  -2.952  25.545  0.00  0.00    +0.086 A 
ATOM      6  N   UNL     1       8.304  -4.110  25.888  0.00  0.00    -0.214 NA
ATOM      7  C   UNL     1       9.425  -4.472  25.262  0.00  0.00    +0.214 A 
ATOM      8  N   UNL     1       9.992  -5.676  25.619  0.00  0.00    -0.327 N 
ATOM      9  H   UNL     1      10.553  -6.039  24.859  0.00  0.00    +0.145 HD
ATOM     10  H   UNL     1       9.297  -6.289  26.016  0.00  0.00    +0.145 HD
ATOM     11  N   UNL     1      10.024  -3.794  24.294  0.00  0.00    -0.207 NA
ATOM     12  C   UNL     1       7.773  -1.032  23.739  0.00  0.00    +0.033 A 
ENDROOT
BRANCH   5  13
ATOM     13  C   UNL     1       6.436  -2.640  26.314  0.00  0.00    +0.020 A 
ATOM     14  C   UNL     1       5.446  -3.649  26.420  0.00  0.00    +0.013 A 
ATOM     15  C   UNL     1       4.243  -3.454  27.110  0.00  0.00    +0.021 A 
ATOM     16  C   UNL     1       3.977  -2.220  27.684  0.00  0.00    +0.042 A 
ATOM     17 CL   UNL     1       2.487  -1.955  28.499  0.00  0.00    -0.083 Cl
ATOM     18  C   UNL     1       4.931  -1.214  27.637  0.00  0.00    +0.040 A 
ATOM     19  C   UNL     1       6.170  -1.442  27.012  0.00  0.00    +0.052 A 
ATOM     20 CL   UNL     1       7.369  -0.229  27.322  0.00  0.00    -0.083 Cl
ENDBRANCH   5  13
BRANCH   1  23
ATOM     21  N   UNL     1       7.617   1.500  22.356  0.00  0.00    -0.311 N 
ATOM     22  H   UNL     1       6.876   1.132  22.941  0.00  0.00    +0.149 HD
ATOM     23  C   UNL     1       8.778   0.764  22.243  0.00  0.00    +0.251 C 
ATOM     24  O   UNL     1       9.740   1.163  21.593  0.00  0.00    -0.270 OA
BRANCH  21  26
ATOM     25  C   UNL     1       7.492   3.917  22.708  0.00  0.00    +0.024 C 
ATOM     26  C   UNL     1       7.425   2.777  21.711  0.00  0.00    +0.101 C 
ENDBRANCH  21  26
ENDBRANCH   1  23
TORSDOF 3
ENDMDL
MODEL 8
REMARK VINA RESULT:      -6.0      4.336      7.751
REMARK  Name = 
REMARK  4 active torsions:
REMARK  status: ('A' for Active; 'I' for Inactive)
REMARK    1  A    between atoms: C_1  and  C_2
REMARK    2  A    between atoms: C_2  and  N_3
REMARK    3  A    between atoms: C_4  and  C_6
REMARK    4  A    between atoms: C_9  and  C_16
REMARK                            x       y       z     vdW  Elec       q    Type
REMARK                         _______ _______ _______ _____ _____    ______ ____
ROOT
ATOM      1  C   UNL     1       7.023  -2.376  23.712  0.00  0.00    +0.076 A 
ATOM      2  S   UNL     1       5.551  -2.272  24.572  0.00  0.00    -0.064 S 
ATOM      3  C   UNL     1       5.791  -0.624  24.915  0.00  0.00    +0.115 A 
ATOM      4  C   UNL     1       6.973  -0.121  24.391  0.00  0.00    +0.035 A 
ATOM      5  C   UNL     1       7.274   1.206  24.765  0.00  0.00    +0.086 A 
ATOM      6  N   UNL     1       6.344   1.896  25.490  0.00  0.00    -0.214 NA
ATOM      7  C   UNL     1       5.220   1.300  25.888  0.00  0.00    +0.214 A 
ATOM      8  N   UNL     1       4.301   2.064  26.572  0.00  0.00    -0.327 N 
ATOM      9  H   UNL     1       3.373   1.674  26.468  0.00  0.00    +0.145 HD
ATOM     10  H   UNL     1       4.420   3.041  26.349  0.00  0.00    +0.145 HD
ATOM     11  N   UNL     1       4.887   0.040  25.648  0.00  0.00    -0.207 NA
ATOM     12  C   UNL     1       7.593  -1.123  23.568  0.00  0.00    +0.033 A 
ENDROOT
BRANCH   5  13
ATOM     13  C   UNL     1       8.493   1.963  24.389  0.00  0.00    +0.020 A 
ATOM     14  C   UNL     1       8.338   3.318  24.004  0.00  0.00    +0.013 A 
ATOM     15  C   UNL     1       9.420   4.119  23.616  0.00  0.00    +0.021 A 
ATOM     16  C   UNL     1      10.691   3.570  23.561  0.00  0.00    +0.042 A 
ATOM     17 CL   UNL     1      12.022   4.530  23.048  0.00  0.00    -0.083 Cl
ATOM     18  C   UNL     1      10.897   2.257  23.962  0.00  0.00    +0.040 A 
ATOM     19  C   UNL     1       9.820   1.483  24.428  0.00  0.00    +0.052 A 
ATOM     20 CL   UNL     1      10.277  -0.001  25.199  0.00  0.00    -0.083 Cl
ENDBRANCH   5  13
BRANCH   1  23
ATOM     21  N   UNL     1       6.794  -4.299  22.298  0.00  0.00    -0.311 N 
ATOM     22  H   UNL     1       5.965  -3.831  21.953  0.00  0.00    +0.149 HD
ATOM     23  C   UNL     1       7.561  -3.645  23.239  0.00  0.00    +0.251 C 
ATOM     24  O   UNL     1       8.606  -4.124  23.671  0.00  0.00    -0.270 OA
BRANCH  21  26
ATOM     25  C   UNL     1       6.148  -6.033  20.698  0.00  0.00    +0.024 C 
ATOM     26  C   UNL     1       7.137  -5.595  21.760  0.00  0.00    +0.101 C 
ENDBRANCH  21  26
ENDBRANCH   1  23
TORSDOF 3
ENDMDL
MODEL 9
REMARK VINA RESULT:      -5.8      4.509      7.315
REMARK  Name = 
REMARK  4 active torsions:
REMARK  status: ('A' for Active; 'I' for Inactive)
REMARK    1  A    between atoms: C_1  and  C_2
REMARK    2  A    between atoms: C_2  and  N_3
REMARK    3  A    between atoms: C_4  and  C_6
REMARK    4  A    between atoms: C_9  and  C_16
REMARK                            x       y       z     vdW  Elec       q    Type
REMARK                         _______ _______ _______ _____ _____    ______ ____
ROOT
ATOM      1  C   UNL     1       5.548  -2.485  23.999  0.00  0.00    +0.076 A 
ATOM      2  S   UNL     1       4.654  -2.638  25.446  0.00  0.00    -0.064 S 
ATOM      3  C   UNL     1       5.408  -1.279  26.135  0.00  0.00    +0.115 A 
ATOM      4  C   UNL     1       6.339  -0.685  25.296  0.00  0.00    +0.035 A 
ATOM      5  C   UNL     1       7.082   0.365  25.878  0.00  0.00    +0.086 A 
ATOM      6  N   UNL     1       6.746   0.768  27.139  0.00  0.00    -0.214 NA
ATOM      7  C   UNL     1       5.789   0.133  27.817  0.00  0.00    +0.214 A 
ATOM      8  N   UNL     1       5.462   0.621  29.063  0.00  0.00    -0.327 N 
ATOM      9  H   UNL     1       4.514   0.362  29.304  0.00  0.00    +0.145 HD
ATOM     10  H   UNL     1       5.709   1.596  29.136  0.00  0.00    +0.145 HD
ATOM     11  N   UNL     1       5.091  -0.905  27.381  0.00  0.00    -0.207 NA
ATOM     12  C   UNL     1       6.288  -1.315  24.005  0.00  0.00    +0.033 A 
ENDROOT
BRANCH   5  13
ATOM     13  C   UNL     1       8.170   1.131  25.222  0.00  0.00    +0.020 A 
ATOM     14  C   UNL     1       8.071   2.545  25.213  0.00  0.00    +0.013 A 
ATOM     15  C   UNL     1       9.034   3.363  24.608  0.00  0.00    +0.021 A 
ATOM     16  C   UNL     1      10.110   2.783  23.955  0.00  0.00    +0.042 A 
ATOM     17 CL   UNL     1      11.278   3.774  23.174  0.00  0.00    -0.083 Cl
ATOM     18  C   UNL     1      10.268   1.405  23.968  0.00  0.00    +0.040 A 
ATOM     19  C   UNL     1       9.341   0.593  24.646  0.00  0.00    +0.052 A 
ATOM     20 CL   UNL     1       9.843  -1.053  24.860  0.00  0.00    -0.083 Cl
ENDBRANCH   5  13
BRANCH   1  23
ATOM     21  N   UNL     1       5.756  -4.787  23.359  0.00  0.00    -0.311 N 
ATOM     22  H   UNL     1       5.872  -4.956  24.351  0.00  0.00    +0.149 HD
ATOM     23  C   UNL     1       5.509  -3.494  22.948  0.00  0.00    +0.251 C 
ATOM     24  O   UNL     1       5.308  -3.214  21.769  0.00  0.00    -0.270 OA
BRANCH  21  26
ATOM     25  C   UNL     1       7.179  -6.007  21.787  0.00  0.00    +0.024 C 
ATOM     26  C   UNL     1       5.819  -5.907  22.450  0.00  0.00    +0.101 C 
ENDBRANCH  21  26
ENDBRANCH   1  23
TORSDOF 3
ENDMDL
