MODEL 1
REMARK VINA RESULT:      -7.1      0.000      0.000
REMARK  Name = 
REMARK  6 active torsions:
REMARK  status: ('A' for Active; 'I' for Inactive)
REMARK    1  A    between atoms: C_5  and  O_6
REMARK    2  A    between atoms: O_6  and  C_7
REMARK    3  A    between atoms: C_7  and  C_8
REMARK    4  A    between atoms: C_8  and  N_9
REMARK    5  A    between atoms: N_22  and  C_23
REMARK    6  A    between atoms: C_31  and  O_33
REMARK                            x       y       z     vdW  Elec       q    Type
REMARK                         _______ _______ _______ _____ _____    ______ ____
ROOT
ATOM      1  C   UNL     1       8.529  -1.355  26.367  0.00  0.00    +0.217 C 
ATOM      2  C   UNL     1       7.295  -0.664  26.988  0.00  0.00    +0.178 C 
ATOM      3  C   UNL     1       5.996  -0.717  26.240  0.00  0.00    +0.004 C 
ATOM      4  C   UNL     1       5.672  -1.693  25.382  0.00  0.00    -0.023 C 
ATOM      5  C   UNL     1       6.784  -2.363  24.654  0.00  0.00    +0.043 C 
ATOM      6  C   UNL     1       6.668  -3.623  23.791  0.00  0.00    +0.068 C 
ATOM      7  C   UNL     1       7.774  -3.415  22.607  0.00  0.00    +0.055 C 
ATOM      8  C   UNL     1       8.777  -2.279  22.835  0.00  0.00    -0.038 A 
ATOM      9  C   UNL     1       8.972  -1.820  24.145  0.00  0.00    +0.012 A 
ATOM     10  C   UNL     1       9.661  -0.682  24.523  0.00  0.00    +0.167 A 
ATOM     11  C   UNL     1      10.314   0.068  23.579  0.00  0.00    +0.162 A 
ATOM     12  C   UNL     1      10.193  -0.372  22.231  0.00  0.00    +0.050 A 
ATOM     13  C   UNL     1       9.430  -1.517  21.860  0.00  0.00    +0.008 A 
ATOM     14  N   UNL     1       6.793  -4.878  24.584  0.00  0.00    -0.301 NA
ATOM     15  C   UNL     1       5.515  -5.271  25.206  0.00  0.00    +0.105 C 
ATOM     16  C   UNL     1       7.796  -4.852  25.666  0.00  0.00    +0.085 C 
ATOM     17  C   UNL     1       8.851  -3.789  25.487  0.00  0.00    +0.031 C 
ATOM     18  C   UNL     1       8.204  -2.395  25.277  0.00  0.00    +0.048 C 
ATOM     19  O   UNL     1       9.473  -0.380  25.846  0.00  0.00    -0.481 OA
ENDROOT
BRANCH   2  20
ATOM     20  O   UNL     1       7.580   0.686  27.331  0.00  0.00    -0.384 OA
ATOM     21  H   UNL     1       7.260   1.227  26.581  0.00  0.00    +0.210 HD
ENDBRANCH   2  20
BRANCH  11  22
ATOM     22  O   UNL     1      10.997   1.177  24.018  0.00  0.00    -0.487 OA
BRANCH  22  23
ATOM     23  C   UNL     1      10.506   2.422  23.524  0.00  0.00    +0.244 C 
BRANCH  23  24
ATOM     24  C   UNL     1       9.246   2.891  24.281  0.00  0.00    +0.125 C 
BRANCH  24  25
ATOM     25  N   UNL     1       8.190   3.372  23.358  0.00  0.00    -0.295 NA
ATOM     26  C   UNL     1       7.015   3.917  24.077  0.00  0.00    +0.112 C 
ATOM     27  C   UNL     1       6.091   2.849  24.693  0.00  0.00    +0.175 C 
ATOM     28  O   UNL     1       5.693   1.858  23.736  0.00  0.00    -0.377 OA
ATOM     29  C   UNL     1       6.837   1.262  23.114  0.00  0.00    +0.175 C 
ATOM     30  C   UNL     1       7.695   2.333  22.427  0.00  0.00    +0.112 C 
ENDBRANCH  24  25
ENDBRANCH  23  24
ENDBRANCH  22  23
ENDBRANCH  11  22
TORSDOF 5
ENDMDL
MODEL 2
REMARK VINA RESULT:      -7.0      2.227      3.691
REMARK  Name = 
REMARK  6 active torsions:
REMARK  status: ('A' for Active; 'I' for Inactive)
REMARK    1  A    between atoms: C_5  and  O_6
REMARK    2  A    between atoms: O_6  and  C_7
REMARK    3  A    between atoms: C_7  and  C_8
REMARK    4  A    between atoms: C_8  and  N_9
REMARK    5  A    between atoms: N_22  and  C_23
REMARK    6  A    between atoms: C_31  and  O_33
REMARK                            x       y       z     vdW  Elec       q    Type
REMARK                         _______ _______ _______ _____ _____    ______ ____
ROOT
ATOM      1  C   UNL     1       8.220  -5.019  24.066  0.00  0.00    +0.217 C 
ATOM      2  C   UNL     1       9.135  -5.548  25.192  0.00  0.00    +0.178 C 
ATOM      3  C   UNL     1       8.716  -5.326  26.615  0.00  0.00    +0.004 C 
ATOM      4  C   UNL     1       7.441  -5.183  27.001  0.00  0.00    -0.023 C 
ATOM      5  C   UNL     1       6.491  -4.591  26.022  0.00  0.00    +0.043 C 
ATOM      6  C   UNL     1       4.968  -4.524  26.169  0.00  0.00    +0.068 C 
ATOM      7  C   UNL     1       4.544  -3.130  25.431  0.00  0.00    +0.055 C 
ATOM      8  C   UNL     1       5.634  -2.479  24.574  0.00  0.00    -0.038 A 
ATOM      9  C   UNL     1       6.692  -3.283  24.126  0.00  0.00    +0.012 A 
ATOM     10  C   UNL     1       7.862  -2.845  23.532  0.00  0.00    +0.167 A 
ATOM     11  C   UNL     1       8.029  -1.515  23.246  0.00  0.00    +0.162 A 
ATOM     12  C   UNL     1       6.967  -0.649  23.634  0.00  0.00    +0.050 A 
ATOM     13  C   UNL     1       5.795  -1.118  24.297  0.00  0.00    +0.008 A 
ATOM     14  N   UNL     1       4.286  -5.753  25.675  0.00  0.00    -0.301 NA
ATOM     15  C   UNL     1       4.267  -6.822  26.691  0.00  0.00    +0.105 C 
ATOM     16  C   UNL     1       4.852  -6.349  24.450  0.00  0.00    +0.085 C 
ATOM     17  C   UNL     1       5.674  -5.383  23.633  0.00  0.00    +0.031 C 
ATOM     18  C   UNL     1       6.772  -4.717  24.501  0.00  0.00    +0.048 C 
ATOM     19  O   UNL     1       8.793  -3.845  23.427  0.00  0.00    -0.481 OA
ENDROOT
BRANCH   2  20
ATOM     20  O   UNL     1      10.472  -5.093  25.024  0.00  0.00    -0.384 OA
ATOM     21  H   UNL     1      11.037  -5.888  25.106  0.00  0.00    +0.210 HD
ENDBRANCH   2  20
BRANCH  11  22
ATOM     22  O   UNL     1       9.204  -1.144  22.639  0.00  0.00    -0.487 OA
BRANCH  22  23
ATOM     23  C   UNL     1      10.206  -0.643  23.521  0.00  0.00    +0.244 C 
BRANCH  23  24
ATOM     24  C   UNL     1       9.927   0.813  23.951  0.00  0.00    +0.125 C 
BRANCH  24  25
ATOM     25  N   UNL     1      10.203   1.777  22.859  0.00  0.00    -0.295 NA
ATOM     26  C   UNL     1      10.666   3.090  23.366  0.00  0.00    +0.112 C 
ATOM     27  C   UNL     1       9.552   3.973  23.963  0.00  0.00    +0.175 C 
ATOM     28  O   UNL     1       8.445   4.130  23.066  0.00  0.00    -0.377 OA
ATOM     29  C   UNL     1       7.936   2.856  22.655  0.00  0.00    +0.175 C 
ATOM     30  C   UNL     1       9.039   2.030  21.980  0.00  0.00    +0.112 C 
ENDBRANCH  24  25
ENDBRANCH  23  24
ENDBRANCH  22  23
ENDBRANCH  11  22
TORSDOF 5
ENDMDL
MODEL 3
REMARK VINA RESULT:      -7.0      2.096      6.347
REMARK  Name = 
REMARK  6 active torsions:
REMARK  status: ('A' for Active; 'I' for Inactive)
REMARK    1  A    between atoms: C_5  and  O_6
REMARK    2  A    between atoms: O_6  and  C_7
REMARK    3  A    between atoms: C_7  and  C_8
REMARK    4  A    between atoms: C_8  and  N_9
REMARK    5  A    between atoms: N_22  and  C_23
REMARK    6  A    between atoms: C_31  and  O_33
REMARK                            x       y       z     vdW  Elec       q    Type
REMARK                         _______ _______ _______ _____ _____    ______ ____
ROOT
ATOM      1  C   UNL     1       9.893   0.017  23.611  0.00  0.00    +0.217 C 
ATOM      2  C   UNL     1      10.161  -0.199  22.106  0.00  0.00    +0.178 C 
ATOM      3  C   UNL     1       9.056   0.094  21.135  0.00  0.00    +0.004 C 
ATOM      4  C   UNL     1       8.075   0.975  21.369  0.00  0.00    -0.023 C 
ATOM      5  C   UNL     1       7.670   1.189  22.786  0.00  0.00    +0.043 C 
ATOM      6  C   UNL     1       6.728   2.282  23.300  0.00  0.00    +0.068 C 
ATOM      7  C   UNL     1       5.948   1.593  24.560  0.00  0.00    +0.055 C 
ATOM      8  C   UNL     1       6.544   0.274  25.063  0.00  0.00    -0.038 A 
ATOM      9  C   UNL     1       7.880  -0.011  24.750  0.00  0.00    +0.012 A 
ATOM     10  C   UNL     1       8.525  -1.222  24.926  0.00  0.00    +0.167 A 
ATOM     11  C   UNL     1       7.875  -2.261  25.540  0.00  0.00    +0.162 A 
ATOM     12  C   UNL     1       6.525  -2.020  25.924  0.00  0.00    +0.050 A 
ATOM     13  C   UNL     1       5.865  -0.781  25.681  0.00  0.00    +0.008 A 
ATOM     14  N   UNL     1       7.434   3.561  23.593  0.00  0.00    -0.301 NA
ATOM     15  C   UNL     1       7.615   4.384  22.383  0.00  0.00    +0.105 C 
ATOM     16  C   UNL     1       8.766   3.427  24.213  0.00  0.00    +0.085 C 
ATOM     17  C   UNL     1       8.986   2.099  24.894  0.00  0.00    +0.031 C 
ATOM     18  C   UNL     1       8.687   0.924  23.927  0.00  0.00    +0.048 C 
ATOM     19  O   UNL     1       9.748  -1.250  24.309  0.00  0.00    -0.481 OA
ENDROOT
BRANCH   2  20
ATOM     20  O   UNL     1      10.666  -1.505  21.856  0.00  0.00    -0.384 OA
ATOM     21  H   UNL     1       9.897  -2.040  21.572  0.00  0.00    +0.210 HD
ENDBRANCH   2  20
BRANCH  11  22
ATOM     22  O   UNL     1       8.573  -3.433  25.703  0.00  0.00    -0.487 OA
BRANCH  22  23
ATOM     23  C   UNL     1       7.827  -4.621  25.447  0.00  0.00    +0.244 C 
BRANCH  23  24
ATOM     24  C   UNL     1       7.655  -4.885  23.937  0.00  0.00    +0.125 C 
BRANCH  24  25
ATOM     25  N   UNL     1       6.242  -5.153  23.577  0.00  0.00    -0.295 NA
ATOM     26  C   UNL     1       6.115  -6.123  22.463  0.00  0.00    +0.112 C 
ATOM     27  C   UNL     1       6.436  -5.543  21.072  0.00  0.00    +0.175 C 
ATOM     28  O   UNL     1       5.695  -4.346  20.798  0.00  0.00    -0.377 OA
ATOM     29  C   UNL     1       5.899  -3.373  21.828  0.00  0.00    +0.175 C 
ATOM     30  C   UNL     1       5.486  -3.939  23.193  0.00  0.00    +0.112 C 
ENDBRANCH  24  25
ENDBRANCH  23  24
ENDBRANCH  22  23
ENDBRANCH  11  22
TORSDOF 5
ENDMDL
MODEL 4
REMARK VINA RESULT:      -6.9      2.016      6.075
REMARK  Name = 
REMARK  6 active torsions:
REMARK  status: ('A' for Active; 'I' for Inactive)
REMARK    1  A    between atoms: C_5  and  O_6
REMARK    2  A    between atoms: O_6  and  C_7
REMARK    3  A    between atoms: C_7  and  C_8
REMARK    4  A    between atoms: C_8  and  N_9
REMARK    5  A    between atoms: N_22  and  C_23
REMARK    6  A    between atoms: C_31  and  O_33
REMARK                            x       y       z     vdW  Elec       q    Type
REMARK                         _______ _______ _______ _____ _____    ______ ____
ROOT
ATOM      1  C   UNL     1       6.251   0.519  23.689  0.00  0.00    +0.217 C 
ATOM      2  C   UNL     1       5.652   0.468  25.112  0.00  0.00    +0.178 C 
ATOM      3  C   UNL     1       6.540   0.810  26.272  0.00  0.00    +0.004 C 
ATOM      4  C   UNL     1       7.605   1.617  26.181  0.00  0.00    -0.023 C 
ATOM      5  C   UNL     1       8.317   1.668  24.875  0.00  0.00    +0.043 C 
ATOM      6  C   UNL     1       9.417   2.660  24.485  0.00  0.00    +0.068 C 
ATOM      7  C   UNL     1      10.402   1.813  23.494  0.00  0.00    +0.055 C 
ATOM      8  C   UNL     1       9.843   0.477  22.993  0.00  0.00    -0.038 A 
ATOM      9  C   UNL     1       8.455   0.285  23.028  0.00  0.00    +0.012 A 
ATOM     10  C   UNL     1       7.785  -0.908  22.824  0.00  0.00    +0.167 A 
ATOM     11  C   UNL     1       8.482  -2.032  22.463  0.00  0.00    +0.162 A 
ATOM     12  C   UNL     1       9.895  -1.892  22.366  0.00  0.00    +0.050 A 
ATOM     13  C   UNL     1      10.568  -0.665  22.636  0.00  0.00    +0.008 A 
ATOM     14  N   UNL     1       8.876   3.932  23.930  0.00  0.00    -0.301 NA
ATOM     15  C   UNL     1       8.494   4.881  24.992  0.00  0.00    +0.105 C 
ATOM     16  C   UNL     1       7.702   3.796  23.047  0.00  0.00    +0.085 C 
ATOM     17  C   UNL     1       7.547   2.416  22.456  0.00  0.00    +0.031 C 
ATOM     18  C   UNL     1       7.553   1.334  23.566  0.00  0.00    +0.048 C 
ATOM     19  O   UNL     1       6.458  -0.818  23.157  0.00  0.00    -0.481 OA
ENDROOT
BRANCH   2  20
ATOM     20  O   UNL     1       5.021  -0.781  25.361  0.00  0.00    -0.384 OA
ATOM     21  H   UNL     1       4.142  -0.568  25.732  0.00  0.00    +0.210 HD
ENDBRANCH   2  20
BRANCH  11  22
ATOM     22  O   UNL     1       7.759  -3.182  22.257  0.00  0.00    -0.487 OA
BRANCH  22  23
ATOM     23  C   UNL     1       7.844  -4.144  23.306  0.00  0.00    +0.244 C 
BRANCH  23  24
ATOM     24  C   UNL     1       6.522  -4.261  24.095  0.00  0.00    +0.125 C 
BRANCH  24  25
ATOM     25  N   UNL     1       6.601  -3.587  25.413  0.00  0.00    -0.295 NA
ATOM     26  C   UNL     1       7.982  -3.551  25.949  0.00  0.00    +0.112 C 
ATOM     27  C   UNL     1       8.479  -4.892  26.523  0.00  0.00    +0.175 C 
ATOM     28  O   UNL     1       7.568  -5.442  27.485  0.00  0.00    -0.377 OA
ATOM     29  C   UNL     1       6.254  -5.568  26.930  0.00  0.00    +0.175 C 
ATOM     30  C   UNL     1       5.741  -4.204  26.448  0.00  0.00    +0.112 C 
ENDBRANCH  24  25
ENDBRANCH  23  24
ENDBRANCH  22  23
ENDBRANCH  11  22
TORSDOF 5
ENDMDL
MODEL 5
REMARK VINA RESULT:      -6.8      2.100      4.480
REMARK  Name = 
REMARK  6 active torsions:
REMARK  status: ('A' for Active; 'I' for Inactive)
REMARK    1  A    between atoms: C_5  and  O_6
REMARK    2  A    between atoms: O_6  and  C_7
REMARK    3  A    between atoms: C_7  and  C_8
REMARK    4  A    between atoms: C_8  and  N_9
REMARK    5  A    between atoms: N_22  and  C_23
REMARK    6  A    between atoms: C_31  and  O_33
REMARK                            x       y       z     vdW  Elec       q    Type
REMARK                         _______ _______ _______ _____ _____    ______ ____
ROOT
ATOM      1  C   UNL     1       8.483   0.474  22.036  0.00  0.00    +0.217 C 
ATOM      2  C   UNL     1       9.968   0.857  22.216  0.00  0.00    +0.178 C 
ATOM      3  C   UNL     1      10.599   0.656  23.562  0.00  0.00    +0.004 C 
ATOM      4  C   UNL     1      10.183  -0.258  24.449  0.00  0.00    -0.023 C 
ATOM      5  C   UNL     1       8.743  -0.631  24.425  0.00  0.00    +0.043 C 
ATOM      6  C   UNL     1       8.096  -1.785  25.196  0.00  0.00    +0.068 C 
ATOM      7  C   UNL     1       6.597  -1.249  25.560  0.00  0.00    +0.055 C 
ATOM      8  C   UNL     1       6.151   0.016  24.818  0.00  0.00    -0.038 A 
ATOM      9  C   UNL     1       6.808   0.351  23.626  0.00  0.00    +0.012 A 
ATOM     10  C   UNL     1       6.699   1.544  22.936  0.00  0.00    +0.167 A 
ATOM     11  C   UNL     1       5.813   2.502  23.358  0.00  0.00    +0.162 A 
ATOM     12  C   UNL     1       5.079   2.203  24.540  0.00  0.00    +0.050 A 
ATOM     13  C   UNL     1       5.251   0.988  25.266  0.00  0.00    +0.008 A 
ATOM     14  N   UNL     1       8.162  -3.079  24.460  0.00  0.00    -0.301 NA
ATOM     15  C   UNL     1       9.454  -3.763  24.656  0.00  0.00    +0.105 C 
ATOM     16  C   UNL     1       7.949  -2.995  23.002  0.00  0.00    +0.085 C 
ATOM     17  C   UNL     1       7.223  -1.746  22.568  0.00  0.00    +0.031 C 
ATOM     18  C   UNL     1       7.928  -0.477  23.114  0.00  0.00    +0.048 C 
ATOM     19  O   UNL     1       7.641   1.656  21.946  0.00  0.00    -0.481 OA
ENDROOT
BRANCH   2  20
ATOM     20  O   UNL     1      10.213   2.189  21.782  0.00  0.00    -0.384 OA
ATOM     21  H   UNL     1       9.527   2.382  21.111  0.00  0.00    +0.210 HD
ENDBRANCH   2  20
BRANCH  11  22
ATOM     22  O   UNL     1       5.737   3.658  22.621  0.00  0.00    -0.487 OA
BRANCH  22  23
ATOM     23  C   UNL     1       6.255   4.820  23.265  0.00  0.00    +0.244 C 
BRANCH  23  24
ATOM     24  C   UNL     1       7.721   5.097  22.872  0.00  0.00    +0.125 C 
BRANCH  24  25
ATOM     25  N   UNL     1       8.677   4.435  23.791  0.00  0.00    -0.295 NA
ATOM     26  C   UNL     1       8.226   4.473  25.202  0.00  0.00    +0.112 C 
ATOM     27  C   UNL     1       8.398   5.841  25.891  0.00  0.00    +0.175 C 
ATOM     28  O   UNL     1       9.734   6.348  25.765  0.00  0.00    -0.377 OA
ATOM     29  C   UNL     1      10.131   6.403  24.390  0.00  0.00    +0.175 C 
ATOM     30  C   UNL     1      10.040   5.012  23.749  0.00  0.00    +0.112 C 
ENDBRANCH  24  25
ENDBRANCH  23  24
ENDBRANCH  22  23
ENDBRANCH  11  22
TORSDOF 5
ENDMDL
MODEL 6
REMARK VINA RESULT:      -6.7      2.013      5.950
REMARK  Name = 
REMARK  6 active torsions:
REMARK  status: ('A' for Active; 'I' for Inactive)
REMARK    1  A    between atoms: C_5  and  O_6
REMARK    2  A    between atoms: O_6  and  C_7
REMARK    3  A    between atoms: C_7  and  C_8
REMARK    4  A    between atoms: C_8  and  N_9
REMARK    5  A    between atoms: N_22  and  C_23
REMARK    6  A    between atoms: C_31  and  O_33
REMARK                            x       y       z     vdW  Elec       q    Type
REMARK                         _______ _______ _______ _____ _____    ______ ____
ROOT
ATOM      1  C   UNL     1       6.369   0.783  24.941  0.00  0.00    +0.217 C 
ATOM      2  C   UNL     1       6.206   1.553  26.270  0.00  0.00    +0.178 C 
ATOM      3  C   UNL     1       7.196   2.630  26.597  0.00  0.00    +0.004 C 
ATOM      4  C   UNL     1       7.874   3.323  25.672  0.00  0.00    -0.023 C 
ATOM      5  C   UNL     1       8.170   2.638  24.384  0.00  0.00    +0.043 C 
ATOM      6  C   UNL     1       8.743   3.294  23.124  0.00  0.00    +0.068 C 
ATOM      7  C   UNL     1       9.664   2.132  22.437  0.00  0.00    +0.055 C 
ATOM      8  C   UNL     1       9.469   0.719  22.997  0.00  0.00    -0.038 A 
ATOM      9  C   UNL     1       8.279   0.438  23.684  0.00  0.00    +0.012 A 
ATOM     10  C   UNL     1       8.012  -0.693  24.434  0.00  0.00    +0.167 A 
ATOM     11  C   UNL     1       8.924  -1.716  24.481  0.00  0.00    +0.162 A 
ATOM     12  C   UNL     1      10.137  -1.510  23.765  0.00  0.00    +0.050 A 
ATOM     13  C   UNL     1      10.413  -0.312  23.045  0.00  0.00    +0.008 A 
ATOM     14  N   UNL     1       7.690   3.887  22.252  0.00  0.00    -0.301 NA
ATOM     15  C   UNL     1       7.301   5.238  22.695  0.00  0.00    +0.105 C 
ATOM     16  C   UNL     1       6.442   3.107  22.139  0.00  0.00    +0.085 C 
ATOM     17  C   UNL     1       6.605   1.650  22.493  0.00  0.00    +0.031 C 
ATOM     18  C   UNL     1       7.252   1.488  23.892  0.00  0.00    +0.048 C 
ATOM     19  O   UNL     1       6.862  -0.565  25.169  0.00  0.00    -0.481 OA
ENDROOT
BRANCH   2  20
ATOM     20  O   UNL     1       6.108   0.660  27.373  0.00  0.00    -0.384 OA
ATOM     21  H   UNL     1       7.018   0.344  27.543  0.00  0.00    +0.210 HD
ENDBRANCH   2  20
BRANCH  11  22
ATOM     22  O   UNL     1       8.594  -2.820  25.228  0.00  0.00    -0.487 OA
BRANCH  22  23
ATOM     23  C   UNL     1       8.916  -4.073  24.628  0.00  0.00    +0.244 C 
BRANCH  23  24
ATOM     24  C   UNL     1       7.659  -4.924  24.351  0.00  0.00    +0.125 C 
BRANCH  24  25
ATOM     25  N   UNL     1       7.396  -5.070  22.899  0.00  0.00    -0.295 NA
ATOM     26  C   UNL     1       7.097  -3.774  22.244  0.00  0.00    +0.112 C 
ATOM     27  C   UNL     1       5.682  -3.230  22.521  0.00  0.00    +0.175 C 
ATOM     28  O   UNL     1       4.663  -4.198  22.233  0.00  0.00    -0.377 OA
ATOM     29  C   UNL     1       4.901  -5.417  22.946  0.00  0.00    +0.175 C 
ATOM     30  C   UNL     1       6.279  -5.990  22.586  0.00  0.00    +0.112 C 
ENDBRANCH  24  25
ENDBRANCH  23  24
ENDBRANCH  22  23
ENDBRANCH  11  22
TORSDOF 5
ENDMDL
MODEL 7
REMARK VINA RESULT:      -6.6      2.159      6.244
REMARK  Name = 
REMARK  6 active torsions:
REMARK  status: ('A' for Active; 'I' for Inactive)
REMARK    1  A    between atoms: C_5  and  O_6
REMARK    2  A    between atoms: O_6  and  C_7
REMARK    3  A    between atoms: C_7  and  C_8
REMARK    4  A    between atoms: C_8  and  N_9
REMARK    5  A    between atoms: N_22  and  C_23
REMARK    6  A    between atoms: C_31  and  O_33
REMARK                            x       y       z     vdW  Elec       q    Type
REMARK                         _______ _______ _______ _____ _____    ______ ____
ROOT
ATOM      1  C   UNL     1       6.310   0.736  23.539  0.00  0.00    +0.217 C 
ATOM      2  C   UNL     1       5.624   0.803  24.922  0.00  0.00    +0.178 C 
ATOM      3  C   UNL     1       6.413   1.328  26.085  0.00  0.00    +0.004 C 
ATOM      4  C   UNL     1       7.430   2.191  25.963  0.00  0.00    -0.023 C 
ATOM      5  C   UNL     1       8.221   2.145  24.704  0.00  0.00    +0.043 C 
ATOM      6  C   UNL     1       9.282   3.160  24.267  0.00  0.00    +0.068 C 
ATOM      7  C   UNL     1      10.379   2.277  23.438  0.00  0.00    +0.055 C 
ATOM      8  C   UNL     1       9.936   0.859  23.061  0.00  0.00    -0.038 A 
ATOM      9  C   UNL     1       8.562   0.580  23.038  0.00  0.00    +0.012 A 
ATOM     10  C   UNL     1       7.980  -0.671  22.933  0.00  0.00    +0.167 A 
ATOM     11  C   UNL     1       8.766  -1.778  22.744  0.00  0.00    +0.162 A 
ATOM     12  C   UNL     1      10.171  -1.555  22.712  0.00  0.00    +0.050 A 
ATOM     13  C   UNL     1      10.750  -0.263  22.879  0.00  0.00    +0.008 A 
ATOM     14  N   UNL     1       8.703   4.324  23.540  0.00  0.00    -0.301 NA
ATOM     15  C   UNL     1       8.196   5.356  24.463  0.00  0.00    +0.105 C 
ATOM     16  C   UNL     1       7.599   4.012  22.612  0.00  0.00    +0.085 C 
ATOM     17  C   UNL     1       7.566   2.569  22.175  0.00  0.00    +0.031 C 
ATOM     18  C   UNL     1       7.566   1.618  23.400  0.00  0.00    +0.048 C 
ATOM     19  O   UNL     1       6.632  -0.635  23.176  0.00  0.00    -0.481 OA
ENDROOT
BRANCH   2  20
ATOM     20  O   UNL     1       5.055  -0.452  25.275  0.00  0.00    -0.384 OA
ATOM     21  H   UNL     1       5.801  -1.012  25.568  0.00  0.00    +0.210 HD
ENDBRANCH   2  20
BRANCH  11  22
ATOM     22  O   UNL     1       8.129  -2.990  22.629  0.00  0.00    -0.487 OA
BRANCH  22  23
ATOM     23  C   UNL     1       8.216  -3.830  23.778  0.00  0.00    +0.244 C 
BRANCH  23  24
ATOM     24  C   UNL     1       7.406  -5.132  23.609  0.00  0.00    +0.125 C 
BRANCH  24  25
ATOM     25  N   UNL     1       6.220  -5.168  24.498  0.00  0.00    -0.295 NA
ATOM     26  C   UNL     1       5.267  -6.240  24.128  0.00  0.00    +0.112 C 
ATOM     27  C   UNL     1       4.414  -5.935  22.881  0.00  0.00    +0.175 C 
ATOM     28  O   UNL     1       3.750  -4.667  22.975  0.00  0.00    -0.377 OA
ATOM     29  C   UNL     1       4.689  -3.617  23.235  0.00  0.00    +0.175 C 
ATOM     30  C   UNL     1       5.462  -3.896  24.530  0.00  0.00    +0.112 C 
ENDBRANCH  24  25
ENDBRANCH  23  24
ENDBRANCH  22  23
ENDBRANCH  11  22
TORSDOF 5
ENDMDL
MODEL 8
REMARK VINA RESULT:      -6.4      2.356      3.903
REMARK  Name = 
REMARK  6 active torsions:
REMARK  status: ('A' for Active; 'I' for Inactive)
REMARK    1  A    between atoms: C_5  and  O_6
REMARK    2  A    between atoms: O_6  and  C_7
REMARK    3  A    between atoms: C_7  and  C_8
REMARK    4  A    between atoms: C_8  and  N_9
REMARK    5  A    between atoms: N_22  and  C_23
REMARK    6  A    between atoms: C_31  and  O_33
REMARK                            x       y       z     vdW  Elec       q    Type
REMARK                         _______ _______ _______ _____ _____    ______ ____
ROOT
ATOM      1  C   UNL     1       5.467  -3.328  22.778  0.00  0.00    +0.217 C 
ATOM      2  C   UNL     1       5.253  -4.708  22.118  0.00  0.00    +0.178 C 
ATOM      3  C   UNL     1       5.682  -5.933  22.870  0.00  0.00    +0.004 C 
ATOM      4  C   UNL     1       5.755  -5.998  24.206  0.00  0.00    -0.023 C 
ATOM      5  C   UNL     1       6.055  -4.737  24.938  0.00  0.00    +0.043 C 
ATOM      6  C   UNL     1       5.983  -4.536  26.454  0.00  0.00    +0.068 C 
ATOM      7  C   UNL     1       7.167  -3.459  26.783  0.00  0.00    +0.055 C 
ATOM      8  C   UNL     1       7.764  -2.744  25.566  0.00  0.00    -0.038 A 
ATOM      9  C   UNL     1       7.011  -2.707  24.384  0.00  0.00    +0.012 A 
ATOM     10  C   UNL     1       7.457  -2.304  23.138  0.00  0.00    +0.167 A 
ATOM     11  C   UNL     1       8.724  -1.799  22.994  0.00  0.00    +0.162 A 
ATOM     12  C   UNL     1       9.526  -1.767  24.169  0.00  0.00    +0.050 A 
ATOM     13  C   UNL     1       9.062  -2.241  25.431  0.00  0.00    +0.008 A 
ATOM     14  N   UNL     1       4.619  -4.164  26.924  0.00  0.00    -0.301 NA
ATOM     15  C   UNL     1       3.756  -5.345  27.110  0.00  0.00    +0.105 C 
ATOM     16  C   UNL     1       3.876  -3.235  26.051  0.00  0.00    +0.085 C 
ATOM     17  C   UNL     1       4.759  -2.437  25.125  0.00  0.00    +0.031 C 
ATOM     18  C   UNL     1       5.686  -3.370  24.303  0.00  0.00    +0.048 C 
ATOM     19  O   UNL     1       6.560  -2.606  22.147  0.00  0.00    -0.481 OA
ENDROOT
BRANCH   2  20
ATOM     20  O   UNL     1       5.810  -4.745  20.810  0.00  0.00    -0.384 OA
ATOM     21  H   UNL     1       5.886  -5.692  20.578  0.00  0.00    +0.210 HD
ENDBRANCH   2  20
BRANCH  11  22
ATOM     22  O   UNL     1       9.102  -1.399  21.736  0.00  0.00    -0.487 OA
BRANCH  22  23
ATOM     23  C   UNL     1       9.692  -0.102  21.667  0.00  0.00    +0.244 C 
BRANCH  23  24
ATOM     24  C   UNL     1       8.635   1.007  21.485  0.00  0.00    +0.125 C 
BRANCH  24  25
ATOM     25  N   UNL     1       9.030   2.266  22.161  0.00  0.00    -0.295 NA
ATOM     26  C   UNL     1       9.585   2.033  23.515  0.00  0.00    +0.112 C 
ATOM     27  C   UNL     1       8.531   1.701  24.589  0.00  0.00    +0.175 C 
ATOM     28  O   UNL     1       7.473   2.668  24.627  0.00  0.00    -0.377 OA
ATOM     29  C   UNL     1       6.872   2.819  23.336  0.00  0.00    +0.175 C 
ATOM     30  C   UNL     1       7.923   3.239  22.300  0.00  0.00    +0.112 C 
ENDBRANCH  24  25
ENDBRANCH  23  24
ENDBRANCH  22  23
ENDBRANCH  11  22
TORSDOF 5
ENDMDL
MODEL 9
REMARK VINA RESULT:      -6.4      1.853      6.559
REMARK  Name = 
REMARK  6 active torsions:
REMARK  status: ('A' for Active; 'I' for Inactive)
REMARK    1  A    between atoms: C_5  and  O_6
REMARK    2  A    between atoms: O_6  and  C_7
REMARK    3  A    between atoms: C_7  and  C_8
REMARK    4  A    between atoms: C_8  and  N_9
REMARK    5  A    between atoms: N_22  and  C_23
REMARK    6  A    between atoms: C_31  and  O_33
REMARK                            x       y       z     vdW  Elec       q    Type
REMARK                         _______ _______ _______ _____ _____    ______ ____
ROOT
ATOM      1  C   UNL     1       9.860   1.397  23.308  0.00  0.00    +0.217 C 
ATOM      2  C   UNL     1       9.677   0.954  21.839  0.00  0.00    +0.178 C 
ATOM      3  C   UNL     1       8.353   1.200  21.180  0.00  0.00    +0.004 C 
ATOM      4  C   UNL     1       7.515   2.181  21.538  0.00  0.00    -0.023 C 
ATOM      5  C   UNL     1       7.541   2.621  22.960  0.00  0.00    +0.043 C 
ATOM      6  C   UNL     1       6.829   3.847  23.539  0.00  0.00    +0.068 C 
ATOM      7  C   UNL     1       6.416   3.404  25.056  0.00  0.00    +0.055 C 
ATOM      8  C   UNL     1       7.079   2.123  25.573  0.00  0.00    -0.038 A 
ATOM      9  C   UNL     1       8.258   1.690  24.950  0.00  0.00    +0.012 A 
ATOM     10  C   UNL     1       8.879   0.466  25.126  0.00  0.00    +0.167 A 
ATOM     11  C   UNL     1       8.391  -0.422  26.050  0.00  0.00    +0.162 A 
ATOM     12  C   UNL     1       7.219  -0.022  26.751  0.00  0.00    +0.050 A 
ATOM     13  C   UNL     1       6.566   1.221  26.511  0.00  0.00    +0.008 A 
ATOM     14  N   UNL     1       7.638   5.092  23.423  0.00  0.00    -0.301 NA
ATOM     15  C   UNL     1       7.497   5.723  22.098  0.00  0.00    +0.105 C 
ATOM     16  C   UNL     1       9.086   4.937  23.662  0.00  0.00    +0.085 C 
ATOM     17  C   UNL     1       9.439   3.702  24.453  0.00  0.00    +0.031 C 
ATOM     18  C   UNL     1       8.832   2.433  23.801  0.00  0.00    +0.048 C 
ATOM     19  O   UNL     1       9.872   0.254  24.206  0.00  0.00    -0.481 OA
ENDROOT
BRANCH   2  20
ATOM     20  O   UNL     1      10.038  -0.411  21.665  0.00  0.00    -0.384 OA
ATOM     21  H   UNL     1       9.294  -0.933  22.028  0.00  0.00    +0.210 HD
ENDBRANCH   2  20
BRANCH  11  22
ATOM     22  O   UNL     1       9.061  -1.614  26.192  0.00  0.00    -0.487 OA
BRANCH  22  23
ATOM     23  C   UNL     1       8.237  -2.737  26.497  0.00  0.00    +0.244 C 
BRANCH  23  24
ATOM     24  C   UNL     1       8.176  -3.746  25.331  0.00  0.00    +0.125 C 
BRANCH  24  25
ATOM     25  N   UNL     1       6.840  -3.774  24.690  0.00  0.00    -0.295 NA
ATOM     26  C   UNL     1       6.540  -5.083  24.062  0.00  0.00    +0.112 C 
ATOM     27  C   UNL     1       7.267  -5.332  22.727  0.00  0.00    +0.175 C 
ATOM     28  O   UNL     1       7.074  -4.260  21.795  0.00  0.00    -0.377 OA
ATOM     29  C   UNL     1       7.459  -3.007  22.372  0.00  0.00    +0.175 C 
ATOM     30  C   UNL     1       6.657  -2.735  23.651  0.00  0.00    +0.112 C 
ENDBRANCH  24  25
ENDBRANCH  23  24
ENDBRANCH  22  23
ENDBRANCH  11  22
TORSDOF 5
ENDMDL
