MODEL 1
REMARK VINA RESULT:      -6.2      0.000      0.000
REMARK  Name = 
REMARK  12 active torsions:
REMARK  status: ('A' for Active; 'I' for Inactive)
REMARK    1  A    between atoms: O_1  and  C_2
REMARK    2  A    between atoms: C_2  and  C_3
REMARK    3  A    between atoms: C_6  and  O_8
REMARK    4  A    between atoms: O_8  and  C_9
REMARK    5  A    between atoms: C_11  and  O_13
REMARK    6  A    between atoms: C_14  and  O_16
REMARK    7  A    between atoms: C_17  and  O_19
REMARK    8  A    between atoms: C_21  and  C_23
REMARK    9  A    between atoms: C_23  and  O_24
REMARK   10  A    between atoms: C_25  and  O_27
REMARK   11  A    between atoms: C_28  and  O_30
REMARK   12  A    between atoms: C_31  and  O_33
REMARK                            x       y       z     vdW  Elec       q    Type
REMARK                         _______ _______ _______ _____ _____    ______ ____
ROOT
ATOM      1  O   UNL     1       8.214  -2.386  23.667  0.00  0.00    -0.340 OA
ENDROOT
BRANCH   1   6
ATOM      2  C   UNL     1       8.094   0.450  24.551  0.00  0.00    +0.178 C 
ATOM      3  C   UNL     1       8.273   1.258  23.268  0.00  0.00    +0.177 C 
ATOM      4  C   UNL     1       8.605   0.319  22.096  0.00  0.00    +0.179 C 
ATOM      5  C   UNL     1       9.665  -0.729  22.468  0.00  0.00    +0.201 C 
ATOM      6  C   UNL     1       9.333  -1.456  23.789  0.00  0.00    +0.282 C 
ATOM      7  O   UNL     1       9.168  -0.468  24.805  0.00  0.00    -0.341 OA
BRANCH   3   8
ATOM      8  O   UNL     1       7.054   1.968  22.985  0.00  0.00    -0.386 OA
ATOM      9  H   UNL     1       7.196   2.914  23.172  0.00  0.00    +0.210 HD
ENDBRANCH   3   8
BRANCH   4  10
ATOM     10  O   UNL     1       9.089   1.100  20.989  0.00  0.00    -0.386 OA
ATOM     11  H   UNL     1       9.112   0.512  20.210  0.00  0.00    +0.210 HD
ENDBRANCH   4  10
BRANCH   5  12
ATOM     12  O   UNL     1       9.844  -1.640  21.374  0.00  0.00    -0.384 OA
ATOM     13  H   UNL     1       8.958  -1.873  21.055  0.00  0.00    +0.210 HD
ENDBRANCH   5  12
BRANCH   2  14
ATOM     14  C   UNL     1       7.873   1.317  25.798  0.00  0.00    +0.190 C 
BRANCH  14  15
ATOM     15  O   UNL     1       8.005   0.552  26.993  0.00  0.00    -0.392 OA
ATOM     16  H   UNL     1       8.345   1.165  27.669  0.00  0.00    +0.210 HD
ENDBRANCH  14  15
ENDBRANCH   2  14
ENDBRANCH   1   6
BRANCH   1  17
ATOM     17  C   UNL     1       8.616  -3.772  23.906  0.00  0.00    +0.183 C 
ATOM     18  C   UNL     1       7.417  -4.770  24.100  0.00  0.00    +0.178 C 
ATOM     19  O   UNL     1       6.764  -4.681  25.391  0.00  0.00    -0.341 OA
ATOM     20  C   UNL     1       7.639  -4.833  26.514  0.00  0.00    +0.279 C 
ATOM     21  C   UNL     1       8.671  -3.716  26.448  0.00  0.00    +0.201 C 
ATOM     22  C   UNL     1       9.508  -3.885  25.161  0.00  0.00    +0.179 C 
BRANCH  20  23
ATOM     23  O   UNL     1       8.255  -6.113  26.554  0.00  0.00    -0.365 OA
ATOM     24  H   UNL     1       8.897  -6.073  27.282  0.00  0.00    +0.213 HD
ENDBRANCH  20  23
BRANCH  21  25
ATOM     25  O   UNL     1       7.943  -2.484  26.503  0.00  0.00    -0.384 OA
ATOM     26  H   UNL     1       8.524  -1.805  26.090  0.00  0.00    +0.210 HD
ENDBRANCH  21  25
BRANCH  22  27
ATOM     27  O   UNL     1      10.239  -5.120  25.145  0.00  0.00    -0.386 OA
ATOM     28  H   UNL     1      11.198  -4.923  25.190  0.00  0.00    +0.210 HD
ENDBRANCH  22  27
BRANCH  18  29
ATOM     29  C   UNL     1       6.299  -4.627  23.067  0.00  0.00    +0.190 C 
BRANCH  29  30
ATOM     30  O   UNL     1       6.819  -4.004  21.886  0.00  0.00    -0.392 OA
ATOM     31  H   UNL     1       6.058  -3.888  21.284  0.00  0.00    +0.210 HD
ENDBRANCH  29  30
ENDBRANCH  18  29
ENDBRANCH   1  17
TORSDOF 12
ENDMDL
MODEL 2
REMARK VINA RESULT:      -6.1      1.644      6.151
REMARK  Name = 
REMARK  12 active torsions:
REMARK  status: ('A' for Active; 'I' for Inactive)
REMARK    1  A    between atoms: O_1  and  C_2
REMARK    2  A    between atoms: C_2  and  C_3
REMARK    3  A    between atoms: C_6  and  O_8
REMARK    4  A    between atoms: O_8  and  C_9
REMARK    5  A    between atoms: C_11  and  O_13
REMARK    6  A    between atoms: C_14  and  O_16
REMARK    7  A    between atoms: C_17  and  O_19
REMARK    8  A    between atoms: C_21  and  C_23
REMARK    9  A    between atoms: C_23  and  O_24
REMARK   10  A    between atoms: C_25  and  O_27
REMARK   11  A    between atoms: C_28  and  O_30
REMARK   12  A    between atoms: C_31  and  O_33
REMARK                            x       y       z     vdW  Elec       q    Type
REMARK                         _______ _______ _______ _____ _____    ______ ____
ROOT
ATOM      1  O   UNL     1       8.227  -2.935  25.008  0.00  0.00    -0.340 OA
ENDROOT
BRANCH   1   6
ATOM      2  C   UNL     1       6.199  -5.062  24.559  0.00  0.00    +0.178 C 
ATOM      3  C   UNL     1       6.148  -5.826  25.880  0.00  0.00    +0.177 C 
ATOM      4  C   UNL     1       7.250  -5.318  26.826  0.00  0.00    +0.179 C 
ATOM      5  C   UNL     1       8.600  -5.154  26.114  0.00  0.00    +0.201 C 
ATOM      6  C   UNL     1       8.479  -4.357  24.797  0.00  0.00    +0.282 C 
ATOM      7  O   UNL     1       7.511  -5.010  23.977  0.00  0.00    -0.341 OA
BRANCH   3   8
ATOM      8  O   UNL     1       4.860  -5.626  26.490  0.00  0.00    -0.386 OA
ATOM      9  H   UNL     1       4.186  -6.066  25.942  0.00  0.00    +0.210 HD
ENDBRANCH   3   8
BRANCH   4  10
ATOM     10  O   UNL     1       7.404  -6.249  27.912  0.00  0.00    -0.386 OA
ATOM     11  H   UNL     1       6.508  -6.519  28.188  0.00  0.00    +0.210 HD
ENDBRANCH   4  10
BRANCH   5  12
ATOM     12  O   UNL     1       9.551  -4.572  27.017  0.00  0.00    -0.384 OA
ATOM     13  H   UNL     1       9.946  -3.813  26.559  0.00  0.00    +0.210 HD
ENDBRANCH   5  12
BRANCH   2  14
ATOM     14  C   UNL     1       5.207  -5.581  23.509  0.00  0.00    +0.190 C 
BRANCH  14  15
ATOM     15  O   UNL     1       4.809  -6.920  23.787  0.00  0.00    -0.392 OA
ATOM     16  H   UNL     1       5.378  -7.490  23.238  0.00  0.00    +0.210 HD
ENDBRANCH  14  15
ENDBRANCH   2  14
ENDBRANCH   1   6
BRANCH   1  17
ATOM     17  C   UNL     1       9.300  -2.096  24.477  0.00  0.00    +0.183 C 
ATOM     18  C   UNL     1       9.040  -0.551  24.604  0.00  0.00    +0.178 C 
ATOM     19  O   UNL     1       8.083  -0.023  23.652  0.00  0.00    -0.341 OA
ATOM     20  C   UNL     1       8.392  -0.297  22.281  0.00  0.00    +0.279 C 
ATOM     21  C   UNL     1       8.416  -1.810  22.108  0.00  0.00    +0.201 C 
ATOM     22  C   UNL     1       9.550  -2.393  22.982  0.00  0.00    +0.179 C 
BRANCH  20  23
ATOM     23  O   UNL     1       9.616   0.297  21.869  0.00  0.00    -0.365 OA
ATOM     24  H   UNL     1       9.744   0.022  20.947  0.00  0.00    +0.213 HD
ENDBRANCH  20  23
BRANCH  21  25
ATOM     25  O   UNL     1       7.114  -2.283  22.467  0.00  0.00    -0.384 OA
ATOM     26  H   UNL     1       6.885  -2.979  21.809  0.00  0.00    +0.210 HD
ENDBRANCH  21  25
BRANCH  22  27
ATOM     27  O   UNL     1      10.844  -1.913  22.587  0.00  0.00    -0.386 OA
ATOM     28  H   UNL     1      10.743  -1.034  22.167  0.00  0.00    +0.210 HD
ENDBRANCH  22  27
BRANCH  18  29
ATOM     29  C   UNL     1       8.538  -0.104  25.977  0.00  0.00    +0.190 C 
BRANCH  29  30
ATOM     30  O   UNL     1       9.026  -1.005  26.979  0.00  0.00    -0.392 OA
ATOM     31  H   UNL     1       9.344  -1.795  26.501  0.00  0.00    +0.210 HD
ENDBRANCH  29  30
ENDBRANCH  18  29
ENDBRANCH   1  17
TORSDOF 12
ENDMDL
MODEL 3
REMARK VINA RESULT:      -5.9      1.587      5.808
REMARK  Name = 
REMARK  12 active torsions:
REMARK  status: ('A' for Active; 'I' for Inactive)
REMARK    1  A    between atoms: O_1  and  C_2
REMARK    2  A    between atoms: C_2  and  C_3
REMARK    3  A    between atoms: C_6  and  O_8
REMARK    4  A    between atoms: O_8  and  C_9
REMARK    5  A    between atoms: C_11  and  O_13
REMARK    6  A    between atoms: C_14  and  O_16
REMARK    7  A    between atoms: C_17  and  O_19
REMARK    8  A    between atoms: C_21  and  C_23
REMARK    9  A    between atoms: C_23  and  O_24
REMARK   10  A    between atoms: C_25  and  O_27
REMARK   11  A    between atoms: C_28  and  O_30
REMARK   12  A    between atoms: C_31  and  O_33
REMARK                            x       y       z     vdW  Elec       q    Type
REMARK                         _______ _______ _______ _____ _____    ______ ____
ROOT
ATOM      1  O   UNL     1       8.577  -1.108  24.036  0.00  0.00    -0.340 OA
ENDROOT
BRANCH   1   6
ATOM      2  C   UNL     1       8.582  -3.838  25.213  0.00  0.00    +0.178 C 
ATOM      3  C   UNL     1       7.750  -4.674  24.243  0.00  0.00    +0.177 C 
ATOM      4  C   UNL     1       7.119  -3.766  23.173  0.00  0.00    +0.179 C 
ATOM      5  C   UNL     1       6.504  -2.495  23.774  0.00  0.00    +0.201 C 
ATOM      6  C   UNL     1       7.474  -1.767  24.730  0.00  0.00    +0.282 C 
ATOM      7  O   UNL     1       7.883  -2.696  25.732  0.00  0.00    -0.341 OA
BRANCH   3   8
ATOM      8  O   UNL     1       8.602  -5.645  23.610  0.00  0.00    -0.386 OA
ATOM      9  H   UNL     1       8.882  -6.295  24.279  0.00  0.00    +0.210 HD
ENDBRANCH   3   8
BRANCH   4  10
ATOM     10  O   UNL     1       6.094  -4.499  22.480  0.00  0.00    -0.386 OA
ATOM     11  H   UNL     1       6.441  -4.710  21.593  0.00  0.00    +0.210 HD
ENDBRANCH   4  10
BRANCH   5  12
ATOM     12  O   UNL     1       6.037  -1.642  22.718  0.00  0.00    -0.384 OA
ATOM     13  H   UNL     1       6.379  -2.010  21.888  0.00  0.00    +0.210 HD
ENDBRANCH   5  12
BRANCH   2  14
ATOM     14  C   UNL     1       9.158  -4.645  26.385  0.00  0.00    +0.190 C 
BRANCH  14  15
ATOM     15  O   UNL     1      10.214  -5.501  25.957  0.00  0.00    -0.392 OA
ATOM     16  H   UNL     1      10.988  -5.264  26.499  0.00  0.00    +0.210 HD
ENDBRANCH  14  15
ENDBRANCH   2  14
ENDBRANCH   1   6
BRANCH   1  17
ATOM     17  C   UNL     1       8.155   0.122  23.367  0.00  0.00    +0.183 C 
ATOM     18  C   UNL     1       9.021   0.508  22.112  0.00  0.00    +0.178 C 
ATOM     19  O   UNL     1      10.322   1.061  22.427  0.00  0.00    -0.341 OA
ATOM     20  C   UNL     1      10.292   2.199  23.296  0.00  0.00    +0.279 C 
ATOM     21  C   UNL     1       9.656   1.759  24.608  0.00  0.00    +0.201 C 
ATOM     22  C   UNL     1       8.199   1.325  24.334  0.00  0.00    +0.179 C 
BRANCH  20  23
ATOM     23  O   UNL     1       9.603   3.303  22.724  0.00  0.00    -0.365 OA
ATOM     24  H   UNL     1      10.167   3.616  21.997  0.00  0.00    +0.213 HD
ENDBRANCH  20  23
BRANCH  21  25
ATOM     25  O   UNL     1      10.479   0.711  25.130  0.00  0.00    -0.384 OA
ATOM     26  H   UNL     1      10.469   0.817  26.108  0.00  0.00    +0.210 HD
ENDBRANCH  21  25
BRANCH  22  27
ATOM     27  O   UNL     1       7.395   2.402  23.829  0.00  0.00    -0.386 OA
ATOM     28  H   UNL     1       6.568   2.034  23.454  0.00  0.00    +0.210 HD
ENDBRANCH  22  27
BRANCH  18  29
ATOM     29  C   UNL     1       9.291  -0.649  21.150  0.00  0.00    +0.190 C 
BRANCH  29  30
ATOM     30  O   UNL     1      10.277  -1.521  21.718  0.00  0.00    -0.392 OA
ATOM     31  H   UNL     1      11.138  -1.224  21.364  0.00  0.00    +0.210 HD
ENDBRANCH  29  30
ENDBRANCH  18  29
ENDBRANCH   1  17
TORSDOF 12
ENDMDL
MODEL 4
REMARK VINA RESULT:      -5.8      1.676      5.721
REMARK  Name = 
REMARK  12 active torsions:
REMARK  status: ('A' for Active; 'I' for Inactive)
REMARK    1  A    between atoms: O_1  and  C_2
REMARK    2  A    between atoms: C_2  and  C_3
REMARK    3  A    between atoms: C_6  and  O_8
REMARK    4  A    between atoms: O_8  and  C_9
REMARK    5  A    between atoms: C_11  and  O_13
REMARK    6  A    between atoms: C_14  and  O_16
REMARK    7  A    between atoms: C_17  and  O_19
REMARK    8  A    between atoms: C_21  and  C_23
REMARK    9  A    between atoms: C_23  and  O_24
REMARK   10  A    between atoms: C_25  and  O_27
REMARK   11  A    between atoms: C_28  and  O_30
REMARK   12  A    between atoms: C_31  and  O_33
REMARK                            x       y       z     vdW  Elec       q    Type
REMARK                         _______ _______ _______ _____ _____    ______ ____
ROOT
ATOM      1  O   UNL     1       7.923  -1.383  23.807  0.00  0.00    -0.340 OA
ENDROOT
BRANCH   1   6
ATOM      2  C   UNL     1       8.522  -4.064  24.945  0.00  0.00    +0.178 C 
ATOM      3  C   UNL     1       7.701  -5.031  24.095  0.00  0.00    +0.177 C 
ATOM      4  C   UNL     1       6.790  -4.247  23.135  0.00  0.00    +0.179 C 
ATOM      5  C   UNL     1       6.076  -3.079  23.830  0.00  0.00    +0.201 C 
ATOM      6  C   UNL     1       7.047  -2.196  24.644  0.00  0.00    +0.282 C 
ATOM      7  O   UNL     1       7.733  -3.038  25.569  0.00  0.00    -0.341 OA
BRANCH   3   8
ATOM      8  O   UNL     1       8.595  -5.866  23.337  0.00  0.00    -0.386 OA
ATOM      9  H   UNL     1       8.540  -6.774  23.684  0.00  0.00    +0.210 HD
ENDBRANCH   3   8
BRANCH   4  10
ATOM     10  O   UNL     1       5.804  -5.139  22.588  0.00  0.00    -0.386 OA
ATOM     11  H   UNL     1       5.856  -5.064  21.616  0.00  0.00    +0.210 HD
ENDBRANCH   4  10
BRANCH   5  12
ATOM     12  O   UNL     1       5.337  -2.322  22.859  0.00  0.00    -0.384 OA
ATOM     13  H   UNL     1       4.668  -1.817  23.347  0.00  0.00    +0.210 HD
ENDBRANCH   5  12
BRANCH   2  14
ATOM     14  C   UNL     1       9.377  -4.757  26.015  0.00  0.00    +0.190 C 
BRANCH  14  15
ATOM     15  O   UNL     1      10.391  -5.566  25.425  0.00  0.00    -0.392 OA
ATOM     16  H   UNL     1      10.721  -6.144  26.136  0.00  0.00    +0.210 HD
ENDBRANCH  14  15
ENDBRANCH   2  14
ENDBRANCH   1   6
BRANCH   1  17
ATOM     17  C   UNL     1       8.502  -0.257  24.540  0.00  0.00    +0.183 C 
ATOM     18  C   UNL     1       8.065   1.157  24.008  0.00  0.00    +0.178 C 
ATOM     19  O   UNL     1       8.708   1.560  22.774  0.00  0.00    -0.341 OA
ATOM     20  C   UNL     1      10.140   1.537  22.812  0.00  0.00    +0.279 C 
ATOM     21  C   UNL     1      10.569   0.105  23.102  0.00  0.00    +0.201 C 
ATOM     22  C   UNL     1      10.045  -0.300  24.498  0.00  0.00    +0.179 C 
BRANCH  20  23
ATOM     23  O   UNL     1      10.673   2.446  23.765  0.00  0.00    -0.365 OA
ATOM     24  H   UNL     1       9.906   2.816  24.233  0.00  0.00    +0.213 HD
ENDBRANCH  20  23
BRANCH  21  25
ATOM     25  O   UNL     1      10.051  -0.701  22.038  0.00  0.00    -0.384 OA
ATOM     26  H   UNL     1       9.166  -1.011  22.336  0.00  0.00    +0.210 HD
ENDBRANCH  21  25
BRANCH  22  27
ATOM     27  O   UNL     1      10.596   0.513  25.544  0.00  0.00    -0.386 OA
ATOM     28  H   UNL     1      11.091  -0.060  26.166  0.00  0.00    +0.210 HD
ENDBRANCH  22  27
BRANCH  18  29
ATOM     29  C   UNL     1       6.565   1.301  23.753  0.00  0.00    +0.190 C 
BRANCH  29  30
ATOM     30  O   UNL     1       6.207   0.559  22.580  0.00  0.00    -0.392 OA
ATOM     31  H   UNL     1       6.687  -0.290  22.640  0.00  0.00    +0.210 HD
ENDBRANCH  29  30
ENDBRANCH  18  29
ENDBRANCH   1  17
TORSDOF 12
ENDMDL
MODEL 5
REMARK VINA RESULT:      -5.7      1.574      5.860
REMARK  Name = 
REMARK  12 active torsions:
REMARK  status: ('A' for Active; 'I' for Inactive)
REMARK    1  A    between atoms: O_1  and  C_2
REMARK    2  A    between atoms: C_2  and  C_3
REMARK    3  A    between atoms: C_6  and  O_8
REMARK    4  A    between atoms: O_8  and  C_9
REMARK    5  A    between atoms: C_11  and  O_13
REMARK    6  A    between atoms: C_14  and  O_16
REMARK    7  A    between atoms: C_17  and  O_19
REMARK    8  A    between atoms: C_21  and  C_23
REMARK    9  A    between atoms: C_23  and  O_24
REMARK   10  A    between atoms: C_25  and  O_27
REMARK   11  A    between atoms: C_28  and  O_30
REMARK   12  A    between atoms: C_31  and  O_33
REMARK                            x       y       z     vdW  Elec       q    Type
REMARK                         _______ _______ _______ _____ _____    ______ ____
ROOT
ATOM      1  O   UNL     1       7.893  -1.869  24.896  0.00  0.00    -0.340 OA
ENDROOT
BRANCH   1   6
ATOM      2  C   UNL     1       6.766  -4.478  25.767  0.00  0.00    +0.178 C 
ATOM      3  C   UNL     1       7.988  -5.361  26.007  0.00  0.00    +0.177 C 
ATOM      4  C   UNL     1       9.263  -4.630  25.553  0.00  0.00    +0.179 C 
ATOM      5  C   UNL     1       9.093  -3.952  24.186  0.00  0.00    +0.201 C 
ATOM      6  C   UNL     1       7.811  -3.096  24.110  0.00  0.00    +0.282 C 
ATOM      7  O   UNL     1       6.704  -3.933  24.441  0.00  0.00    -0.341 OA
BRANCH   3   8
ATOM      8  O   UNL     1       8.081  -5.665  27.410  0.00  0.00    -0.386 OA
ATOM      9  H   UNL     1       8.938  -6.096  27.578  0.00  0.00    +0.210 HD
ENDBRANCH   3   8
BRANCH   4  10
ATOM     10  O   UNL     1      10.345  -5.576  25.474  0.00  0.00    -0.386 OA
ATOM     11  H   UNL     1      11.173  -5.062  25.425  0.00  0.00    +0.210 HD
ENDBRANCH   4  10
BRANCH   5  12
ATOM     12  O   UNL     1      10.273  -3.196  23.875  0.00  0.00    -0.384 OA
ATOM     13  H   UNL     1      10.253  -3.025  22.921  0.00  0.00    +0.210 HD
ENDBRANCH   5  12
BRANCH   2  14
ATOM     14  C   UNL     1       5.434  -5.172  26.085  0.00  0.00    +0.190 C 
BRANCH  14  15
ATOM     15  O   UNL     1       5.603  -6.578  26.235  0.00  0.00    -0.392 OA
ATOM     16  H   UNL     1       4.731  -6.927  26.495  0.00  0.00    +0.210 HD
ENDBRANCH  14  15
ENDBRANCH   2  14
ENDBRANCH   1   6
BRANCH   1  17
ATOM     17  C   UNL     1       7.119  -0.778  24.305  0.00  0.00    +0.183 C 
ATOM     18  C   UNL     1       7.990   0.348  23.637  0.00  0.00    +0.178 C 
ATOM     19  O   UNL     1       8.636   1.244  24.575  0.00  0.00    -0.341 OA
ATOM     20  C   UNL     1       7.749   1.878  25.503  0.00  0.00    +0.279 C 
ATOM     21  C   UNL     1       7.072   0.782  26.314  0.00  0.00    +0.201 C 
ATOM     22  C   UNL     1       6.226  -0.093  25.362  0.00  0.00    +0.179 C 
BRANCH  20  23
ATOM     23  O   UNL     1       6.799   2.717  24.860  0.00  0.00    -0.365 OA
ATOM     24  H   UNL     1       6.724   3.507  25.421  0.00  0.00    +0.213 HD
ENDBRANCH  20  23
BRANCH  21  25
ATOM     25  O   UNL     1       8.115   0.063  26.981  0.00  0.00    -0.384 OA
ATOM     26  H   UNL     1       8.681  -0.317  26.271  0.00  0.00    +0.210 HD
ENDBRANCH  21  25
BRANCH  22  27
ATOM     27  O   UNL     1       5.178   0.653  24.724  0.00  0.00    -0.386 OA
ATOM     28  H   UNL     1       5.431   1.599  24.697  0.00  0.00    +0.210 HD
ENDBRANCH  22  27
BRANCH  18  29
ATOM     29  C   UNL     1       9.107  -0.170  22.731  0.00  0.00    +0.190 C 
BRANCH  29  30
ATOM     30  O   UNL     1      10.287  -0.399  23.512  0.00  0.00    -0.392 OA
ATOM     31  H   UNL     1      10.165  -1.272  23.935  0.00  0.00    +0.210 HD
ENDBRANCH  29  30
ENDBRANCH  18  29
ENDBRANCH   1  17
TORSDOF 12
ENDMDL
MODEL 6
REMARK VINA RESULT:      -5.7      1.679      5.971
REMARK  Name = 
REMARK  12 active torsions:
REMARK  status: ('A' for Active; 'I' for Inactive)
REMARK    1  A    between atoms: O_1  and  C_2
REMARK    2  A    between atoms: C_2  and  C_3
REMARK    3  A    between atoms: C_6  and  O_8
REMARK    4  A    between atoms: O_8  and  C_9
REMARK    5  A    between atoms: C_11  and  O_13
REMARK    6  A    between atoms: C_14  and  O_16
REMARK    7  A    between atoms: C_17  and  O_19
REMARK    8  A    between atoms: C_21  and  C_23
REMARK    9  A    between atoms: C_23  and  O_24
REMARK   10  A    between atoms: C_25  and  O_27
REMARK   11  A    between atoms: C_28  and  O_30
REMARK   12  A    between atoms: C_31  and  O_33
REMARK                            x       y       z     vdW  Elec       q    Type
REMARK                         _______ _______ _______ _____ _____    ______ ____
ROOT
ATOM      1  O   UNL     1       7.914  -1.062  24.560  0.00  0.00    -0.340 OA
ENDROOT
BRANCH   1   6
ATOM      2  C   UNL     1       8.460  -3.833  25.490  0.00  0.00    +0.178 C 
ATOM      3  C   UNL     1       7.090  -4.377  25.890  0.00  0.00    +0.177 C 
ATOM      4  C   UNL     1       6.036  -3.259  25.818  0.00  0.00    +0.179 C 
ATOM      5  C   UNL     1       6.529  -1.950  26.452  0.00  0.00    +0.201 C 
ATOM      6  C   UNL     1       7.926  -1.538  25.940  0.00  0.00    +0.282 C 
ATOM      7  O   UNL     1       8.819  -2.625  26.178  0.00  0.00    -0.341 OA
BRANCH   3   8
ATOM      8  O   UNL     1       6.726  -5.440  24.991  0.00  0.00    -0.386 OA
ATOM      9  H   UNL     1       5.796  -5.679  25.153  0.00  0.00    +0.210 HD
ENDBRANCH   3   8
BRANCH   4  10
ATOM     10  O   UNL     1       4.846  -3.690  26.501  0.00  0.00    -0.386 OA
ATOM     11  H   UNL     1       4.375  -4.300  25.902  0.00  0.00    +0.210 HD
ENDBRANCH   4  10
BRANCH   5  12
ATOM     12  O   UNL     1       5.549  -0.921  26.250  0.00  0.00    -0.384 OA
ATOM     13  H   UNL     1       5.853  -0.144  26.746  0.00  0.00    +0.210 HD
ENDBRANCH   5  12
BRANCH   2  14
ATOM     14  C   UNL     1       9.597  -4.852  25.643  0.00  0.00    +0.190 C 
BRANCH  14  15
ATOM     15  O   UNL     1       9.606  -5.785  24.566  0.00  0.00    -0.392 OA
ATOM     16  H   UNL     1      10.344  -6.395  24.746  0.00  0.00    +0.210 HD
ENDBRANCH  14  15
ENDBRANCH   2  14
ENDBRANCH   1   6
BRANCH   1  17
ATOM     17  C   UNL     1       8.685   0.169  24.391  0.00  0.00    +0.183 C 
ATOM     18  C   UNL     1       7.949   1.288  23.566  0.00  0.00    +0.178 C 
ATOM     19  O   UNL     1       7.910   1.053  22.137  0.00  0.00    -0.341 OA
ATOM     20  C   UNL     1       9.190   0.842  21.531  0.00  0.00    +0.279 C 
ATOM     21  C   UNL     1       9.808  -0.390  22.178  0.00  0.00    +0.201 C 
ATOM     22  C   UNL     1      10.028  -0.108  23.681  0.00  0.00    +0.179 C 
BRANCH  20  23
ATOM     23  O   UNL     1      10.040   1.976  21.648  0.00  0.00    -0.365 OA
ATOM     24  H   UNL     1      10.653   1.771  22.373  0.00  0.00    +0.213 HD
ENDBRANCH  20  23
BRANCH  21  25
ATOM     25  O   UNL     1       8.912  -1.478  21.923  0.00  0.00    -0.384 OA
ATOM     26  H   UNL     1       9.442  -2.165  21.459  0.00  0.00    +0.210 HD
ENDBRANCH  21  25
BRANCH  22  27
ATOM     27  O   UNL     1      10.943   0.975  23.904  0.00  0.00    -0.386 OA
ATOM     28  H   UNL     1      10.461   1.720  24.320  0.00  0.00    +0.210 HD
ENDBRANCH  22  27
BRANCH  18  29
ATOM     29  C   UNL     1       6.497   1.528  23.980  0.00  0.00    +0.190 C 
BRANCH  29  30
ATOM     30  O   UNL     1       5.724   0.352  23.711  0.00  0.00    -0.392 OA
ATOM     31  H   UNL     1       5.883  -0.255  24.460  0.00  0.00    +0.210 HD
ENDBRANCH  29  30
ENDBRANCH  18  29
ENDBRANCH   1  17
TORSDOF 12
ENDMDL
MODEL 7
REMARK VINA RESULT:      -5.6      1.957      6.081
REMARK  Name = 
REMARK  12 active torsions:
REMARK  status: ('A' for Active; 'I' for Inactive)
REMARK    1  A    between atoms: O_1  and  C_2
REMARK    2  A    between atoms: C_2  and  C_3
REMARK    3  A    between atoms: C_6  and  O_8
REMARK    4  A    between atoms: O_8  and  C_9
REMARK    5  A    between atoms: C_11  and  O_13
REMARK    6  A    between atoms: C_14  and  O_16
REMARK    7  A    between atoms: C_17  and  O_19
REMARK    8  A    between atoms: C_21  and  C_23
REMARK    9  A    between atoms: C_23  and  O_24
REMARK   10  A    between atoms: C_25  and  O_27
REMARK   11  A    between atoms: C_28  and  O_30
REMARK   12  A    between atoms: C_31  and  O_33
REMARK                            x       y       z     vdW  Elec       q    Type
REMARK                         _______ _______ _______ _____ _____    ______ ____
ROOT
ATOM      1  O   UNL     1       7.583  -1.782  23.273  0.00  0.00    -0.340 OA
ENDROOT
BRANCH   1   6
ATOM      2  C   UNL     1       6.643  -4.490  22.484  0.00  0.00    +0.178 C 
ATOM      3  C   UNL     1       5.461  -4.769  23.409  0.00  0.00    +0.177 C 
ATOM      4  C   UNL     1       5.338  -3.651  24.459  0.00  0.00    +0.179 C 
ATOM      5  C   UNL     1       6.693  -3.279  25.078  0.00  0.00    +0.201 C 
ATOM      6  C   UNL     1       7.779  -3.028  24.009  0.00  0.00    +0.282 C 
ATOM      7  O   UNL     1       7.860  -4.190  23.184  0.00  0.00    -0.341 OA
BRANCH   3   8
ATOM      8  O   UNL     1       4.255  -4.828  22.626  0.00  0.00    -0.386 OA
ATOM      9  H   UNL     1       3.983  -5.760  22.546  0.00  0.00    +0.210 HD
ENDBRANCH   3   8
BRANCH   4  10
ATOM     10  O   UNL     1       4.450  -4.083  25.505  0.00  0.00    -0.386 OA
ATOM     11  H   UNL     1       4.084  -4.946  25.233  0.00  0.00    +0.210 HD
ENDBRANCH   4  10
BRANCH   5  12
ATOM     12  O   UNL     1       6.528  -2.159  25.959  0.00  0.00    -0.384 OA
ATOM     13  H   UNL     1       7.223  -2.225  26.632  0.00  0.00    +0.210 HD
ENDBRANCH   5  12
BRANCH   2  14
ATOM     14  C   UNL     1       6.913  -5.614  21.474  0.00  0.00    +0.190 C 
BRANCH  14  15
ATOM     15  O   UNL     1       5.982  -5.578  20.396  0.00  0.00    -0.392 OA
ATOM     16  H   UNL     1       5.590  -4.686  20.409  0.00  0.00    +0.210 HD
ENDBRANCH  14  15
ENDBRANCH   2  14
ENDBRANCH   1   6
BRANCH   1  17
ATOM     17  C   UNL     1       8.299  -0.661  23.880  0.00  0.00    +0.183 C 
ATOM     18  C   UNL     1       7.848   0.754  23.363  0.00  0.00    +0.178 C 
ATOM     19  O   UNL     1       8.331   1.092  22.039  0.00  0.00    -0.341 OA
ATOM     20  C   UNL     1       9.753   1.009  21.884  0.00  0.00    +0.279 C 
ATOM     21  C   UNL     1      10.163  -0.431  22.164  0.00  0.00    +0.201 C 
ATOM     22  C   UNL     1       9.819  -0.771  23.631  0.00  0.00    +0.179 C 
BRANCH  20  23
ATOM     23  O   UNL     1      10.446   1.923  22.722  0.00  0.00    -0.365 OA
ATOM     24  H   UNL     1      10.758   1.400  23.479  0.00  0.00    +0.213 HD
ENDBRANCH  20  23
BRANCH  21  25
ATOM     25  O   UNL     1       9.473  -1.245  21.209  0.00  0.00    -0.384 OA
ATOM     26  H   UNL     1       8.611  -0.801  21.043  0.00  0.00    +0.210 HD
ENDBRANCH  21  25
BRANCH  22  27
ATOM     27  O   UNL     1      10.539   0.049  24.564  0.00  0.00    -0.386 OA
ATOM     28  H   UNL     1       9.897   0.516  25.139  0.00  0.00    +0.210 HD
ENDBRANCH  22  27
BRANCH  18  29
ATOM     29  C   UNL     1       6.334   0.954  23.307  0.00  0.00    +0.190 C 
BRANCH  29  30
ATOM     30  O   UNL     1       5.700   0.058  24.229  0.00  0.00    -0.392 OA
ATOM     31  H   UNL     1       4.742   0.246  24.174  0.00  0.00    +0.210 HD
ENDBRANCH  29  30
ENDBRANCH  18  29
ENDBRANCH   1  17
TORSDOF 12
ENDMDL
MODEL 8
REMARK VINA RESULT:      -5.6      1.697      6.236
REMARK  Name = 
REMARK  12 active torsions:
REMARK  status: ('A' for Active; 'I' for Inactive)
REMARK    1  A    between atoms: O_1  and  C_2
REMARK    2  A    between atoms: C_2  and  C_3
REMARK    3  A    between atoms: C_6  and  O_8
REMARK    4  A    between atoms: O_8  and  C_9
REMARK    5  A    between atoms: C_11  and  O_13
REMARK    6  A    between atoms: C_14  and  O_16
REMARK    7  A    between atoms: C_17  and  O_19
REMARK    8  A    between atoms: C_21  and  C_23
REMARK    9  A    between atoms: C_23  and  O_24
REMARK   10  A    between atoms: C_25  and  O_27
REMARK   11  A    between atoms: C_28  and  O_30
REMARK   12  A    between atoms: C_31  and  O_33
REMARK                            x       y       z     vdW  Elec       q    Type
REMARK                         _______ _______ _______ _____ _____    ______ ____
ROOT
ATOM      1  O   UNL     1       7.928  -0.550  23.269  0.00  0.00    -0.340 OA
ENDROOT
BRANCH   1   6
ATOM      2  C   UNL     1       6.416  -3.101  23.046  0.00  0.00    +0.178 C 
ATOM      3  C   UNL     1       7.271  -4.118  23.798  0.00  0.00    +0.177 C 
ATOM      4  C   UNL     1       8.610  -3.481  24.209  0.00  0.00    +0.179 C 
ATOM      5  C   UNL     1       9.246  -2.674  23.069  0.00  0.00    +0.201 C 
ATOM      6  C   UNL     1       8.251  -1.690  22.416  0.00  0.00    +0.282 C 
ATOM      7  O   UNL     1       7.116  -2.439  21.982  0.00  0.00    -0.341 OA
BRANCH   3   8
ATOM      8  O   UNL     1       6.563  -4.550  24.974  0.00  0.00    -0.386 OA
ATOM      9  H   UNL     1       6.982  -4.146  25.755  0.00  0.00    +0.210 HD
ENDBRANCH   3   8
BRANCH   4  10
ATOM     10  O   UNL     1       9.520  -4.518  24.612  0.00  0.00    -0.386 OA
ATOM     11  H   UNL     1      10.072  -4.734  23.837  0.00  0.00    +0.210 HD
ENDBRANCH   4  10
BRANCH   5  12
ATOM     12  O   UNL     1      10.427  -2.014  23.549  0.00  0.00    -0.384 OA
ATOM     13  H   UNL     1      10.419  -2.093  24.515  0.00  0.00    +0.210 HD
ENDBRANCH   5  12
BRANCH   2  14
ATOM     14  C   UNL     1       5.106  -3.683  22.497  0.00  0.00    +0.190 C 
BRANCH  14  15
ATOM     15  O   UNL     1       5.204  -5.091  22.305  0.00  0.00    -0.392 OA
ATOM     16  H   UNL     1       6.087  -5.250  21.924  0.00  0.00    +0.210 HD
ENDBRANCH  14  15
ENDBRANCH   2  14
ENDBRANCH   1   6
BRANCH   1  17
ATOM     17  C   UNL     1       8.843   0.572  23.065  0.00  0.00    +0.183 C 
ATOM     18  C   UNL     1       8.821   1.645  24.214  0.00  0.00    +0.178 C 
ATOM     19  O   UNL     1       7.663   2.516  24.200  0.00  0.00    -0.341 OA
ATOM     20  C   UNL     1       7.450   3.205  22.963  0.00  0.00    +0.279 C 
ATOM     21  C   UNL     1       7.241   2.154  21.881  0.00  0.00    +0.201 C 
ATOM     22  C   UNL     1       8.530   1.313  21.747  0.00  0.00    +0.179 C 
BRANCH  20  23
ATOM     23  O   UNL     1       8.519   4.085  22.639  0.00  0.00    -0.365 OA
ATOM     24  H   UNL     1       8.167   4.688  21.964  0.00  0.00    +0.213 HD
ENDBRANCH  20  23
BRANCH  21  25
ATOM     25  O   UNL     1       6.094   1.390  22.270  0.00  0.00    -0.384 OA
ATOM     26  H   UNL     1       5.325   1.798  21.811  0.00  0.00    +0.210 HD
ENDBRANCH  21  25
BRANCH  22  27
ATOM     27  O   UNL     1       9.656   2.104  21.338  0.00  0.00    -0.386 OA
ATOM     28  H   UNL     1       9.790   2.826  21.986  0.00  0.00    +0.210 HD
ENDBRANCH  22  27
BRANCH  18  29
ATOM     29  C   UNL     1       8.874   1.061  25.626  0.00  0.00    +0.190 C 
BRANCH  29  30
ATOM     30  O   UNL     1       9.818  -0.017  25.661  0.00  0.00    -0.392 OA
ATOM     31  H   UNL     1       9.330  -0.813  25.375  0.00  0.00    +0.210 HD
ENDBRANCH  29  30
ENDBRANCH  18  29
ENDBRANCH   1  17
TORSDOF 12
ENDMDL
MODEL 9
REMARK VINA RESULT:      -5.5      1.752      6.046
REMARK  Name = 
REMARK  12 active torsions:
REMARK  status: ('A' for Active; 'I' for Inactive)
REMARK    1  A    between atoms: O_1  and  C_2
REMARK    2  A    between atoms: C_2  and  C_3
REMARK    3  A    between atoms: C_6  and  O_8
REMARK    4  A    between atoms: O_8  and  C_9
REMARK    5  A    between atoms: C_11  and  O_13
REMARK    6  A    between atoms: C_14  and  O_16
REMARK    7  A    between atoms: C_17  and  O_19
REMARK    8  A    between atoms: C_21  and  C_23
REMARK    9  A    between atoms: C_23  and  O_24
REMARK   10  A    between atoms: C_25  and  O_27
REMARK   11  A    between atoms: C_28  and  O_30
REMARK   12  A    between atoms: C_31  and  O_33
REMARK                            x       y       z     vdW  Elec       q    Type
REMARK                         _______ _______ _______ _____ _____    ______ ____
ROOT
ATOM      1  O   UNL     1       8.152  -3.226  24.803  0.00  0.00    -0.340 OA
ENDROOT
BRANCH   1   6
ATOM      2  C   UNL     1       5.977  -5.250  24.701  0.00  0.00    +0.178 C 
ATOM      3  C   UNL     1       6.001  -5.906  26.080  0.00  0.00    +0.177 C 
ATOM      4  C   UNL     1       7.209  -5.397  26.885  0.00  0.00    +0.179 C 
ATOM      5  C   UNL     1       8.498  -5.373  26.051  0.00  0.00    +0.201 C 
ATOM      6  C   UNL     1       8.305  -4.673  24.688  0.00  0.00    +0.282 C 
ATOM      7  O   UNL     1       7.233  -5.325  24.009  0.00  0.00    -0.341 OA
BRANCH   3   8
ATOM      8  O   UNL     1       4.786  -5.579  26.777  0.00  0.00    -0.386 OA
ATOM      9  H   UNL     1       4.918  -5.747  27.727  0.00  0.00    +0.210 HD
ENDBRANCH   3   8
BRANCH   4  10
ATOM     10  O   UNL     1       7.407  -6.249  28.026  0.00  0.00    -0.386 OA
ATOM     11  H   UNL     1       8.337  -6.543  28.009  0.00  0.00    +0.210 HD
ENDBRANCH   4  10
BRANCH   5  12
ATOM     12  O   UNL     1       9.557  -4.783  26.821  0.00  0.00    -0.384 OA
ATOM     13  H   UNL     1       9.576  -5.246  27.673  0.00  0.00    +0.210 HD
ENDBRANCH   5  12
BRANCH   2  14
ATOM     14  C   UNL     1       4.869  -5.785  23.784  0.00  0.00    +0.190 C 
BRANCH  14  15
ATOM     15  O   UNL     1       4.654  -4.923  22.670  0.00  0.00    -0.392 OA
ATOM     16  H   UNL     1       4.425  -4.053  23.045  0.00  0.00    +0.210 HD
ENDBRANCH  14  15
ENDBRANCH   2  14
ENDBRANCH   1   6
BRANCH   1  17
ATOM     17  C   UNL     1       7.700  -2.615  23.554  0.00  0.00    +0.183 C 
ATOM     18  C   UNL     1       8.552  -1.378  23.090  0.00  0.00    +0.178 C 
ATOM     19  O   UNL     1       8.302  -0.162  23.837  0.00  0.00    -0.341 OA
ATOM     20  C   UNL     1       6.930   0.248  23.870  0.00  0.00    +0.279 C 
ATOM     21  C   UNL     1       6.134  -0.867  24.535  0.00  0.00    +0.201 C 
ATOM     22  C   UNL     1       6.235  -2.140  23.665  0.00  0.00    +0.179 C 
BRANCH  20  23
ATOM     23  O   UNL     1       6.424   0.554  22.578  0.00  0.00    -0.365 OA
ATOM     24  H   UNL     1       6.489  -0.270  22.068  0.00  0.00    +0.213 HD
ENDBRANCH  20  23
BRANCH  21  25
ATOM     25  O   UNL     1       6.674  -1.026  25.851  0.00  0.00    -0.384 OA
ATOM     26  H   UNL     1       7.395  -1.691  25.772  0.00  0.00    +0.210 HD
ENDBRANCH  21  25
BRANCH  22  27
ATOM     27  O   UNL     1       5.669  -1.954  22.359  0.00  0.00    -0.386 OA
ATOM     28  H   UNL     1       4.731  -2.238  22.375  0.00  0.00    +0.210 HD
ENDBRANCH  22  27
BRANCH  18  29
ATOM     29  C   UNL     1      10.064  -1.592  23.152  0.00  0.00    +0.190 C 
BRANCH  29  30
ATOM     30  O   UNL     1      10.580  -1.742  21.823  0.00  0.00    -0.392 OA
ATOM     31  H   UNL     1      10.080  -1.114  21.266  0.00  0.00    +0.210 HD
ENDBRANCH  29  30
ENDBRANCH  18  29
ENDBRANCH   1  17
TORSDOF 12
ENDMDL
