MODEL 1
REMARK VINA RESULT:      -7.3      0.000      0.000
REMARK  Name = 
REMARK  7 active torsions:
REMARK  status: ('A' for Active; 'I' for Inactive)
REMARK    1  A    between atoms: C_1  and  C_2
REMARK    2  A    between atoms: C_2  and  N_3
REMARK    3  A    between atoms: C_4  and  C_6
REMARK    4  A    between atoms: C_9  and  C_17
REMARK    5  A    between atoms: C_10  and  N_11
REMARK    6  A    between atoms: C_21  and  O_22
REMARK    7  A    between atoms: C_24  and  O_25
REMARK                            x       y       z     vdW  Elec       q    Type
REMARK                         _______ _______ _______ _____ _____    ______ ____
ROOT
ATOM      1  C   UNL     1       7.627  -4.026  26.055  0.00  0.00    +0.168 A 
ATOM      2  C   UNL     1       7.616  -3.388  24.747  0.00  0.00    +0.088 A 
ATOM      3  C   UNL     1       8.332  -2.199  24.926  0.00  0.00    +0.091 A 
ATOM      4  N   UNL     1       8.697  -2.219  26.250  0.00  0.00    -0.274 N 
ATOM      5  H   UNL     1       9.200  -1.482  26.733  0.00  0.00    +0.189 HD
ATOM      6  N   UNL     1       8.378  -3.323  26.929  0.00  0.00    -0.167 NA
ENDROOT
BRANCH   2   7
ATOM      7  N   UNL     1       7.111  -3.869  23.558  0.00  0.00    -0.324 N 
ATOM      8  C   UNL     1       6.610  -2.944  22.511  0.00  0.00    +0.120 C 
ATOM      9  C   UNL     1       5.543  -3.630  21.631  0.00  0.00    +0.100 C 
ATOM     10  N   UNL     1       5.985  -4.903  21.035  0.00  0.00    -0.313 NA
ATOM     11  H   UNL     1       5.181  -5.363  20.610  0.00  0.00    +0.122 HD
ATOM     12  C   UNL     1       6.542  -5.770  22.090  0.00  0.00    +0.100 C 
ATOM     13  C   UNL     1       7.658  -5.089  22.926  0.00  0.00    +0.120 C 
ENDBRANCH   2   7
BRANCH   3  14
ATOM     14  C   UNL     1       8.794  -1.074  24.082  0.00  0.00    +0.045 A 
ATOM     15  C   UNL     1       9.813  -1.246  23.115  0.00  0.00    +0.130 A 
ATOM     16  C   UNL     1      10.206  -0.213  22.259  0.00  0.00    +0.093 A 
ATOM     17  C   UNL     1       9.597   1.028  22.375  0.00  0.00    +0.139 A 
ATOM     18  C   UNL     1       8.611   1.240  23.339  0.00  0.00    +0.083 A 
ATOM     19 CL   UNL     1       7.896   2.799  23.516  0.00  0.00    -0.080 Cl
ATOM     20  C   UNL     1       8.195   0.191  24.166  0.00  0.00    +0.037 A 
BRANCH  15  21
ATOM     21  O   UNL     1      10.427  -2.467  22.980  0.00  0.00    -0.506 OA
ATOM     22  H   UNL     1      11.077  -2.569  23.699  0.00  0.00    +0.292 HD
ENDBRANCH  15  21
BRANCH  17  23
ATOM     23  O   UNL     1       9.992   2.002  21.501  0.00  0.00    -0.505 OA
ATOM     24  H   UNL     1      10.868   1.748  21.153  0.00  0.00    +0.292 HD
ENDBRANCH  17  23
ENDBRANCH   3  14
BRANCH   1  27
ATOM     25  N   UNL     1       5.730  -5.497  25.979  0.00  0.00    -0.310 N 
ATOM     26  H   UNL     1       5.450  -4.873  25.230  0.00  0.00    +0.149 HD
ATOM     27  C   UNL     1       6.982  -5.273  26.519  0.00  0.00    +0.266 C 
ATOM     28  O   UNL     1       7.485  -6.050  27.325  0.00  0.00    -0.268 OA
BRANCH  25  30
ATOM     29  C   UNL     1       4.107  -7.198  25.255  0.00  0.00    +0.024 C 
ATOM     30  C   UNL     1       4.906  -6.608  26.397  0.00  0.00    +0.101 C 
ENDBRANCH  25  30
ENDBRANCH   1  27
TORSDOF 6
ENDMDL
MODEL 2
REMARK VINA RESULT:      -7.2      2.591      6.472
REMARK  Name = 
REMARK  7 active torsions:
REMARK  status: ('A' for Active; 'I' for Inactive)
REMARK    1  A    between atoms: C_1  and  C_2
REMARK    2  A    between atoms: C_2  and  N_3
REMARK    3  A    between atoms: C_4  and  C_6
REMARK    4  A    between atoms: C_9  and  C_17
REMARK    5  A    between atoms: C_10  and  N_11
REMARK    6  A    between atoms: C_21  and  O_22
REMARK    7  A    between atoms: C_24  and  O_25
REMARK                            x       y       z     vdW  Elec       q    Type
REMARK                         _______ _______ _______ _____ _____    ______ ____
ROOT
ATOM      1  C   UNL     1       8.629  -2.800  24.819  0.00  0.00    +0.168 A 
ATOM      2  C   UNL     1       7.594  -3.787  24.550  0.00  0.00    +0.088 A 
ATOM      3  C   UNL     1       7.084  -4.119  25.809  0.00  0.00    +0.091 A 
ATOM      4  N   UNL     1       7.809  -3.346  26.684  0.00  0.00    -0.274 N 
ATOM      5  H   UNL     1       7.725  -3.364  27.695  0.00  0.00    +0.189 HD
ATOM      6  N   UNL     1       8.669  -2.487  26.131  0.00  0.00    -0.167 NA
ENDROOT
BRANCH   2   7
ATOM      7  N   UNL     1       7.129  -4.238  23.333  0.00  0.00    -0.324 N 
ATOM      8  C   UNL     1       6.848  -3.293  22.225  0.00  0.00    +0.120 C 
ATOM      9  C   UNL     1       5.773  -3.859  21.272  0.00  0.00    +0.100 C 
ATOM     10  N   UNL     1       6.085  -5.200  20.748  0.00  0.00    -0.313 NA
ATOM     11  H   UNL     1       5.263  -5.563  20.265  0.00  0.00    +0.122 HD
ATOM     12  C   UNL     1       6.428  -6.096  21.867  0.00  0.00    +0.100 C 
ATOM     13  C   UNL     1       7.554  -5.542  22.781  0.00  0.00    +0.120 C 
ENDBRANCH   2   7
BRANCH   3  14
ATOM     14  C   UNL     1       6.005  -4.975  26.351  0.00  0.00    +0.045 A 
ATOM     15  C   UNL     1       6.251  -5.906  27.389  0.00  0.00    +0.130 A 
ATOM     16  C   UNL     1       5.228  -6.666  27.963  0.00  0.00    +0.093 A 
ATOM     17  C   UNL     1       3.933  -6.525  27.486  0.00  0.00    +0.139 A 
ATOM     18  C   UNL     1       3.662  -5.639  26.443  0.00  0.00    +0.083 A 
ATOM     19 CL   UNL     1       2.061  -5.506  25.816  0.00  0.00    -0.080 Cl
ATOM     20  C   UNL     1       4.684  -4.852  25.900  0.00  0.00    +0.037 A 
BRANCH  15  21
ATOM     21  O   UNL     1       7.525  -6.060  27.879  0.00  0.00    -0.506 OA
ATOM     22  H   UNL     1       7.548  -6.859  28.437  0.00  0.00    +0.292 HD
ENDBRANCH  15  21
BRANCH  17  23
ATOM     23  O   UNL     1       2.959  -7.267  28.093  0.00  0.00    -0.505 OA
ATOM     24  H   UNL     1       2.990  -8.163  27.709  0.00  0.00    +0.292 HD
ENDBRANCH  17  23
ENDBRANCH   3  14
BRANCH   1  27
ATOM     25  N   UNL     1       9.396  -0.753  23.824  0.00  0.00    -0.310 N 
ATOM     26  H   UNL     1       8.754  -0.347  24.495  0.00  0.00    +0.149 HD
ATOM     27  C   UNL     1       9.570  -2.122  23.901  0.00  0.00    +0.266 C 
ATOM     28  O   UNL     1      10.427  -2.702  23.241  0.00  0.00    -0.268 OA
BRANCH  25  30
ATOM     29  C   UNL     1       9.434   0.255  21.580  0.00  0.00    +0.024 C 
ATOM     30  C   UNL     1      10.151   0.061  22.899  0.00  0.00    +0.101 C 
ENDBRANCH  25  30
ENDBRANCH   1  27
TORSDOF 6
ENDMDL
MODEL 3
REMARK VINA RESULT:      -7.2      1.837      3.383
REMARK  Name = 
REMARK  7 active torsions:
REMARK  status: ('A' for Active; 'I' for Inactive)
REMARK    1  A    between atoms: C_1  and  C_2
REMARK    2  A    between atoms: C_2  and  N_3
REMARK    3  A    between atoms: C_4  and  C_6
REMARK    4  A    between atoms: C_9  and  C_17
REMARK    5  A    between atoms: C_10  and  N_11
REMARK    6  A    between atoms: C_21  and  O_22
REMARK    7  A    between atoms: C_24  and  O_25
REMARK                            x       y       z     vdW  Elec       q    Type
REMARK                         _______ _______ _______ _____ _____    ______ ____
ROOT
ATOM      1  C   UNL     1       6.116  -4.102  22.735  0.00  0.00    +0.168 A 
ATOM      2  C   UNL     1       7.192  -3.451  23.466  0.00  0.00    +0.088 A 
ATOM      3  C   UNL     1       7.340  -2.206  22.846  0.00  0.00    +0.091 A 
ATOM      4  N   UNL     1       6.393  -2.208  21.851  0.00  0.00    -0.274 N 
ATOM      5  H   UNL     1       6.250  -1.466  21.174  0.00  0.00    +0.189 HD
ATOM      6  N   UNL     1       5.589  -3.273  21.810  0.00  0.00    -0.167 NA
ENDROOT
BRANCH   2   7
ATOM      7  N   UNL     1       7.864  -3.893  24.587  0.00  0.00    -0.324 N 
ATOM      8  C   UNL     1       9.347  -3.925  24.625  0.00  0.00    +0.120 C 
ATOM      9  C   UNL     1       9.853  -5.005  25.605  0.00  0.00    +0.100 C 
ATOM     10  N   UNL     1       9.297  -4.888  26.965  0.00  0.00    -0.313 NA
ATOM     11  H   UNL     1       9.551  -5.720  27.495  0.00  0.00    +0.122 HD
ATOM     12  C   UNL     1       7.828  -4.788  26.887  0.00  0.00    +0.100 C 
ATOM     13  C   UNL     1       7.334  -3.656  25.946  0.00  0.00    +0.120 C 
ENDBRANCH   2   7
BRANCH   3  14
ATOM     14  C   UNL     1       8.157  -0.987  23.042  0.00  0.00    +0.045 A 
ATOM     15  C   UNL     1       9.290  -0.719  22.237  0.00  0.00    +0.130 A 
ATOM     16  C   UNL     1      10.025   0.464  22.360  0.00  0.00    +0.093 A 
ATOM     17  C   UNL     1       9.650   1.396  23.316  0.00  0.00    +0.139 A 
ATOM     18  C   UNL     1       8.557   1.148  24.147  0.00  0.00    +0.083 A 
ATOM     19 CL   UNL     1       8.127   2.285  25.370  0.00  0.00    -0.080 Cl
ATOM     20  C   UNL     1       7.801  -0.020  23.992  0.00  0.00    +0.037 A 
BRANCH  15  21
ATOM     21  O   UNL     1       9.679  -1.627  21.282  0.00  0.00    -0.506 OA
ATOM     22  H   UNL     1      10.559  -1.969  21.519  0.00  0.00    +0.292 HD
ENDBRANCH  15  21
BRANCH  17  23
ATOM     23  O   UNL     1      10.379   2.550  23.384  0.00  0.00    -0.505 OA
ATOM     24  H   UNL     1      10.088   3.035  24.178  0.00  0.00    +0.292 HD
ENDBRANCH  17  23
ENDBRANCH   3  14
BRANCH   1  27
ATOM     25  N   UNL     1       4.575  -5.567  23.854  0.00  0.00    -0.310 N 
ATOM     26  H   UNL     1       4.261  -4.696  24.266  0.00  0.00    +0.149 HD
ATOM     27  C   UNL     1       5.545  -5.460  22.875  0.00  0.00    +0.266 C 
ATOM     28  O   UNL     1       5.896  -6.427  22.205  0.00  0.00    -0.268 OA
BRANCH  25  30
ATOM     29  C   UNL     1       4.097  -7.138  25.685  0.00  0.00    +0.024 C 
ATOM     30  C   UNL     1       3.984  -6.837  24.206  0.00  0.00    +0.101 C 
ENDBRANCH  25  30
ENDBRANCH   1  27
TORSDOF 6
ENDMDL
MODEL 4
REMARK VINA RESULT:      -6.9      3.692      7.483
REMARK  Name = 
REMARK  7 active torsions:
REMARK  status: ('A' for Active; 'I' for Inactive)
REMARK    1  A    between atoms: C_1  and  C_2
REMARK    2  A    between atoms: C_2  and  N_3
REMARK    3  A    between atoms: C_4  and  C_6
REMARK    4  A    between atoms: C_9  and  C_17
REMARK    5  A    between atoms: C_10  and  N_11
REMARK    6  A    between atoms: C_21  and  O_22
REMARK    7  A    between atoms: C_24  and  O_25
REMARK                            x       y       z     vdW  Elec       q    Type
REMARK                         _______ _______ _______ _____ _____    ______ ____
ROOT
ATOM      1  C   UNL     1       9.881   1.851  23.971  0.00  0.00    +0.168 A 
ATOM      2  C   UNL     1       8.690   1.014  23.945  0.00  0.00    +0.088 A 
ATOM      3  C   UNL     1       9.163  -0.282  24.171  0.00  0.00    +0.091 A 
ATOM      4  N   UNL     1      10.522  -0.129  24.311  0.00  0.00    -0.274 N 
ATOM      5  H   UNL     1      11.187  -0.882  24.448  0.00  0.00    +0.189 HD
ATOM      6  N   UNL     1      10.974   1.126  24.289  0.00  0.00    -0.167 NA
ENDROOT
BRANCH   2   7
ATOM      7  N   UNL     1       7.371   1.396  23.828  0.00  0.00    -0.324 N 
ATOM      8  C   UNL     1       6.786   1.729  22.505  0.00  0.00    +0.120 C 
ATOM      9  C   UNL     1       5.607   2.715  22.652  0.00  0.00    +0.100 C 
ATOM     10  N   UNL     1       4.562   2.263  23.587  0.00  0.00    -0.313 NA
ATOM     11  H   UNL     1       3.911   3.031  23.748  0.00  0.00    +0.122 HD
ATOM     12  C   UNL     1       5.183   1.873  24.866  0.00  0.00    +0.100 C 
ATOM     13  C   UNL     1       6.325   0.834  24.709  0.00  0.00    +0.120 C 
ENDBRANCH   2   7
BRANCH   3  14
ATOM     14  C   UNL     1       8.583  -1.633  24.344  0.00  0.00    +0.045 A 
ATOM     15  C   UNL     1       8.364  -2.185  25.629  0.00  0.00    +0.130 A 
ATOM     16  C   UNL     1       7.747  -3.426  25.810  0.00  0.00    +0.093 A 
ATOM     17  C   UNL     1       7.358  -4.155  24.695  0.00  0.00    +0.139 A 
ATOM     18  C   UNL     1       7.588  -3.654  23.413  0.00  0.00    +0.083 A 
ATOM     19 CL   UNL     1       7.153  -4.588  22.030  0.00  0.00    -0.080 Cl
ATOM     20  C   UNL     1       8.170  -2.393  23.241  0.00  0.00    +0.037 A 
BRANCH  15  21
ATOM     21  O   UNL     1       8.737  -1.479  26.748  0.00  0.00    -0.506 OA
ATOM     22  H   UNL     1       9.680  -1.245  26.666  0.00  0.00    +0.292 HD
ENDBRANCH  15  21
BRANCH  17  23
ATOM     23  O   UNL     1       6.735  -5.351  24.917  0.00  0.00    -0.505 OA
ATOM     24  H   UNL     1       6.709  -5.831  24.068  0.00  0.00    +0.292 HD
ENDBRANCH  17  23
ENDBRANCH   3  14
BRANCH   1  27
ATOM     25  N   UNL     1      11.312   3.674  23.342  0.00  0.00    -0.310 N 
ATOM     26  H   UNL     1      11.952   2.918  23.129  0.00  0.00    +0.149 HD
ATOM     27  C   UNL     1      10.039   3.302  23.730  0.00  0.00    +0.266 C 
ATOM     28  O   UNL     1       9.140   4.126  23.871  0.00  0.00    -0.268 OA
BRANCH  25  30
ATOM     29  C   UNL     1      13.165   5.238  22.924  0.00  0.00    +0.024 C 
ATOM     30  C   UNL     1      11.681   5.060  23.167  0.00  0.00    +0.101 C 
ENDBRANCH  25  30
ENDBRANCH   1  27
TORSDOF 6
ENDMDL
MODEL 5
REMARK VINA RESULT:      -6.9      2.142      2.854
REMARK  Name = 
REMARK  7 active torsions:
REMARK  status: ('A' for Active; 'I' for Inactive)
REMARK    1  A    between atoms: C_1  and  C_2
REMARK    2  A    between atoms: C_2  and  N_3
REMARK    3  A    between atoms: C_4  and  C_6
REMARK    4  A    between atoms: C_9  and  C_17
REMARK    5  A    between atoms: C_10  and  N_11
REMARK    6  A    between atoms: C_21  and  O_22
REMARK    7  A    between atoms: C_24  and  O_25
REMARK                            x       y       z     vdW  Elec       q    Type
REMARK                         _______ _______ _______ _____ _____    ______ ____
ROOT
ATOM      1  C   UNL     1       8.162  -4.345  25.585  0.00  0.00    +0.168 A 
ATOM      2  C   UNL     1       7.864  -2.963  25.239  0.00  0.00    +0.088 A 
ATOM      3  C   UNL     1       8.916  -2.572  24.404  0.00  0.00    +0.091 A 
ATOM      4  N   UNL     1       9.714  -3.687  24.318  0.00  0.00    -0.274 N 
ATOM      5  H   UNL     1      10.595  -3.743  23.818  0.00  0.00    +0.189 HD
ATOM      6  N   UNL     1       9.256  -4.783  24.928  0.00  0.00    -0.167 NA
ENDROOT
BRANCH   2   7
ATOM      7  N   UNL     1       6.752  -2.214  25.561  0.00  0.00    -0.324 N 
ATOM      8  C   UNL     1       6.888  -0.864  26.161  0.00  0.00    +0.120 C 
ATOM      9  C   UNL     1       5.653  -0.510  27.016  0.00  0.00    +0.100 C 
ATOM     10  N   UNL     1       4.372  -0.636  26.297  0.00  0.00    -0.313 NA
ATOM     11  H   UNL     1       3.610  -0.543  26.968  0.00  0.00    +0.122 HD
ATOM     12  C   UNL     1       4.299  -1.961  25.654  0.00  0.00    +0.100 C 
ATOM     13  C   UNL     1       5.519  -2.277  24.748  0.00  0.00    +0.120 C 
ENDBRANCH   2   7
BRANCH   3  14
ATOM     14  C   UNL     1       9.290  -1.374  23.620  0.00  0.00    +0.045 A 
ATOM     15  C   UNL     1       8.996  -1.273  22.238  0.00  0.00    +0.130 A 
ATOM     16  C   UNL     1       9.274  -0.118  21.502  0.00  0.00    +0.093 A 
ATOM     17  C   UNL     1       9.879   0.957  22.136  0.00  0.00    +0.139 A 
ATOM     18  C   UNL     1      10.210   0.879  23.489  0.00  0.00    +0.083 A 
ATOM     19 CL   UNL     1      11.012   2.197  24.260  0.00  0.00    -0.080 Cl
ATOM     20  C   UNL     1       9.894  -0.265  24.229  0.00  0.00    +0.037 A 
BRANCH  15  21
ATOM     21  O   UNL     1       8.394  -2.324  21.590  0.00  0.00    -0.506 OA
ATOM     22  H   UNL     1       8.586  -3.143  22.082  0.00  0.00    +0.292 HD
ENDBRANCH  15  21
BRANCH  17  23
ATOM     23  O   UNL     1      10.108   2.077  21.386  0.00  0.00    -0.505 OA
ATOM     24  H   UNL     1      10.761   1.842  20.700  0.00  0.00    +0.292 HD
ENDBRANCH  17  23
ENDBRANCH   3  14
BRANCH   1  27
ATOM     25  N   UNL     1       6.187  -5.623  26.068  0.00  0.00    -0.310 N 
ATOM     26  H   UNL     1       5.929  -5.320  25.136  0.00  0.00    +0.149 HD
ATOM     27  C   UNL     1       7.458  -5.280  26.489  0.00  0.00    +0.266 C 
ATOM     28  O   UNL     1       7.931  -5.715  27.535  0.00  0.00    -0.268 OA
BRANCH  25  30
ATOM     29  C   UNL     1       4.167  -7.027  26.077  0.00  0.00    +0.024 C 
ATOM     30  C   UNL     1       5.311  -6.440  26.877  0.00  0.00    +0.101 C 
ENDBRANCH  25  30
ENDBRANCH   1  27
TORSDOF 6
ENDMDL
MODEL 6
REMARK VINA RESULT:      -6.8      2.338      4.204
REMARK  Name = 
REMARK  7 active torsions:
REMARK  status: ('A' for Active; 'I' for Inactive)
REMARK    1  A    between atoms: C_1  and  C_2
REMARK    2  A    between atoms: C_2  and  N_3
REMARK    3  A    between atoms: C_4  and  C_6
REMARK    4  A    between atoms: C_9  and  C_17
REMARK    5  A    between atoms: C_10  and  N_11
REMARK    6  A    between atoms: C_21  and  O_22
REMARK    7  A    between atoms: C_24  and  O_25
REMARK                            x       y       z     vdW  Elec       q    Type
REMARK                         _______ _______ _______ _____ _____    ______ ____
ROOT
ATOM      1  C   UNL     1       4.949  -5.771  23.481  0.00  0.00    +0.168 A 
ATOM      2  C   UNL     1       5.814  -4.933  24.298  0.00  0.00    +0.088 A 
ATOM      3  C   UNL     1       6.548  -4.178  23.378  0.00  0.00    +0.091 A 
ATOM      4  N   UNL     1       6.090  -4.598  22.152  0.00  0.00    -0.274 N 
ATOM      5  H   UNL     1       6.440  -4.281  21.254  0.00  0.00    +0.189 HD
ATOM      6  N   UNL     1       5.082  -5.472  22.172  0.00  0.00    -0.167 NA
ENDROOT
BRANCH   2   7
ATOM      7  N   UNL     1       5.850  -4.813  25.671  0.00  0.00    -0.324 N 
ATOM      8  C   UNL     1       6.879  -5.520  26.473  0.00  0.00    +0.120 C 
ATOM      9  C   UNL     1       6.374  -5.796  27.905  0.00  0.00    +0.100 C 
ATOM     10  N   UNL     1       5.894  -4.595  28.612  0.00  0.00    -0.313 NA
ATOM     11  H   UNL     1       5.435  -4.884  29.475  0.00  0.00    +0.122 HD
ATOM     12  C   UNL     1       4.927  -3.878  27.761  0.00  0.00    +0.100 C 
ATOM     13  C   UNL     1       5.472  -3.552  26.344  0.00  0.00    +0.120 C 
ENDBRANCH   2   7
BRANCH   3  14
ATOM     14  C   UNL     1       7.555  -3.095  23.423  0.00  0.00    +0.045 A 
ATOM     15  C   UNL     1       8.884  -3.337  23.846  0.00  0.00    +0.130 A 
ATOM     16  C   UNL     1       9.866  -2.341  23.821  0.00  0.00    +0.093 A 
ATOM     17  C   UNL     1       9.523  -1.068  23.392  0.00  0.00    +0.139 A 
ATOM     18  C   UNL     1       8.215  -0.787  22.998  0.00  0.00    +0.083 A 
ATOM     19 CL   UNL     1       7.781   0.811  22.517  0.00  0.00    -0.080 Cl
ATOM     20  C   UNL     1       7.247  -1.798  22.988  0.00  0.00    +0.037 A 
BRANCH  15  21
ATOM     21  O   UNL     1       9.246  -4.592  24.272  0.00  0.00    -0.506 OA
ATOM     22  H   UNL     1      10.101  -4.528  24.735  0.00  0.00    +0.292 HD
ENDBRANCH  15  21
BRANCH  17  23
ATOM     23  O   UNL     1      10.519  -0.132  23.358  0.00  0.00    -0.505 OA
ATOM     24  H   UNL     1      11.183  -0.432  22.710  0.00  0.00    +0.292 HD
ENDBRANCH  17  23
ENDBRANCH   3  14
BRANCH   1  27
ATOM     25  N   UNL     1       2.883  -6.918  23.048  0.00  0.00    -0.310 N 
ATOM     26  H   UNL     1       2.912  -6.363  22.201  0.00  0.00    +0.149 HD
ATOM     27  C   UNL     1       3.990  -6.828  23.871  0.00  0.00    +0.266 C 
ATOM     28  O   UNL     1       4.132  -7.562  24.845  0.00  0.00    -0.268 OA
BRANCH  25  30
ATOM     29  C   UNL     1       1.040  -8.235  22.089  0.00  0.00    +0.024 C 
ATOM     30  C   UNL     1       1.791  -7.819  23.336  0.00  0.00    +0.101 C 
ENDBRANCH  25  30
ENDBRANCH   1  27
TORSDOF 6
ENDMDL
MODEL 7
REMARK VINA RESULT:      -6.6      3.073      6.990
REMARK  Name = 
REMARK  7 active torsions:
REMARK  status: ('A' for Active; 'I' for Inactive)
REMARK    1  A    between atoms: C_1  and  C_2
REMARK    2  A    between atoms: C_2  and  N_3
REMARK    3  A    between atoms: C_4  and  C_6
REMARK    4  A    between atoms: C_9  and  C_17
REMARK    5  A    between atoms: C_10  and  N_11
REMARK    6  A    between atoms: C_21  and  O_22
REMARK    7  A    between atoms: C_24  and  O_25
REMARK                            x       y       z     vdW  Elec       q    Type
REMARK                         _______ _______ _______ _____ _____    ______ ____
ROOT
ATOM      1  C   UNL     1       9.441  -1.660  23.940  0.00  0.00    +0.168 A 
ATOM      2  C   UNL     1       8.252  -1.952  24.725  0.00  0.00    +0.088 A 
ATOM      3  C   UNL     1       8.258  -3.343  24.875  0.00  0.00    +0.091 A 
ATOM      4  N   UNL     1       9.388  -3.751  24.208  0.00  0.00    -0.274 N 
ATOM      5  H   UNL     1       9.681  -4.714  24.082  0.00  0.00    +0.189 HD
ATOM      6  N   UNL     1      10.162  -2.779  23.719  0.00  0.00    -0.167 NA
ENDROOT
BRANCH   2   7
ATOM      7  N   UNL     1       7.357  -1.071  25.295  0.00  0.00    -0.324 N 
ATOM      8  C   UNL     1       6.063  -0.765  24.638  0.00  0.00    +0.120 C 
ATOM      9  C   UNL     1       5.557   0.639  25.035  0.00  0.00    +0.100 C 
ATOM     10  N   UNL     1       5.468   0.853  26.491  0.00  0.00    -0.313 NA
ATOM     11  H   UNL     1       5.285   1.840  26.666  0.00  0.00    +0.122 HD
ATOM     12  C   UNL     1       6.745   0.473  27.121  0.00  0.00    +0.100 C 
ATOM     13  C   UNL     1       7.209  -0.964  26.763  0.00  0.00    +0.120 C 
ENDBRANCH   2   7
BRANCH   3  14
ATOM     14  C   UNL     1       7.443  -4.362  25.573  0.00  0.00    +0.045 A 
ATOM     15  C   UNL     1       7.933  -5.047  26.711  0.00  0.00    +0.130 A 
ATOM     16  C   UNL     1       7.147  -5.956  27.427  0.00  0.00    +0.093 A 
ATOM     17  C   UNL     1       5.855  -6.215  26.996  0.00  0.00    +0.139 A 
ATOM     18  C   UNL     1       5.352  -5.581  25.860  0.00  0.00    +0.083 A 
ATOM     19 CL   UNL     1       3.764  -5.947  25.296  0.00  0.00    -0.080 Cl
ATOM     20  C   UNL     1       6.130  -4.643  25.172  0.00  0.00    +0.037 A 
BRANCH  15  21
ATOM     21  O   UNL     1       9.209  -4.803  27.158  0.00  0.00    -0.506 OA
ATOM     22  H   UNL     1       9.600  -5.645  27.454  0.00  0.00    +0.292 HD
ENDBRANCH  15  21
BRANCH  17  23
ATOM     23  O   UNL     1       5.112  -7.090  27.739  0.00  0.00    -0.505 OA
ATOM     24  H   UNL     1       4.268  -7.230  27.271  0.00  0.00    +0.292 HD
ENDBRANCH  17  23
ENDBRANCH   3  14
BRANCH   1  27
ATOM     25  N   UNL     1      10.174   0.588  24.365  0.00  0.00    -0.310 N 
ATOM     26  H   UNL     1      10.113   0.279  25.328  0.00  0.00    +0.149 HD
ATOM     27  C   UNL     1       9.944  -0.377  23.402  0.00  0.00    +0.266 C 
ATOM     28  O   UNL     1      10.134  -0.157  22.210  0.00  0.00    -0.268 OA
BRANCH  25  30
ATOM     29  C   UNL     1       9.437   2.929  24.200  0.00  0.00    +0.024 C 
ATOM     30  C   UNL     1      10.564   1.935  24.016  0.00  0.00    +0.101 C 
ENDBRANCH  25  30
ENDBRANCH   1  27
TORSDOF 6
ENDMDL
MODEL 8
REMARK VINA RESULT:      -6.5      3.368      7.054
REMARK  Name = 
REMARK  7 active torsions:
REMARK  status: ('A' for Active; 'I' for Inactive)
REMARK    1  A    between atoms: C_1  and  C_2
REMARK    2  A    between atoms: C_2  and  N_3
REMARK    3  A    between atoms: C_4  and  C_6
REMARK    4  A    between atoms: C_9  and  C_17
REMARK    5  A    between atoms: C_10  and  N_11
REMARK    6  A    between atoms: C_21  and  O_22
REMARK    7  A    between atoms: C_24  and  O_25
REMARK                            x       y       z     vdW  Elec       q    Type
REMARK                         _______ _______ _______ _____ _____    ______ ____
ROOT
ATOM      1  C   UNL     1       8.490  -0.867  22.924  0.00  0.00    +0.168 A 
ATOM      2  C   UNL     1       7.489  -1.501  23.768  0.00  0.00    +0.088 A 
ATOM      3  C   UNL     1       7.248  -2.739  23.164  0.00  0.00    +0.091 A 
ATOM      4  N   UNL     1       8.079  -2.751  22.069  0.00  0.00    -0.274 N 
ATOM      5  H   UNL     1       8.132  -3.492  21.379  0.00  0.00    +0.189 HD
ATOM      6  N   UNL     1       8.895  -1.701  21.943  0.00  0.00    -0.167 NA
ENDROOT
BRANCH   2   7
ATOM      7  N   UNL     1       6.954  -1.052  24.957  0.00  0.00    -0.324 N 
ATOM      8  C   UNL     1       5.487  -0.936  25.139  0.00  0.00    +0.120 C 
ATOM      9  C   UNL     1       5.142   0.144  26.187  0.00  0.00    +0.100 C 
ATOM     10  N   UNL     1       5.816  -0.043  27.484  0.00  0.00    -0.313 NA
ATOM     11  H   UNL     1       5.664   0.788  28.055  0.00  0.00    +0.122 HD
ATOM     12  C   UNL     1       7.263  -0.225  27.262  0.00  0.00    +0.100 C 
ATOM     13  C   UNL     1       7.596  -1.357  26.254  0.00  0.00    +0.120 C 
ENDBRANCH   2   7
BRANCH   3  14
ATOM     14  C   UNL     1       6.435  -3.943  23.445  0.00  0.00    +0.045 A 
ATOM     15  C   UNL     1       5.695  -4.590  22.427  0.00  0.00    +0.130 A 
ATOM     16  C   UNL     1       4.983  -5.771  22.660  0.00  0.00    +0.093 A 
ATOM     17  C   UNL     1       4.981  -6.316  23.936  0.00  0.00    +0.139 A 
ATOM     18  C   UNL     1       5.674  -5.686  24.970  0.00  0.00    +0.083 A 
ATOM     19 CL   UNL     1       5.624  -6.337  26.566  0.00  0.00    -0.080 Cl
ATOM     20  C   UNL     1       6.416  -4.526  24.720  0.00  0.00    +0.037 A 
BRANCH  15  21
ATOM     21  O   UNL     1       5.685  -4.070  21.155  0.00  0.00    -0.506 OA
ATOM     22  H   UNL     1       4.760  -3.945  20.878  0.00  0.00    +0.292 HD
ENDBRANCH  15  21
BRANCH  17  23
ATOM     23  O   UNL     1       4.296  -7.485  24.115  0.00  0.00    -0.505 OA
ATOM     24  H   UNL     1       4.950  -8.209  24.137  0.00  0.00    +0.292 HD
ENDBRANCH  17  23
ENDBRANCH   3  14
BRANCH   1  27
ATOM     25  N   UNL     1       8.194   1.517  22.895  0.00  0.00    -0.310 N 
ATOM     26  H   UNL     1       7.214   1.257  22.916  0.00  0.00    +0.149 HD
ATOM     27  C   UNL     1       9.100   0.478  23.004  0.00  0.00    +0.266 C 
ATOM     28  O   UNL     1      10.303   0.683  23.137  0.00  0.00    -0.268 OA
BRANCH  25  30
ATOM     29  C   UNL     1       7.499   3.831  22.434  0.00  0.00    +0.024 C 
ATOM     30  C   UNL     1       8.618   2.897  22.844  0.00  0.00    +0.101 C 
ENDBRANCH  25  30
ENDBRANCH   1  27
TORSDOF 6
ENDMDL
MODEL 9
REMARK VINA RESULT:      -6.5      3.154      7.074
REMARK  Name = 
REMARK  7 active torsions:
REMARK  status: ('A' for Active; 'I' for Inactive)
REMARK    1  A    between atoms: C_1  and  C_2
REMARK    2  A    between atoms: C_2  and  N_3
REMARK    3  A    between atoms: C_4  and  C_6
REMARK    4  A    between atoms: C_9  and  C_17
REMARK    5  A    between atoms: C_10  and  N_11
REMARK    6  A    between atoms: C_21  and  O_22
REMARK    7  A    between atoms: C_24  and  O_25
REMARK                            x       y       z     vdW  Elec       q    Type
REMARK                         _______ _______ _______ _____ _____    ______ ____
ROOT
ATOM      1  C   UNL     1       9.308  -2.380  24.323  0.00  0.00    +0.168 A 
ATOM      2  C   UNL     1       8.049  -2.455  25.049  0.00  0.00    +0.088 A 
ATOM      3  C   UNL     1       7.836  -3.823  25.249  0.00  0.00    +0.091 A 
ATOM      4  N   UNL     1       8.924  -4.425  24.664  0.00  0.00    -0.274 N 
ATOM      5  H   UNL     1       9.074  -5.426  24.590  0.00  0.00    +0.189 HD
ATOM      6  N   UNL     1       9.861  -3.604  24.185  0.00  0.00    -0.167 NA
ENDROOT
BRANCH   2   7
ATOM      7  N   UNL     1       7.271  -1.426  25.534  0.00  0.00    -0.324 N 
ATOM      8  C   UNL     1       7.534  -0.832  26.868  0.00  0.00    +0.120 C 
ATOM      9  C   UNL     1       6.247  -0.229  27.470  0.00  0.00    +0.100 C 
ATOM     10  N   UNL     1       5.573   0.742  26.590  0.00  0.00    -0.313 NA
ATOM     11  H   UNL     1       4.661   0.967  26.987  0.00  0.00    +0.122 HD
ATOM     12  C   UNL     1       5.390   0.148  25.253  0.00  0.00    +0.100 C 
ATOM     13  C   UNL     1       6.705  -0.398  24.633  0.00  0.00    +0.120 C 
ENDBRANCH   2   7
BRANCH   3  14
ATOM     14  C   UNL     1       6.842  -4.676  25.937  0.00  0.00    +0.045 A 
ATOM     15  C   UNL     1       6.025  -5.584  25.220  0.00  0.00    +0.130 A 
ATOM     16  C   UNL     1       5.136  -6.451  25.863  0.00  0.00    +0.093 A 
ATOM     17  C   UNL     1       5.030  -6.405  27.245  0.00  0.00    +0.139 A 
ATOM     18  C   UNL     1       5.798  -5.501  27.979  0.00  0.00    +0.083 A 
ATOM     19 CL   UNL     1       5.623  -5.410  29.693  0.00  0.00    -0.080 Cl
ATOM     20  C   UNL     1       6.714  -4.664  27.333  0.00  0.00    +0.037 A 
BRANCH  15  21
ATOM     21  O   UNL     1       6.115  -5.648  23.851  0.00  0.00    -0.506 OA
ATOM     22  H   UNL     1       6.911  -6.159  23.616  0.00  0.00    +0.292 HD
ENDBRANCH  15  21
BRANCH  17  23
ATOM     23  O   UNL     1       4.169  -7.288  27.835  0.00  0.00    -0.505 OA
ATOM     24  H   UNL     1       4.606  -7.635  28.635  0.00  0.00    +0.292 HD
ENDBRANCH  17  23
ENDBRANCH   3  14
BRANCH   1  27
ATOM     25  N   UNL     1      10.342  -0.246  24.705  0.00  0.00    -0.310 N 
ATOM     26  H   UNL     1      10.180  -0.495  25.673  0.00  0.00    +0.149 HD
ATOM     27  C   UNL     1      10.027  -1.213  23.768  0.00  0.00    +0.266 C 
ATOM     28  O   UNL     1      10.316  -1.081  22.582  0.00  0.00    -0.268 OA
BRANCH  25  30
ATOM     29  C   UNL     1       9.922   2.097  24.082  0.00  0.00    +0.024 C 
ATOM     30  C   UNL     1      10.948   1.011  24.329  0.00  0.00    +0.101 C 
ENDBRANCH  25  30
ENDBRANCH   1  27
TORSDOF 6
ENDMDL
