MODEL 1
REMARK VINA RESULT:      -4.7      0.000      0.000
REMARK  Name = 
REMARK  7 active torsions:
REMARK  status: ('A' for Active; 'I' for Inactive)
REMARK    1  A    between atoms: C_1  and  O_2
REMARK    2  A    between atoms: O_2  and  C_3
REMARK    3  A    between atoms: C_6  and  C_8
REMARK    4  A    between atoms: C_8  and  O_9
REMARK    5  A    between atoms: C_10  and  O_12
REMARK    6  A    between atoms: C_13  and  O_15
REMARK    7  A    between atoms: C_16  and  O_18
REMARK                            x       y       z     vdW  Elec       q    Type
REMARK                         _______ _______ _______ _____ _____    ______ ____
ROOT
ATOM      1  C   UNL     1       8.951  -4.027  24.357  0.00  0.00    +0.281 C 
ATOM      2  C   UNL     1       9.109  -4.687  25.750  0.00  0.00    +0.201 C 
ATOM      3  C   UNL     1       7.792  -5.361  26.163  0.00  0.00    +0.179 C 
ATOM      4  C   UNL     1       6.595  -4.417  26.019  0.00  0.00    +0.177 C 
ATOM      5  C   UNL     1       6.584  -3.879  24.581  0.00  0.00    +0.178 C 
ATOM      6  O   UNL     1       7.803  -3.177  24.301  0.00  0.00    -0.341 OA
ENDROOT
BRANCH   1   8
ATOM      7  C   UNL     1       9.791  -2.052  23.366  0.00  0.00    +0.197 C 
ATOM      8  O   UNL     1      10.118  -3.250  24.058  0.00  0.00    -0.352 OA
ENDBRANCH   1   8
BRANCH   2   9
ATOM      9  O   UNL     1      10.129  -5.703  25.722  0.00  0.00    -0.384 OA
ATOM     10  H   UNL     1       9.662  -6.548  25.879  0.00  0.00    +0.210 HD
ENDBRANCH   2   9
BRANCH   3  11
ATOM     11  O   UNL     1       7.896  -5.841  27.512  0.00  0.00    -0.386 OA
ATOM     12  H   UNL     1       7.045  -5.613  27.940  0.00  0.00    +0.210 HD
ENDBRANCH   3  11
BRANCH   4  13
ATOM     13  O   UNL     1       6.739  -3.395  27.015  0.00  0.00    -0.386 OA
ATOM     14  H   UNL     1       6.217  -3.629  27.798  0.00  0.00    +0.210 HD
ENDBRANCH   4  13
BRANCH   5  15
ATOM     15  C   UNL     1       5.430  -2.915  24.314  0.00  0.00    +0.190 C 
BRANCH  15  16
ATOM     16  O   UNL     1       5.773  -1.621  24.808  0.00  0.00    -0.392 OA
ATOM     17  H   UNL     1       4.928  -1.203  25.065  0.00  0.00    +0.210 HD
ENDBRANCH  15  16
ENDBRANCH   5  15
TORSDOF 6
ENDMDL
MODEL 2
REMARK VINA RESULT:      -4.5      1.754      3.395
REMARK  Name = 
REMARK  7 active torsions:
REMARK  status: ('A' for Active; 'I' for Inactive)
REMARK    1  A    between atoms: C_1  and  O_2
REMARK    2  A    between atoms: O_2  and  C_3
REMARK    3  A    between atoms: C_6  and  C_8
REMARK    4  A    between atoms: C_8  and  O_9
REMARK    5  A    between atoms: C_10  and  O_12
REMARK    6  A    between atoms: C_13  and  O_15
REMARK    7  A    between atoms: C_16  and  O_18
REMARK                            x       y       z     vdW  Elec       q    Type
REMARK                         _______ _______ _______ _____ _____    ______ ____
ROOT
ATOM      1  C   UNL     1       6.828  -4.134  23.662  0.00  0.00    +0.281 C 
ATOM      2  C   UNL     1       7.114  -5.319  24.618  0.00  0.00    +0.201 C 
ATOM      3  C   UNL     1       7.901  -4.827  25.841  0.00  0.00    +0.179 C 
ATOM      4  C   UNL     1       9.126  -4.001  25.441  0.00  0.00    +0.177 C 
ATOM      5  C   UNL     1       8.654  -2.867  24.520  0.00  0.00    +0.178 C 
ATOM      6  O   UNL     1       8.018  -3.405  23.351  0.00  0.00    -0.341 OA
ENDROOT
BRANCH   1   8
ATOM      7  C   UNL     1       7.102  -5.576  21.808  0.00  0.00    +0.197 C 
ATOM      8  O   UNL     1       6.256  -4.626  22.443  0.00  0.00    -0.352 OA
ENDBRANCH   1   8
BRANCH   2   9
ATOM      9  O   UNL     1       5.886  -5.901  25.094  0.00  0.00    -0.384 OA
ATOM     10  H   UNL     1       6.152  -6.592  25.732  0.00  0.00    +0.210 HD
ENDBRANCH   2   9
BRANCH   3  11
ATOM     11  O   UNL     1       8.291  -5.949  26.649  0.00  0.00    -0.386 OA
ATOM     12  H   UNL     1       9.271  -5.947  26.648  0.00  0.00    +0.210 HD
ENDBRANCH   3  11
BRANCH   4  13
ATOM     13  O   UNL     1      10.058  -4.898  24.820  0.00  0.00    -0.386 OA
ATOM     14  H   UNL     1       9.578  -5.646  24.432  0.00  0.00    +0.210 HD
ENDBRANCH   4  13
BRANCH   5  15
ATOM     15  C   UNL     1       9.795  -1.970  24.046  0.00  0.00    +0.190 C 
BRANCH  15  16
ATOM     16  O   UNL     1      10.494  -2.617  22.982  0.00  0.00    -0.392 OA
ATOM     17  H   UNL     1      10.129  -3.522  22.938  0.00  0.00    +0.210 HD
ENDBRANCH  15  16
ENDBRANCH   5  15
TORSDOF 6
ENDMDL
MODEL 3
REMARK VINA RESULT:      -4.5      3.013      4.375
REMARK  Name = 
REMARK  7 active torsions:
REMARK  status: ('A' for Active; 'I' for Inactive)
REMARK    1  A    between atoms: C_1  and  O_2
REMARK    2  A    between atoms: O_2  and  C_3
REMARK    3  A    between atoms: C_6  and  C_8
REMARK    4  A    between atoms: C_8  and  O_9
REMARK    5  A    between atoms: C_10  and  O_12
REMARK    6  A    between atoms: C_13  and  O_15
REMARK    7  A    between atoms: C_16  and  O_18
REMARK                            x       y       z     vdW  Elec       q    Type
REMARK                         _______ _______ _______ _____ _____    ______ ____
ROOT
ATOM      1  C   UNL     1       7.590  -4.368  23.981  0.00  0.00    +0.281 C 
ATOM      2  C   UNL     1       7.355  -4.018  22.491  0.00  0.00    +0.201 C 
ATOM      3  C   UNL     1       5.850  -4.023  22.182  0.00  0.00    +0.179 C 
ATOM      4  C   UNL     1       5.170  -5.306  22.666  0.00  0.00    +0.177 C 
ATOM      5  C   UNL     1       5.490  -5.479  24.158  0.00  0.00    +0.178 C 
ATOM      6  O   UNL     1       6.908  -5.567  24.358  0.00  0.00    -0.341 OA
ENDROOT
BRANCH   1   8
ATOM      7  C   UNL     1       9.255  -4.958  25.554  0.00  0.00    +0.197 C 
ATOM      8  O   UNL     1       8.993  -4.539  24.220  0.00  0.00    -0.352 OA
ENDBRANCH   1   8
BRANCH   2   9
ATOM      9  O   UNL     1       7.858  -2.702  22.189  0.00  0.00    -0.384 OA
ATOM     10  H   UNL     1       7.469  -2.465  21.324  0.00  0.00    +0.210 HD
ENDBRANCH   2   9
BRANCH   3  11
ATOM     11  O   UNL     1       5.645  -3.844  20.772  0.00  0.00    -0.386 OA
ATOM     12  H   UNL     1       6.522  -3.978  20.358  0.00  0.00    +0.210 HD
ENDBRANCH   3  11
BRANCH   4  13
ATOM     13  O   UNL     1       5.653  -6.378  21.845  0.00  0.00    -0.386 OA
ATOM     14  H   UNL     1       6.258  -6.933  22.361  0.00  0.00    +0.210 HD
ENDBRANCH   4  13
BRANCH   5  15
ATOM     15  C   UNL     1       4.866  -6.737  24.759  0.00  0.00    +0.190 C 
BRANCH  15  16
ATOM     16  O   UNL     1       4.050  -7.374  23.776  0.00  0.00    -0.392 OA
ATOM     17  H   UNL     1       4.225  -8.331  23.867  0.00  0.00    +0.210 HD
ENDBRANCH  15  16
ENDBRANCH   5  15
TORSDOF 6
ENDMDL
MODEL 4
REMARK VINA RESULT:      -4.4      1.958      3.662
REMARK  Name = 
REMARK  7 active torsions:
REMARK  status: ('A' for Active; 'I' for Inactive)
REMARK    1  A    between atoms: C_1  and  O_2
REMARK    2  A    between atoms: O_2  and  C_3
REMARK    3  A    between atoms: C_6  and  C_8
REMARK    4  A    between atoms: C_8  and  O_9
REMARK    5  A    between atoms: C_10  and  O_12
REMARK    6  A    between atoms: C_13  and  O_15
REMARK    7  A    between atoms: C_16  and  O_18
REMARK                            x       y       z     vdW  Elec       q    Type
REMARK                         _______ _______ _______ _____ _____    ______ ____
ROOT
ATOM      1  C   UNL     1       6.305  -4.861  25.926  0.00  0.00    +0.281 C 
ATOM      2  C   UNL     1       7.703  -5.527  25.894  0.00  0.00    +0.201 C 
ATOM      3  C   UNL     1       8.663  -4.689  25.036  0.00  0.00    +0.179 C 
ATOM      4  C   UNL     1       8.066  -4.355  23.667  0.00  0.00    +0.177 C 
ATOM      5  C   UNL     1       6.703  -3.687  23.893  0.00  0.00    +0.178 C 
ATOM      6  O   UNL     1       5.827  -4.567  24.611  0.00  0.00    -0.341 OA
ENDROOT
BRANCH   1   8
ATOM      7  C   UNL     1       4.776  -6.645  25.656  0.00  0.00    +0.197 C 
ATOM      8  O   UNL     1       5.371  -5.735  26.574  0.00  0.00    -0.352 OA
ENDBRANCH   1   8
BRANCH   2   9
ATOM      9  O   UNL     1       8.261  -5.611  27.219  0.00  0.00    -0.384 OA
ATOM     10  H   UNL     1       8.882  -4.858  27.290  0.00  0.00    +0.210 HD
ENDBRANCH   2   9
BRANCH   3  11
ATOM     11  O   UNL     1       9.911  -5.383  24.888  0.00  0.00    -0.386 OA
ATOM     12  H   UNL     1       9.757  -6.283  25.242  0.00  0.00    +0.210 HD
ENDBRANCH   3  11
BRANCH   4  13
ATOM     13  O   UNL     1       7.991  -5.583  22.927  0.00  0.00    -0.386 OA
ATOM     14  H   UNL     1       7.274  -6.131  23.283  0.00  0.00    +0.210 HD
ENDBRANCH   4  13
BRANCH   5  15
ATOM     15  C   UNL     1       6.001  -3.309  22.590  0.00  0.00    +0.190 C 
BRANCH  15  16
ATOM     16  O   UNL     1       5.155  -4.383  22.181  0.00  0.00    -0.392 OA
ATOM     17  H   UNL     1       4.901  -4.848  23.003  0.00  0.00    +0.210 HD
ENDBRANCH  15  16
ENDBRANCH   5  15
TORSDOF 6
ENDMDL
MODEL 5
REMARK VINA RESULT:      -4.4      4.227      6.106
REMARK  Name = 
REMARK  7 active torsions:
REMARK  status: ('A' for Active; 'I' for Inactive)
REMARK    1  A    between atoms: C_1  and  O_2
REMARK    2  A    between atoms: O_2  and  C_3
REMARK    3  A    between atoms: C_6  and  C_8
REMARK    4  A    between atoms: C_8  and  O_9
REMARK    5  A    between atoms: C_10  and  O_12
REMARK    6  A    between atoms: C_13  and  O_15
REMARK    7  A    between atoms: C_16  and  O_18
REMARK                            x       y       z     vdW  Elec       q    Type
REMARK                         _______ _______ _______ _____ _____    ______ ____
ROOT
ATOM      1  C   UNL     1       9.244   2.115  23.731  0.00  0.00    +0.281 C 
ATOM      2  C   UNL     1       9.879   1.308  22.571  0.00  0.00    +0.201 C 
ATOM      3  C   UNL     1       9.106  -0.003  22.360  0.00  0.00    +0.179 C 
ATOM      4  C   UNL     1       8.919  -0.776  23.667  0.00  0.00    +0.177 C 
ATOM      5  C   UNL     1       8.262   0.166  24.687  0.00  0.00    +0.178 C 
ATOM      6  O   UNL     1       9.088   1.318  24.908  0.00  0.00    -0.341 OA
ENDROOT
BRANCH   1   8
ATOM      7  C   UNL     1       9.321   4.450  24.090  0.00  0.00    +0.197 C 
ATOM      8  O   UNL     1      10.071   3.243  24.042  0.00  0.00    -0.352 OA
ENDBRANCH   1   8
BRANCH   2   9
ATOM      9  O   UNL     1       9.821   2.051  21.339  0.00  0.00    -0.384 OA
ATOM     10  H   UNL     1      10.725   2.398  21.199  0.00  0.00    +0.210 HD
ENDBRANCH   2   9
BRANCH   3  11
ATOM     11  O   UNL     1       9.783  -0.813  21.387  0.00  0.00    -0.386 OA
ATOM     12  H   UNL     1       9.158  -0.905  20.638  0.00  0.00    +0.210 HD
ENDBRANCH   3  11
BRANCH   4  13
ATOM     13  O   UNL     1      10.214  -1.247  24.069  0.00  0.00    -0.386 OA
ATOM     14  H   UNL     1      10.840  -1.136  23.337  0.00  0.00    +0.210 HD
ENDBRANCH   4  13
BRANCH   5  15
ATOM     15  C   UNL     1       8.028  -0.495  26.043  0.00  0.00    +0.190 C 
BRANCH  15  16
ATOM     16  O   UNL     1       9.227  -0.425  26.816  0.00  0.00    -0.392 OA
ATOM     17  H   UNL     1       9.927  -0.145  26.194  0.00  0.00    +0.210 HD
ENDBRANCH  15  16
ENDBRANCH   5  15
TORSDOF 6
ENDMDL
MODEL 6
REMARK VINA RESULT:      -4.3      2.982      5.313
REMARK  Name = 
REMARK  7 active torsions:
REMARK  status: ('A' for Active; 'I' for Inactive)
REMARK    1  A    between atoms: C_1  and  O_2
REMARK    2  A    between atoms: O_2  and  C_3
REMARK    3  A    between atoms: C_6  and  C_8
REMARK    4  A    between atoms: C_8  and  O_9
REMARK    5  A    between atoms: C_10  and  O_12
REMARK    6  A    between atoms: C_13  and  O_15
REMARK    7  A    between atoms: C_16  and  O_18
REMARK                            x       y       z     vdW  Elec       q    Type
REMARK                         _______ _______ _______ _____ _____    ______ ____
ROOT
ATOM      1  C   UNL     1       7.709  -0.186  24.175  0.00  0.00    +0.281 C 
ATOM      2  C   UNL     1       8.249  -1.629  24.010  0.00  0.00    +0.201 C 
ATOM      3  C   UNL     1       9.784  -1.613  23.976  0.00  0.00    +0.179 C 
ATOM      4  C   UNL     1      10.326  -0.594  22.970  0.00  0.00    +0.177 C 
ATOM      5  C   UNL     1       9.705   0.772  23.297  0.00  0.00    +0.178 C 
ATOM      6  O   UNL     1       8.275   0.705  23.211  0.00  0.00    -0.341 OA
ENDROOT
BRANCH   1   8
ATOM      7  C   UNL     1       5.635   0.414  25.139  0.00  0.00    +0.197 C 
ATOM      8  O   UNL     1       6.283  -0.186  24.024  0.00  0.00    -0.352 OA
ENDBRANCH   1   8
BRANCH   2   9
ATOM      9  O   UNL     1       7.845  -2.456  25.118  0.00  0.00    -0.384 OA
ATOM     10  H   UNL     1       7.392  -3.226  24.719  0.00  0.00    +0.210 HD
ENDBRANCH   2   9
BRANCH   3  11
ATOM     11  O   UNL     1      10.276  -2.928  23.676  0.00  0.00    -0.386 OA
ATOM     12  H   UNL     1      11.222  -2.812  23.454  0.00  0.00    +0.210 HD
ENDBRANCH   3  11
BRANCH   4  13
ATOM     13  O   UNL     1       9.997  -1.077  21.660  0.00  0.00    -0.386 OA
ATOM     14  H   UNL     1       9.420  -0.437  21.215  0.00  0.00    +0.210 HD
ENDBRANCH   4  13
BRANCH   5  15
ATOM     15  C   UNL     1      10.168   1.878  22.351  0.00  0.00    +0.190 C 
BRANCH  15  16
ATOM     16  O   UNL     1       9.296   1.930  21.223  0.00  0.00    -0.392 OA
ATOM     17  H   UNL     1       9.878   1.995  20.441  0.00  0.00    +0.210 HD
ENDBRANCH  15  16
ENDBRANCH   5  15
TORSDOF 6
ENDMDL
MODEL 7
REMARK VINA RESULT:      -4.3      4.526      6.380
REMARK  Name = 
REMARK  7 active torsions:
REMARK  status: ('A' for Active; 'I' for Inactive)
REMARK    1  A    between atoms: C_1  and  O_2
REMARK    2  A    between atoms: O_2  and  C_3
REMARK    3  A    between atoms: C_6  and  C_8
REMARK    4  A    between atoms: C_8  and  O_9
REMARK    5  A    between atoms: C_10  and  O_12
REMARK    6  A    between atoms: C_13  and  O_15
REMARK    7  A    between atoms: C_16  and  O_18
REMARK                            x       y       z     vdW  Elec       q    Type
REMARK                         _______ _______ _______ _____ _____    ______ ____
ROOT
ATOM      1  C   UNL     1       9.184   0.430  22.697  0.00  0.00    +0.281 C 
ATOM      2  C   UNL     1       8.981   1.761  21.931  0.00  0.00    +0.201 C 
ATOM      3  C   UNL     1       8.190   2.750  22.799  0.00  0.00    +0.179 C 
ATOM      4  C   UNL     1       6.914   2.123  23.366  0.00  0.00    +0.177 C 
ATOM      5  C   UNL     1       7.305   0.835  24.105  0.00  0.00    +0.178 C 
ATOM      6  O   UNL     1       7.950  -0.080  23.208  0.00  0.00    -0.341 OA
ENDROOT
BRANCH   1   8
ATOM      7  C   UNL     1      10.334  -1.630  22.542  0.00  0.00    +0.197 C 
ATOM      8  O   UNL     1       9.761  -0.547  21.821  0.00  0.00    -0.352 OA
ENDBRANCH   1   8
BRANCH   2   9
ATOM      9  O   UNL     1      10.249   2.370  21.620  0.00  0.00    -0.384 OA
ATOM     10  H   UNL     1      10.782   2.297  22.436  0.00  0.00    +0.210 HD
ENDBRANCH   2   9
BRANCH   3  11
ATOM     11  O   UNL     1       7.877   3.924  22.033  0.00  0.00    -0.386 OA
ATOM     12  H   UNL     1       7.210   4.412  22.558  0.00  0.00    +0.210 HD
ENDBRANCH   3  11
BRANCH   4  13
ATOM     13  O   UNL     1       6.022   1.905  22.263  0.00  0.00    -0.386 OA
ATOM     14  H   UNL     1       5.179   1.556  22.592  0.00  0.00    +0.210 HD
ENDBRANCH   4  13
BRANCH   5  15
ATOM     15  C   UNL     1       6.107   0.111  24.715  0.00  0.00    +0.190 C 
BRANCH  15  16
ATOM     16  O   UNL     1       4.963   0.962  24.659  0.00  0.00    -0.392 OA
ATOM     17  H   UNL     1       4.842   1.182  23.714  0.00  0.00    +0.210 HD
ENDBRANCH  15  16
ENDBRANCH   5  15
TORSDOF 6
ENDMDL
MODEL 8
REMARK VINA RESULT:      -4.3      3.934      6.760
REMARK  Name = 
REMARK  7 active torsions:
REMARK  status: ('A' for Active; 'I' for Inactive)
REMARK    1  A    between atoms: C_1  and  O_2
REMARK    2  A    between atoms: O_2  and  C_3
REMARK    3  A    between atoms: C_6  and  C_8
REMARK    4  A    between atoms: C_8  and  O_9
REMARK    5  A    between atoms: C_10  and  O_12
REMARK    6  A    between atoms: C_13  and  O_15
REMARK    7  A    between atoms: C_16  and  O_18
REMARK                            x       y       z     vdW  Elec       q    Type
REMARK                         _______ _______ _______ _____ _____    ______ ____
ROOT
ATOM      1  C   UNL     1       7.177   1.051  22.676  0.00  0.00    +0.281 C 
ATOM      2  C   UNL     1       8.286   2.121  22.524  0.00  0.00    +0.201 C 
ATOM      3  C   UNL     1       9.452   1.555  21.700  0.00  0.00    +0.179 C 
ATOM      4  C   UNL     1       9.922   0.198  22.229  0.00  0.00    +0.177 C 
ATOM      5  C   UNL     1       8.705  -0.736  22.291  0.00  0.00    +0.178 C 
ATOM      6  O   UNL     1       7.700  -0.190  23.157  0.00  0.00    -0.341 OA
ENDROOT
BRANCH   1   8
ATOM      7  C   UNL     1       5.929   0.577  24.628  0.00  0.00    +0.197 C 
ATOM      8  O   UNL     1       6.178   1.519  23.592  0.00  0.00    -0.352 OA
ENDBRANCH   1   8
BRANCH   2   9
ATOM      9  O   UNL     1       7.786   3.282  21.832  0.00  0.00    -0.384 OA
ATOM     10  H   UNL     1       8.541   3.901  21.780  0.00  0.00    +0.210 HD
ENDBRANCH   2   9
BRANCH   3  11
ATOM     11  O   UNL     1      10.537   2.495  21.686  0.00  0.00    -0.386 OA
ATOM     12  H   UNL     1      10.784   2.627  22.625  0.00  0.00    +0.210 HD
ENDBRANCH   3  11
BRANCH   4  13
ATOM     13  O   UNL     1      10.536   0.430  23.505  0.00  0.00    -0.386 OA
ATOM     14  H   UNL     1      11.059   1.246  23.469  0.00  0.00    +0.210 HD
ENDBRANCH   4  13
BRANCH   5  15
ATOM     15  C   UNL     1       9.049  -2.129  22.813  0.00  0.00    +0.190 C 
BRANCH  15  16
ATOM     16  O   UNL     1      10.462  -2.322  22.748  0.00  0.00    -0.392 OA
ATOM     17  H   UNL     1      10.720  -2.685  23.617  0.00  0.00    +0.210 HD
ENDBRANCH  15  16
ENDBRANCH   5  15
TORSDOF 6
ENDMDL
MODEL 9
REMARK VINA RESULT:      -4.3      3.587      5.706
REMARK  Name = 
REMARK  7 active torsions:
REMARK  status: ('A' for Active; 'I' for Inactive)
REMARK    1  A    between atoms: C_1  and  O_2
REMARK    2  A    between atoms: O_2  and  C_3
REMARK    3  A    between atoms: C_6  and  C_8
REMARK    4  A    between atoms: C_8  and  O_9
REMARK    5  A    between atoms: C_10  and  O_12
REMARK    6  A    between atoms: C_13  and  O_15
REMARK    7  A    between atoms: C_16  and  O_18
REMARK                            x       y       z     vdW  Elec       q    Type
REMARK                         _______ _______ _______ _____ _____    ______ ____
ROOT
ATOM      1  C   UNL     1       9.789  -0.606  24.855  0.00  0.00    +0.281 C 
ATOM      2  C   UNL     1       9.556  -1.357  23.520  0.00  0.00    +0.201 C 
ATOM      3  C   UNL     1      10.163  -0.559  22.357  0.00  0.00    +0.179 C 
ATOM      4  C   UNL     1       9.715   0.905  22.370  0.00  0.00    +0.177 C 
ATOM      5  C   UNL     1      10.041   1.490  23.752  0.00  0.00    +0.178 C 
ATOM      6  O   UNL     1       9.360   0.755  24.779  0.00  0.00    -0.341 OA
ENDROOT
BRANCH   1   8
ATOM      7  C   UNL     1       7.666  -1.260  25.667  0.00  0.00    +0.197 C 
ATOM      8  O   UNL     1       9.068  -1.261  25.907  0.00  0.00    -0.352 OA
ENDBRANCH   1   8
BRANCH   2   9
ATOM      9  O   UNL     1      10.193  -2.649  23.542  0.00  0.00    -0.384 OA
ATOM     10  H   UNL     1      10.432  -2.839  22.613  0.00  0.00    +0.210 HD
ENDBRANCH   2   9
BRANCH   3  11
ATOM     11  O   UNL     1       9.818  -1.181  21.110  0.00  0.00    -0.386 OA
ATOM     12  H   UNL     1       9.728  -0.449  20.465  0.00  0.00    +0.210 HD
ENDBRANCH   3  11
BRANCH   4  13
ATOM     13  O   UNL     1       8.315   0.922  22.053  0.00  0.00    -0.386 OA
ATOM     14  H   UNL     1       8.169   1.465  21.263  0.00  0.00    +0.210 HD
ENDBRANCH   4  13
BRANCH   5  15
ATOM     15  C   UNL     1       9.632   2.954  23.890  0.00  0.00    +0.190 C 
BRANCH  15  16
ATOM     16  O   UNL     1       9.256   3.462  22.610  0.00  0.00    -0.392 OA
ATOM     17  H   UNL     1       8.950   4.377  22.767  0.00  0.00    +0.210 HD
ENDBRANCH  15  16
ENDBRANCH   5  15
TORSDOF 6
ENDMDL
