MODEL 1
REMARK VINA RESULT:      -5.5      0.000      0.000
REMARK  Name = 
REMARK  8 active torsions:
REMARK  status: ('A' for Active; 'I' for Inactive)
REMARK    1  A    between atoms: C_1  and  C_2
REMARK    2  A    between atoms: C_2  and  O_3
REMARK    3  A    between atoms: O_3  and  C_4
REMARK    4  A    between atoms: C_4  and  C_6
REMARK    5  A    between atoms: C_6  and  C_7
REMARK    6  A    between atoms: C_7  and  C_8
REMARK    7  A    between atoms: C_11  and  S_14
REMARK    8  A    between atoms: S_14  and  N_15
REMARK                            x       y       z     vdW  Elec       q    Type
REMARK                         _______ _______ _______ _____ _____    ______ ____
ROOT
ATOM      1  C   UNL     1       9.121  -1.320  22.222  0.00  0.00    -0.047 A 
ATOM      2  C   UNL     1      10.183  -1.699  23.061  0.00  0.00    +0.005 A 
ATOM      3  C   UNL     1      10.013  -2.702  24.016  0.00  0.00    +0.029 A 
ATOM      4  C   UNL     1       8.778  -3.345  24.118  0.00  0.00    +0.105 A 
ATOM      5  C   UNL     1       7.716  -2.990  23.287  0.00  0.00    +0.029 A 
ATOM      6  C   UNL     1       7.891  -1.991  22.330  0.00  0.00    +0.005 A 
ENDROOT
BRANCH   4   7
ATOM      7  S   UNL     1       8.548  -4.630  25.306  0.00  0.00    +0.056 S 
ATOM      8  O   UNL     1       7.280  -5.278  25.067  0.00  0.00    -0.153 OA
ATOM      9  O   UNL     1       8.949  -4.155  26.609  0.00  0.00    -0.153 OA
BRANCH   7  10
ATOM     10  N   UNL     1       9.728  -5.720  24.821  0.00  0.00    -0.204 NA
ATOM     11  H   UNL     1      10.523  -5.224  24.421  0.00  0.00    +0.144 HD
ATOM     12  H   UNL     1       9.321  -6.432  24.215  0.00  0.00    +0.144 HD
ENDBRANCH   7  10
ENDBRANCH   4   7
BRANCH   1  13
ATOM     13  C   UNL     1       9.341  -0.219  21.209  0.00  0.00    +0.046 C 
BRANCH  13  14
ATOM     14  C   UNL     1       9.826   1.089  21.829  0.00  0.00    +0.125 C 
BRANCH  14  15
ATOM     15  C   UNL     1       8.681   1.963  22.256  0.00  0.00    +0.307 C 
ATOM     16  O   UNL     1       7.647   2.140  21.631  0.00  0.00    -0.251 OA
BRANCH  15  17
ATOM     17  O   UNL     1       9.028   2.589  23.416  0.00  0.00    -0.465 OA
BRANCH  17  19
ATOM     18  C   UNL     1       8.430   1.044  25.134  0.00  0.00    +0.048 C 
ATOM     19  C   UNL     1       9.581   1.738  24.426  0.00  0.00    +0.229 C 
ENDBRANCH  17  19
ENDBRANCH  15  17
ENDBRANCH  14  15
ENDBRANCH  13  14
ENDBRANCH   1  13
TORSDOF 7
ENDMDL
MODEL 2
REMARK VINA RESULT:      -5.3      1.908      2.606
REMARK  Name = 
REMARK  8 active torsions:
REMARK  status: ('A' for Active; 'I' for Inactive)
REMARK    1  A    between atoms: C_1  and  C_2
REMARK    2  A    between atoms: C_2  and  O_3
REMARK    3  A    between atoms: O_3  and  C_4
REMARK    4  A    between atoms: C_4  and  C_6
REMARK    5  A    between atoms: C_6  and  C_7
REMARK    6  A    between atoms: C_7  and  C_8
REMARK    7  A    between atoms: C_11  and  S_14
REMARK    8  A    between atoms: S_14  and  N_15
REMARK                            x       y       z     vdW  Elec       q    Type
REMARK                         _______ _______ _______ _____ _____    ______ ____
ROOT
ATOM      1  C   UNL     1       9.227  -0.516  24.956  0.00  0.00    -0.047 A 
ATOM      2  C   UNL     1       9.656  -1.299  23.870  0.00  0.00    +0.005 A 
ATOM      3  C   UNL     1       9.538  -2.689  23.904  0.00  0.00    +0.029 A 
ATOM      4  C   UNL     1       8.966  -3.298  25.022  0.00  0.00    +0.105 A 
ATOM      5  C   UNL     1       8.524  -2.537  26.103  0.00  0.00    +0.029 A 
ATOM      6  C   UNL     1       8.639  -1.148  26.064  0.00  0.00    +0.005 A 
ENDROOT
BRANCH   4   7
ATOM      7  S   UNL     1       8.789  -5.053  25.076  0.00  0.00    +0.056 S 
ATOM      8  O   UNL     1       8.528  -5.548  23.745  0.00  0.00    -0.153 OA
ATOM      9  O   UNL     1       7.982  -5.418  26.217  0.00  0.00    -0.153 OA
BRANCH   7  10
ATOM     10  N   UNL     1      10.359  -5.515  25.447  0.00  0.00    -0.204 NA
ATOM     11  H   UNL     1      10.953  -4.694  25.551  0.00  0.00    +0.144 HD
ATOM     12  H   UNL     1      10.694  -6.199  24.768  0.00  0.00    +0.144 HD
ENDBRANCH   7  10
ENDBRANCH   4   7
BRANCH   1  13
ATOM     13  C   UNL     1       9.385   0.987  24.886  0.00  0.00    +0.046 C 
BRANCH  13  14
ATOM     14  C   UNL     1      10.702   1.431  24.254  0.00  0.00    +0.125 C 
BRANCH  14  15
ATOM     15  C   UNL     1      10.478   2.325  23.068  0.00  0.00    +0.307 C 
ATOM     16  O   UNL     1      10.044   1.973  21.982  0.00  0.00    -0.251 OA
BRANCH  15  17
ATOM     17  O   UNL     1      10.920   3.575  23.382  0.00  0.00    -0.465 OA
BRANCH  17  19
ATOM     18  C   UNL     1      10.518   5.889  23.801  0.00  0.00    +0.048 C 
ATOM     19  C   UNL     1       9.902   4.502  23.774  0.00  0.00    +0.229 C 
ENDBRANCH  17  19
ENDBRANCH  15  17
ENDBRANCH  14  15
ENDBRANCH  13  14
ENDBRANCH   1  13
TORSDOF 7
ENDMDL
MODEL 3
REMARK VINA RESULT:      -5.3      1.536      2.441
REMARK  Name = 
REMARK  8 active torsions:
REMARK  status: ('A' for Active; 'I' for Inactive)
REMARK    1  A    between atoms: C_1  and  C_2
REMARK    2  A    between atoms: C_2  and  O_3
REMARK    3  A    between atoms: O_3  and  C_4
REMARK    4  A    between atoms: C_4  and  C_6
REMARK    5  A    between atoms: C_6  and  C_7
REMARK    6  A    between atoms: C_7  and  C_8
REMARK    7  A    between atoms: C_11  and  S_14
REMARK    8  A    between atoms: S_14  and  N_15
REMARK                            x       y       z     vdW  Elec       q    Type
REMARK                         _______ _______ _______ _____ _____    ______ ____
ROOT
ATOM      1  C   UNL     1       9.346  -0.565  25.044  0.00  0.00    -0.047 A 
ATOM      2  C   UNL     1       9.738  -1.314  23.921  0.00  0.00    +0.005 A 
ATOM      3  C   UNL     1       9.539  -2.694  23.882  0.00  0.00    +0.029 A 
ATOM      4  C   UNL     1       8.922  -3.326  24.963  0.00  0.00    +0.105 A 
ATOM      5  C   UNL     1       8.515  -2.598  26.080  0.00  0.00    +0.029 A 
ATOM      6  C   UNL     1       8.712  -1.218  26.114  0.00  0.00    +0.005 A 
ENDROOT
BRANCH   4   7
ATOM      7  S   UNL     1       8.641  -5.069  24.924  0.00  0.00    +0.056 S 
ATOM      8  O   UNL     1       8.331  -5.471  23.573  0.00  0.00    -0.153 OA
ATOM      9  O   UNL     1       7.833  -5.449  26.058  0.00  0.00    -0.153 OA
BRANCH   7  10
ATOM     10  N   UNL     1      10.187  -5.641  25.239  0.00  0.00    -0.204 NA
ATOM     11  H   UNL     1      10.789  -5.496  24.429  0.00  0.00    +0.144 HD
ATOM     12  H   UNL     1      10.144  -6.605  25.570  0.00  0.00    +0.144 HD
ENDBRANCH   7  10
ENDBRANCH   4   7
BRANCH   1  13
ATOM     13  C   UNL     1       9.593   0.928  25.055  0.00  0.00    +0.046 C 
BRANCH  13  14
ATOM     14  C   UNL     1      10.715   1.365  24.117  0.00  0.00    +0.125 C 
BRANCH  14  15
ATOM     15  C   UNL     1      10.263   2.442  23.172  0.00  0.00    +0.307 C 
ATOM     16  O   UNL     1      10.355   3.644  23.364  0.00  0.00    -0.251 OA
BRANCH  15  17
ATOM     17  O   UNL     1       9.656   1.850  22.105  0.00  0.00    -0.465 OA
BRANCH  17  19
ATOM     18  C   UNL     1       7.391   1.111  22.227  0.00  0.00    +0.048 C 
ATOM     19  C   UNL     1       8.307   2.265  21.862  0.00  0.00    +0.229 C 
ENDBRANCH  17  19
ENDBRANCH  15  17
ENDBRANCH  14  15
ENDBRANCH  13  14
ENDBRANCH   1  13
TORSDOF 7
ENDMDL
MODEL 4
REMARK VINA RESULT:      -5.1      3.902      6.198
REMARK  Name = 
REMARK  8 active torsions:
REMARK  status: ('A' for Active; 'I' for Inactive)
REMARK    1  A    between atoms: C_1  and  C_2
REMARK    2  A    between atoms: C_2  and  O_3
REMARK    3  A    between atoms: O_3  and  C_4
REMARK    4  A    between atoms: C_4  and  C_6
REMARK    5  A    between atoms: C_6  and  C_7
REMARK    6  A    between atoms: C_7  and  C_8
REMARK    7  A    between atoms: C_11  and  S_14
REMARK    8  A    between atoms: S_14  and  N_15
REMARK                            x       y       z     vdW  Elec       q    Type
REMARK                         _______ _______ _______ _____ _____    ______ ____
ROOT
ATOM      1  C   UNL     1       9.951  -0.001  22.628  0.00  0.00    -0.047 A 
ATOM      2  C   UNL     1      10.566   0.464  23.803  0.00  0.00    +0.005 A 
ATOM      3  C   UNL     1      10.451   1.801  24.186  0.00  0.00    +0.029 A 
ATOM      4  C   UNL     1       9.697   2.673  23.399  0.00  0.00    +0.105 A 
ATOM      5  C   UNL     1       9.071   2.228  22.236  0.00  0.00    +0.029 A 
ATOM      6  C   UNL     1       9.184   0.890  21.859  0.00  0.00    +0.005 A 
ENDROOT
BRANCH   4   7
ATOM      7  S   UNL     1       9.522   4.364  23.876  0.00  0.00    +0.056 S 
ATOM      8  O   UNL     1      10.776   5.049  23.672  0.00  0.00    -0.153 OA
ATOM      9  O   UNL     1       8.785   4.438  25.115  0.00  0.00    -0.153 OA
BRANCH   7  10
ATOM     10  N   UNL     1       8.485   4.921  22.680  0.00  0.00    -0.204 NA
ATOM     11  H   UNL     1       9.015   5.202  21.857  0.00  0.00    +0.144 HD
ATOM     12  H   UNL     1       7.869   5.641  23.057  0.00  0.00    +0.144 HD
ENDBRANCH   7  10
ENDBRANCH   4   7
BRANCH   1  13
ATOM     13  C   UNL     1      10.112  -1.454  22.239  0.00  0.00    +0.046 C 
BRANCH  13  14
ATOM     14  C   UNL     1       8.927  -2.327  22.645  0.00  0.00    +0.125 C 
BRANCH  14  15
ATOM     15  C   UNL     1       9.106  -2.906  24.020  0.00  0.00    +0.307 C 
ATOM     16  O   UNL     1       9.939  -3.739  24.340  0.00  0.00    -0.251 OA
BRANCH  15  17
ATOM     17  O   UNL     1       8.126  -2.409  24.826  0.00  0.00    -0.465 OA
BRANCH  17  19
ATOM     18  C   UNL     1       8.699  -0.973  26.643  0.00  0.00    +0.048 C 
ATOM     19  C   UNL     1       8.429  -2.407  26.225  0.00  0.00    +0.229 C 
ENDBRANCH  17  19
ENDBRANCH  15  17
ENDBRANCH  14  15
ENDBRANCH  13  14
ENDBRANCH   1  13
TORSDOF 7
ENDMDL
MODEL 5
REMARK VINA RESULT:      -5.1      1.129      1.750
REMARK  Name = 
REMARK  8 active torsions:
REMARK  status: ('A' for Active; 'I' for Inactive)
REMARK    1  A    between atoms: C_1  and  C_2
REMARK    2  A    between atoms: C_2  and  O_3
REMARK    3  A    between atoms: O_3  and  C_4
REMARK    4  A    between atoms: C_4  and  C_6
REMARK    5  A    between atoms: C_6  and  C_7
REMARK    6  A    between atoms: C_7  and  C_8
REMARK    7  A    between atoms: C_11  and  S_14
REMARK    8  A    between atoms: S_14  and  N_15
REMARK                            x       y       z     vdW  Elec       q    Type
REMARK                         _______ _______ _______ _____ _____    ______ ____
ROOT
ATOM      1  C   UNL     1       9.120  -0.872  22.272  0.00  0.00    -0.047 A 
ATOM      2  C   UNL     1       7.831  -1.404  22.454  0.00  0.00    +0.005 A 
ATOM      3  C   UNL     1       7.632  -2.528  23.256  0.00  0.00    +0.029 A 
ATOM      4  C   UNL     1       8.726  -3.110  23.899  0.00  0.00    +0.105 A 
ATOM      5  C   UNL     1      10.010  -2.590  23.740  0.00  0.00    +0.029 A 
ATOM      6  C   UNL     1      10.204  -1.463  22.941  0.00  0.00    +0.005 A 
ENDROOT
BRANCH   4   7
ATOM      7  S   UNL     1       8.493  -4.520  24.935  0.00  0.00    +0.056 S 
ATOM      8  O   UNL     1       9.590  -5.439  24.743  0.00  0.00    -0.153 OA
ATOM      9  O   UNL     1       7.111  -4.932  24.880  0.00  0.00    -0.153 OA
BRANCH   7  10
ATOM     10  N   UNL     1       8.717  -3.836  26.451  0.00  0.00    -0.204 NA
ATOM     11  H   UNL     1       7.911  -4.023  27.045  0.00  0.00    +0.144 HD
ATOM     12  H   UNL     1       8.958  -2.849  26.359  0.00  0.00    +0.144 HD
ENDBRANCH   7  10
ENDBRANCH   4   7
BRANCH   1  13
ATOM     13  C   UNL     1       9.296   0.339  21.382  0.00  0.00    +0.046 C 
BRANCH  13  14
ATOM     14  C   UNL     1      10.013   1.499  22.069  0.00  0.00    +0.125 C 
BRANCH  14  15
ATOM     15  C   UNL     1       9.085   2.284  22.952  0.00  0.00    +0.307 C 
ATOM     16  O   UNL     1       8.287   3.128  22.577  0.00  0.00    -0.251 OA
BRANCH  15  17
ATOM     17  O   UNL     1       9.346   1.955  24.249  0.00  0.00    -0.465 OA
BRANCH  17  19
ATOM     18  C   UNL     1       8.497   0.290  25.733  0.00  0.00    +0.048 C 
ATOM     19  C   UNL     1       8.199   1.604  25.031  0.00  0.00    +0.229 C 
ENDBRANCH  17  19
ENDBRANCH  15  17
ENDBRANCH  14  15
ENDBRANCH  13  14
ENDBRANCH   1  13
TORSDOF 7
ENDMDL
MODEL 6
REMARK VINA RESULT:      -5.0      3.165      6.379
REMARK  Name = 
REMARK  8 active torsions:
REMARK  status: ('A' for Active; 'I' for Inactive)
REMARK    1  A    between atoms: C_1  and  C_2
REMARK    2  A    between atoms: C_2  and  O_3
REMARK    3  A    between atoms: O_3  and  C_4
REMARK    4  A    between atoms: C_4  and  C_6
REMARK    5  A    between atoms: C_6  and  C_7
REMARK    6  A    between atoms: C_7  and  C_8
REMARK    7  A    between atoms: C_11  and  S_14
REMARK    8  A    between atoms: S_14  and  N_15
REMARK                            x       y       z     vdW  Elec       q    Type
REMARK                         _______ _______ _______ _____ _____    ______ ____
ROOT
ATOM      1  C   UNL     1       9.373  -2.466  24.377  0.00  0.00    -0.047 A 
ATOM      2  C   UNL     1      10.099  -2.067  23.241  0.00  0.00    +0.005 A 
ATOM      3  C   UNL     1      10.186  -0.720  22.888  0.00  0.00    +0.029 A 
ATOM      4  C   UNL     1       9.562   0.237  23.691  0.00  0.00    +0.105 A 
ATOM      5  C   UNL     1       8.847  -0.138  24.828  0.00  0.00    +0.029 A 
ATOM      6  C   UNL     1       8.767  -1.485  25.179  0.00  0.00    +0.005 A 
ENDROOT
BRANCH   4   7
ATOM      7  S   UNL     1       9.676   1.949  23.274  0.00  0.00    +0.056 S 
ATOM      8  O   UNL     1      10.935   2.471  23.750  0.00  0.00    -0.153 OA
ATOM      9  O   UNL     1       8.412   2.592  23.542  0.00  0.00    -0.153 OA
BRANCH   7  10
ATOM     10  N   UNL     1       9.810   1.856  21.604  0.00  0.00    -0.204 NA
ATOM     11  H   UNL     1      10.754   1.579  21.340  0.00  0.00    +0.144 HD
ATOM     12  H   UNL     1       9.485   2.724  21.177  0.00  0.00    +0.144 HD
ENDBRANCH   7  10
ENDBRANCH   4   7
BRANCH   1  13
ATOM     13  C   UNL     1       9.291  -3.938  24.717  0.00  0.00    +0.046 C 
BRANCH  13  14
ATOM     14  C   UNL     1       9.084  -4.208  26.205  0.00  0.00    +0.125 C 
BRANCH  14  15
ATOM     15  C   UNL     1       7.902  -5.102  26.450  0.00  0.00    +0.307 C 
ATOM     16  O   UNL     1       7.628  -5.647  27.508  0.00  0.00    -0.251 OA
BRANCH  15  17
ATOM     17  O   UNL     1       7.238  -5.269  25.272  0.00  0.00    -0.465 OA
BRANCH  17  19
ATOM     18  C   UNL     1       5.521  -3.829  24.453  0.00  0.00    +0.048 C 
ATOM     19  C   UNL     1       5.827  -5.032  25.328  0.00  0.00    +0.229 C 
ENDBRANCH  17  19
ENDBRANCH  15  17
ENDBRANCH  14  15
ENDBRANCH  13  14
ENDBRANCH   1  13
TORSDOF 7
ENDMDL
MODEL 7
REMARK VINA RESULT:      -5.0      4.431      7.123
REMARK  Name = 
REMARK  8 active torsions:
REMARK  status: ('A' for Active; 'I' for Inactive)
REMARK    1  A    between atoms: C_1  and  C_2
REMARK    2  A    between atoms: C_2  and  O_3
REMARK    3  A    between atoms: O_3  and  C_4
REMARK    4  A    between atoms: C_4  and  C_6
REMARK    5  A    between atoms: C_6  and  C_7
REMARK    6  A    between atoms: C_7  and  C_8
REMARK    7  A    between atoms: C_11  and  S_14
REMARK    8  A    between atoms: S_14  and  N_15
REMARK                            x       y       z     vdW  Elec       q    Type
REMARK                         _______ _______ _______ _____ _____    ______ ____
ROOT
ATOM      1  C   UNL     1       9.836   1.400  24.466  0.00  0.00    -0.047 A 
ATOM      2  C   UNL     1       8.533   1.760  24.851  0.00  0.00    +0.005 A 
ATOM      3  C   UNL     1       8.019   3.019  24.537  0.00  0.00    +0.029 A 
ATOM      4  C   UNL     1       8.807   3.915  23.813  0.00  0.00    +0.105 A 
ATOM      5  C   UNL     1      10.097   3.572  23.412  0.00  0.00    +0.029 A 
ATOM      6  C   UNL     1      10.605   2.311  23.724  0.00  0.00    +0.005 A 
ENDROOT
BRANCH   4   7
ATOM      7  S   UNL     1       8.169   5.506  23.388  0.00  0.00    +0.056 S 
ATOM      8  O   UNL     1       9.268   6.408  23.138  0.00  0.00    -0.153 OA
ATOM      9  O   UNL     1       7.074   5.834  24.269  0.00  0.00    -0.153 OA
BRANCH   7  10
ATOM     10  N   UNL     1       7.484   5.178  21.892  0.00  0.00    -0.204 NA
ATOM     11  H   UNL     1       6.784   5.882  21.663  0.00  0.00    +0.144 HD
ATOM     12  H   UNL     1       7.146   4.216  21.863  0.00  0.00    +0.144 HD
ENDBRANCH   7  10
ENDBRANCH   4   7
BRANCH   1  13
ATOM     13  C   UNL     1      10.361   0.031  24.839  0.00  0.00    +0.046 C 
BRANCH  13  14
ATOM     14  C   UNL     1       9.438  -1.110  24.417  0.00  0.00    +0.125 C 
BRANCH  14  15
ATOM     15  C   UNL     1      10.098  -2.022  23.422  0.00  0.00    +0.307 C 
ATOM     16  O   UNL     1      10.385  -1.732  22.271  0.00  0.00    -0.251 OA
BRANCH  15  17
ATOM     17  O   UNL     1      10.241  -3.250  23.994  0.00  0.00    -0.465 OA
BRANCH  17  19
ATOM     18  C   UNL     1       9.429  -5.091  25.277  0.00  0.00    +0.048 C 
ATOM     19  C   UNL     1       9.059  -3.782  24.601  0.00  0.00    +0.229 C 
ENDBRANCH  17  19
ENDBRANCH  15  17
ENDBRANCH  14  15
ENDBRANCH  13  14
ENDBRANCH   1  13
TORSDOF 7
ENDMDL
MODEL 8
REMARK VINA RESULT:      -5.0      1.785      2.670
REMARK  Name = 
REMARK  8 active torsions:
REMARK  status: ('A' for Active; 'I' for Inactive)
REMARK    1  A    between atoms: C_1  and  C_2
REMARK    2  A    between atoms: C_2  and  O_3
REMARK    3  A    between atoms: O_3  and  C_4
REMARK    4  A    between atoms: C_4  and  C_6
REMARK    5  A    between atoms: C_6  and  C_7
REMARK    6  A    between atoms: C_7  and  C_8
REMARK    7  A    between atoms: C_11  and  S_14
REMARK    8  A    between atoms: S_14  and  N_15
REMARK                            x       y       z     vdW  Elec       q    Type
REMARK                         _______ _______ _______ _____ _____    ______ ____
ROOT
ATOM      1  C   UNL     1      10.236   0.029  24.084  0.00  0.00    -0.047 A 
ATOM      2  C   UNL     1       9.531  -0.492  25.183  0.00  0.00    +0.005 A 
ATOM      3  C   UNL     1       8.876  -1.720  25.091  0.00  0.00    +0.029 A 
ATOM      4  C   UNL     1       8.946  -2.443  23.899  0.00  0.00    +0.105 A 
ATOM      5  C   UNL     1       9.650  -1.949  22.802  0.00  0.00    +0.029 A 
ATOM      6  C   UNL     1      10.307  -0.723  22.899  0.00  0.00    +0.005 A 
ENDROOT
BRANCH   4   7
ATOM      7  S   UNL     1       8.141  -4.009  23.768  0.00  0.00    +0.056 S 
ATOM      8  O   UNL     1       8.999  -5.033  24.316  0.00  0.00    -0.153 OA
ATOM      9  O   UNL     1       7.521  -4.122  22.470  0.00  0.00    -0.153 OA
BRANCH   7  10
ATOM     10  N   UNL     1       6.889  -3.811  24.868  0.00  0.00    -0.204 NA
ATOM     11  H   UNL     1       7.198  -4.067  25.804  0.00  0.00    +0.144 HD
ATOM     12  H   UNL     1       6.056  -4.302  24.545  0.00  0.00    +0.144 HD
ENDBRANCH   7  10
ENDBRANCH   4   7
BRANCH   1  13
ATOM     13  C   UNL     1      10.921   1.371  24.219  0.00  0.00    +0.046 C 
BRANCH  13  14
ATOM     14  C   UNL     1      10.397   2.422  23.243  0.00  0.00    +0.125 C 
BRANCH  14  15
ATOM     15  C   UNL     1       9.091   3.006  23.700  0.00  0.00    +0.307 C 
ATOM     16  O   UNL     1       8.766   3.207  24.860  0.00  0.00    -0.251 OA
BRANCH  15  17
ATOM     17  O   UNL     1       8.298   3.193  22.608  0.00  0.00    -0.465 OA
BRANCH  17  19
ATOM     18  C   UNL     1       7.005   1.188  22.556  0.00  0.00    +0.048 C 
ATOM     19  C   UNL     1       8.047   2.018  21.828  0.00  0.00    +0.229 C 
ENDBRANCH  17  19
ENDBRANCH  15  17
ENDBRANCH  14  15
ENDBRANCH  13  14
ENDBRANCH   1  13
TORSDOF 7
ENDMDL
MODEL 9
REMARK VINA RESULT:      -5.0      3.203      6.205
REMARK  Name = 
REMARK  8 active torsions:
REMARK  status: ('A' for Active; 'I' for Inactive)
REMARK    1  A    between atoms: C_1  and  C_2
REMARK    2  A    between atoms: C_2  and  O_3
REMARK    3  A    between atoms: O_3  and  C_4
REMARK    4  A    between atoms: C_4  and  C_6
REMARK    5  A    between atoms: C_6  and  C_7
REMARK    6  A    between atoms: C_7  and  C_8
REMARK    7  A    between atoms: C_11  and  S_14
REMARK    8  A    between atoms: S_14  and  N_15
REMARK                            x       y       z     vdW  Elec       q    Type
REMARK                         _______ _______ _______ _____ _____    ______ ____
ROOT
ATOM      1  C   UNL     1       9.505  -2.229  24.290  0.00  0.00    -0.047 A 
ATOM      2  C   UNL     1      10.042  -1.833  23.052  0.00  0.00    +0.005 A 
ATOM      3  C   UNL     1      10.121  -0.482  22.710  0.00  0.00    +0.029 A 
ATOM      4  C   UNL     1       9.681   0.479  23.621  0.00  0.00    +0.105 A 
ATOM      5  C   UNL     1       9.155   0.106  24.858  0.00  0.00    +0.029 A 
ATOM      6  C   UNL     1       9.083  -1.244  25.198  0.00  0.00    +0.005 A 
ENDROOT
BRANCH   4   7
ATOM      7  S   UNL     1       9.791   2.194  23.216  0.00  0.00    +0.056 S 
ATOM      8  O   UNL     1      11.057   2.712  23.676  0.00  0.00    -0.153 OA
ATOM      9  O   UNL     1       8.532   2.837  23.508  0.00  0.00    -0.153 OA
BRANCH   7  10
ATOM     10  N   UNL     1       9.898   2.114  21.543  0.00  0.00    -0.204 NA
ATOM     11  H   UNL     1       9.708   3.028  21.134  0.00  0.00    +0.144 HD
ATOM     12  H   UNL     1       9.312   1.358  21.189  0.00  0.00    +0.144 HD
ENDBRANCH   7  10
ENDBRANCH   4   7
BRANCH   1  13
ATOM     13  C   UNL     1       9.423  -3.703  24.617  0.00  0.00    +0.046 C 
BRANCH  13  14
ATOM     14  C   UNL     1       8.086  -4.118  25.227  0.00  0.00    +0.125 C 
BRANCH  14  15
ATOM     15  C   UNL     1       7.002  -4.202  24.190  0.00  0.00    +0.307 C 
ATOM     16  O   UNL     1       5.983  -3.530  24.167  0.00  0.00    -0.251 OA
BRANCH  15  17
ATOM     17  O   UNL     1       7.309  -5.213  23.329  0.00  0.00    -0.465 OA
BRANCH  17  19
ATOM     18  C   UNL     1       6.127  -5.906  21.376  0.00  0.00    +0.048 C 
ATOM     19  C   UNL     1       7.125  -4.911  21.942  0.00  0.00    +0.229 C 
ENDBRANCH  17  19
ENDBRANCH  15  17
ENDBRANCH  14  15
ENDBRANCH  13  14
ENDBRANCH   1  13
TORSDOF 7
ENDMDL
