MODEL 1
REMARK VINA RESULT:      -5.1      0.000      0.000
REMARK  Name = 
REMARK  7 active torsions:
REMARK  status: ('A' for Active; 'I' for Inactive)
REMARK    1  A    between atoms: C_1  and  C_2
REMARK    2  A    between atoms: C_3  and  C_4
REMARK    3  A    between atoms: C_4  and  C_5
REMARK    4  A    between atoms: C_5  and  O_6
REMARK    5  A    between atoms: O_6  and  P_7
REMARK    6  A    between atoms: P_7  and  O_8
REMARK    7  A    between atoms: P_7  and  O_9
REMARK                            x       y       z     vdW  Elec       q    Type
REMARK                         _______ _______ _______ _____ _____    ______ ____
ROOT
ATOM      1  C   UNL     1       9.516  -2.440  24.164  0.00  0.00    +0.177 C 
ENDROOT
BRANCH   1   2
ATOM      2  C   UNL     1      10.168  -1.709  22.996  0.00  0.00    +0.073 C 
BRANCH   2   8
ATOM      3  C   UNL     1       8.954   0.655  21.101  0.00  0.00    +0.066 C 
ATOM      4  C   UNL     1       9.642   0.783  22.415  0.00  0.00    +0.049 A 
ATOM      5  N   UNL     1       9.783   2.061  22.936  0.00  0.00    -0.252 NA
ATOM      6  C   UNL     1      10.399   2.008  24.099  0.00  0.00    +0.156 A 
ATOM      7  S   UNL     1      10.848   0.448  24.633  0.00  0.00    -0.080 S 
ATOM      8  C   UNL     1      10.161  -0.230  23.212  0.00  0.00    +0.014 A 
ENDBRANCH   2   8
ENDBRANCH   1   2
BRANCH   1   9
ATOM      9  O   UNL     1      10.064  -3.753  24.299  0.00  0.00    -0.286 OA
BRANCH   9  10
ATOM     10  P   UNL     1       9.044  -4.771  25.258  0.00  0.00    +0.472 P 
ATOM     11  O   UNL     1       8.133  -5.682  26.114  0.00  0.00    -0.228 OA
BRANCH  10  12
ATOM     12  O   UNL     1      10.412  -5.633  25.495  0.00  0.00    -0.303 OA
ATOM     13  H   UNL     1      10.694  -5.535  26.421  0.00  0.00    +0.222 HD
ENDBRANCH  10  12
BRANCH  10  14
ATOM     14  O   UNL     1       8.619  -5.511  23.864  0.00  0.00    -0.303 OA
ATOM     15  H   UNL     1       7.681  -5.759  23.995  0.00  0.00    +0.222 HD
ENDBRANCH  10  14
ENDBRANCH   9  10
ENDBRANCH   1   9
TORSDOF 6
ENDMDL
MODEL 2
REMARK VINA RESULT:      -5.1      1.255      1.766
REMARK  Name = 
REMARK  7 active torsions:
REMARK  status: ('A' for Active; 'I' for Inactive)
REMARK    1  A    between atoms: C_1  and  C_2
REMARK    2  A    between atoms: C_3  and  C_4
REMARK    3  A    between atoms: C_4  and  C_5
REMARK    4  A    between atoms: C_5  and  O_6
REMARK    5  A    between atoms: O_6  and  P_7
REMARK    6  A    between atoms: P_7  and  O_8
REMARK    7  A    between atoms: P_7  and  O_9
REMARK                            x       y       z     vdW  Elec       q    Type
REMARK                         _______ _______ _______ _____ _____    ______ ____
ROOT
ATOM      1  C   UNL     1       9.464  -2.513  23.735  0.00  0.00    +0.177 C 
ENDROOT
BRANCH   1   2
ATOM      2  C   UNL     1      10.345  -1.772  22.736  0.00  0.00    +0.073 C 
BRANCH   2   8
ATOM      3  C   UNL     1      11.034   0.609  24.859  0.00  0.00    +0.066 C 
ATOM      4  C   UNL     1      10.289   0.701  23.573  0.00  0.00    +0.049 A 
ATOM      5  N   UNL     1       9.831   1.955  23.193  0.00  0.00    -0.252 NA
ATOM      6  C   UNL     1       9.205   1.874  22.038  0.00  0.00    +0.156 A 
ATOM      7  S   UNL     1       9.117   0.314  21.345  0.00  0.00    -0.080 S 
ATOM      8  C   UNL     1       9.995  -0.320  22.679  0.00  0.00    +0.014 A 
ENDBRANCH   2   8
ENDBRANCH   1   2
BRANCH   1   9
ATOM      9  O   UNL     1      10.144  -3.664  24.242  0.00  0.00    -0.286 OA
BRANCH   9  10
ATOM     10  P   UNL     1       9.107  -4.626  25.239  0.00  0.00    +0.472 P 
ATOM     11  O   UNL     1       8.180  -5.487  26.130  0.00  0.00    -0.228 OA
BRANCH  10  12
ATOM     12  O   UNL     1      10.429  -5.571  25.411  0.00  0.00    -0.303 OA
ATOM     13  H   UNL     1      10.916  -5.295  26.208  0.00  0.00    +0.222 HD
ENDBRANCH  10  12
BRANCH  10  14
ATOM     14  O   UNL     1       8.577  -5.328  23.861  0.00  0.00    -0.303 OA
ATOM     15  H   UNL     1       7.648  -5.031  23.778  0.00  0.00    +0.222 HD
ENDBRANCH  10  14
ENDBRANCH   9  10
ENDBRANCH   1   9
TORSDOF 6
ENDMDL
MODEL 3
REMARK VINA RESULT:      -4.9      4.768      6.114
REMARK  Name = 
REMARK  7 active torsions:
REMARK  status: ('A' for Active; 'I' for Inactive)
REMARK    1  A    between atoms: C_1  and  C_2
REMARK    2  A    between atoms: C_3  and  C_4
REMARK    3  A    between atoms: C_4  and  C_5
REMARK    4  A    between atoms: C_5  and  O_6
REMARK    5  A    between atoms: O_6  and  P_7
REMARK    6  A    between atoms: P_7  and  O_8
REMARK    7  A    between atoms: P_7  and  O_9
REMARK                            x       y       z     vdW  Elec       q    Type
REMARK                         _______ _______ _______ _____ _____    ______ ____
ROOT
ATOM      1  C   UNL     1      10.294  -1.270  22.800  0.00  0.00    +0.177 C 
ENDROOT
BRANCH   1   2
ATOM      2  C   UNL     1       9.702  -1.882  24.065  0.00  0.00    +0.073 C 
BRANCH   2   8
ATOM      3  C   UNL     1       9.591  -4.858  25.401  0.00  0.00    +0.066 C 
ATOM      4  C   UNL     1       8.749  -4.303  24.307  0.00  0.00    +0.049 A 
ATOM      5  N   UNL     1       7.768  -5.129  23.778  0.00  0.00    -0.252 NA
ATOM      6  C   UNL     1       7.107  -4.495  22.833  0.00  0.00    +0.156 A 
ATOM      7  S   UNL     1       7.613  -2.895  22.513  0.00  0.00    -0.080 S 
ATOM      8  C   UNL     1       8.808  -3.035  23.740  0.00  0.00    +0.014 A 
ENDBRANCH   2   8
ENDBRANCH   1   2
BRANCH   1   9
ATOM      9  O   UNL     1      10.388   0.150  22.930  0.00  0.00    -0.286 OA
BRANCH   9  10
ATOM     10  P   UNL     1       9.117   0.952  22.070  0.00  0.00    +0.472 P 
ATOM     11  O   UNL     1       7.982   1.668  21.301  0.00  0.00    -0.228 OA
BRANCH  10  12
ATOM     12  O   UNL     1       9.423  -0.164  20.915  0.00  0.00    -0.303 OA
ATOM     13  H   UNL     1      10.245  -0.636  21.139  0.00  0.00    +0.222 HD
ENDBRANCH  10  12
BRANCH  10  14
ATOM     14  O   UNL     1      10.247   2.022  21.572  0.00  0.00    -0.303 OA
ATOM     15  H   UNL     1       9.735   2.732  21.133  0.00  0.00    +0.222 HD
ENDBRANCH  10  14
ENDBRANCH   9  10
ENDBRANCH   1   9
TORSDOF 6
ENDMDL
MODEL 4
REMARK VINA RESULT:      -4.7      5.148      5.907
REMARK  Name = 
REMARK  7 active torsions:
REMARK  status: ('A' for Active; 'I' for Inactive)
REMARK    1  A    between atoms: C_1  and  C_2
REMARK    2  A    between atoms: C_3  and  C_4
REMARK    3  A    between atoms: C_4  and  C_5
REMARK    4  A    between atoms: C_5  and  O_6
REMARK    5  A    between atoms: O_6  and  P_7
REMARK    6  A    between atoms: P_7  and  O_8
REMARK    7  A    between atoms: P_7  and  O_9
REMARK                            x       y       z     vdW  Elec       q    Type
REMARK                         _______ _______ _______ _____ _____    ______ ____
ROOT
ATOM      1  C   UNL     1       5.969  -5.075  25.623  0.00  0.00    +0.177 C 
ENDROOT
BRANCH   1   2
ATOM      2  C   UNL     1       7.147  -5.049  24.656  0.00  0.00    +0.073 C 
BRANCH   2   8
ATOM      3  C   UNL     1       5.928  -2.488  23.042  0.00  0.00    +0.066 C 
ATOM      4  C   UNL     1       6.168  -3.869  22.541  0.00  0.00    +0.049 A 
ATOM      5  N   UNL     1       5.860  -4.126  21.213  0.00  0.00    -0.252 NA
ATOM      6  C   UNL     1       6.135  -5.380  20.922  0.00  0.00    +0.156 A 
ATOM      7  S   UNL     1       6.764  -6.322  22.201  0.00  0.00    -0.080 S 
ATOM      8  C   UNL     1       6.683  -4.955  23.239  0.00  0.00    +0.014 A 
ENDBRANCH   2   8
ENDBRANCH   1   2
BRANCH   1   9
ATOM      9  O   UNL     1       5.995  -6.268  26.410  0.00  0.00    -0.286 OA
BRANCH   9  10
ATOM     10  P   UNL     1       6.017  -5.912  28.103  0.00  0.00    +0.472 P 
ATOM     11  O   UNL     1       6.036  -5.594  29.617  0.00  0.00    -0.228 OA
BRANCH  10  12
ATOM     12  O   UNL     1       7.619  -6.205  27.973  0.00  0.00    -0.303 OA
ATOM     13  H   UNL     1       7.976  -6.420  28.853  0.00  0.00    +0.222 HD
ENDBRANCH  10  12
BRANCH  10  14
ATOM     14  O   UNL     1       5.580  -7.468  28.348  0.00  0.00    -0.303 OA
ATOM     15  H   UNL     1       4.615  -7.429  28.506  0.00  0.00    +0.222 HD
ENDBRANCH  10  14
ENDBRANCH   9  10
ENDBRANCH   1   9
TORSDOF 6
ENDMDL
MODEL 5
REMARK VINA RESULT:      -4.7      5.182      5.931
REMARK  Name = 
REMARK  7 active torsions:
REMARK  status: ('A' for Active; 'I' for Inactive)
REMARK    1  A    between atoms: C_1  and  C_2
REMARK    2  A    between atoms: C_3  and  C_4
REMARK    3  A    between atoms: C_4  and  C_5
REMARK    4  A    between atoms: C_5  and  O_6
REMARK    5  A    between atoms: O_6  and  P_7
REMARK    6  A    between atoms: P_7  and  O_8
REMARK    7  A    between atoms: P_7  and  O_9
REMARK                            x       y       z     vdW  Elec       q    Type
REMARK                         _______ _______ _______ _____ _____    ______ ____
ROOT
ATOM      1  C   UNL     1      10.558   0.989  24.655  0.00  0.00    +0.177 C 
ENDROOT
BRANCH   1   2
ATOM      2  C   UNL     1       9.146   0.415  24.660  0.00  0.00    +0.073 C 
BRANCH   2   8
ATOM      3  C   UNL     1      10.369  -1.612  22.413  0.00  0.00    +0.066 C 
ATOM      4  C   UNL     1       9.693  -1.950  23.694  0.00  0.00    +0.049 A 
ATOM      5  N   UNL     1       9.568  -3.296  24.011  0.00  0.00    -0.252 NA
ATOM      6  C   UNL     1       8.961  -3.431  25.171  0.00  0.00    +0.156 A 
ATOM      7  S   UNL     1       8.500  -1.979  25.945  0.00  0.00    -0.080 S 
ATOM      8  C   UNL     1       9.169  -1.080  24.642  0.00  0.00    +0.014 A 
ENDBRANCH   2   8
ENDBRANCH   1   2
BRANCH   1   9
ATOM      9  O   UNL     1      10.647   2.087  23.745  0.00  0.00    -0.286 OA
BRANCH   9  10
ATOM     10  P   UNL     1       9.210   2.243  22.794  0.00  0.00    +0.472 P 
ATOM     11  O   UNL     1       7.924   2.383  21.944  0.00  0.00    -0.228 OA
BRANCH  10  12
ATOM     12  O   UNL     1      10.242   2.186  21.529  0.00  0.00    -0.303 OA
ATOM     13  H   UNL     1      10.351   3.082  21.166  0.00  0.00    +0.222 HD
ENDBRANCH  10  12
BRANCH  10  14
ATOM     14  O   UNL     1       9.329   3.855  23.035  0.00  0.00    -0.303 OA
ATOM     15  H   UNL     1       8.475   4.214  22.716  0.00  0.00    +0.222 HD
ENDBRANCH  10  14
ENDBRANCH   9  10
ENDBRANCH   1   9
TORSDOF 6
ENDMDL
MODEL 6
REMARK VINA RESULT:      -4.6      4.946      6.205
REMARK  Name = 
REMARK  7 active torsions:
REMARK  status: ('A' for Active; 'I' for Inactive)
REMARK    1  A    between atoms: C_1  and  C_2
REMARK    2  A    between atoms: C_3  and  C_4
REMARK    3  A    between atoms: C_4  and  C_5
REMARK    4  A    between atoms: C_5  and  O_6
REMARK    5  A    between atoms: O_6  and  P_7
REMARK    6  A    between atoms: P_7  and  O_8
REMARK    7  A    between atoms: P_7  and  O_9
REMARK                            x       y       z     vdW  Elec       q    Type
REMARK                         _______ _______ _______ _____ _____    ______ ____
ROOT
ATOM      1  C   UNL     1       9.752  -1.099  22.330  0.00  0.00    +0.177 C 
ENDROOT
BRANCH   1   2
ATOM      2  C   UNL     1       8.341  -1.673  22.288  0.00  0.00    +0.073 C 
BRANCH   2   8
ATOM      3  C   UNL     1       6.381  -4.237  21.802  0.00  0.00    +0.066 C 
ATOM      4  C   UNL     1       7.433  -4.060  22.839  0.00  0.00    +0.049 A 
ATOM      5  N   UNL     1       7.644  -5.114  23.716  0.00  0.00    -0.252 NA
ATOM      6  C   UNL     1       8.606  -4.810  24.562  0.00  0.00    +0.156 A 
ATOM      7  S   UNL     1       9.307  -3.264  24.370  0.00  0.00    -0.080 S 
ATOM      8  C   UNL     1       8.259  -2.961  23.042  0.00  0.00    +0.014 A 
ENDBRANCH   2   8
ENDBRANCH   1   2
BRANCH   1   9
ATOM      9  O   UNL     1       9.851   0.044  21.477  0.00  0.00    -0.286 OA
BRANCH   9  10
ATOM     10  P   UNL     1       9.147   1.446  22.207  0.00  0.00    +0.472 P 
ATOM     11  O   UNL     1       8.518   2.700  22.860  0.00  0.00    -0.228 OA
BRANCH  10  12
ATOM     12  O   UNL     1       8.293   1.534  20.817  0.00  0.00    -0.303 OA
ATOM     13  H   UNL     1       7.836   0.687  20.669  0.00  0.00    +0.222 HD
ENDBRANCH  10  12
BRANCH  10  14
ATOM     14  O   UNL     1      10.444   2.276  21.660  0.00  0.00    -0.303 OA
ATOM     15  H   UNL     1      10.921   1.637  21.091  0.00  0.00    +0.222 HD
ENDBRANCH  10  14
ENDBRANCH   9  10
ENDBRANCH   1   9
TORSDOF 6
ENDMDL
MODEL 7
REMARK VINA RESULT:      -4.6      4.897      6.164
REMARK  Name = 
REMARK  7 active torsions:
REMARK  status: ('A' for Active; 'I' for Inactive)
REMARK    1  A    between atoms: C_1  and  C_2
REMARK    2  A    between atoms: C_3  and  C_4
REMARK    3  A    between atoms: C_4  and  C_5
REMARK    4  A    between atoms: C_5  and  O_6
REMARK    5  A    between atoms: O_6  and  P_7
REMARK    6  A    between atoms: P_7  and  O_8
REMARK    7  A    between atoms: P_7  and  O_9
REMARK                            x       y       z     vdW  Elec       q    Type
REMARK                         _______ _______ _______ _____ _____    ______ ____
ROOT
ATOM      1  C   UNL     1       7.434  -3.188  23.325  0.00  0.00    +0.177 C 
ENDROOT
BRANCH   1   2
ATOM      2  C   UNL     1       7.482  -4.697  23.537  0.00  0.00    +0.073 C 
BRANCH   2   8
ATOM      3  C   UNL     1       9.740  -5.131  25.854  0.00  0.00    +0.066 C 
ATOM      4  C   UNL     1       8.260  -5.226  25.975  0.00  0.00    +0.049 A 
ATOM      5  N   UNL     1       7.742  -5.519  27.228  0.00  0.00    -0.252 NA
ATOM      6  C   UNL     1       6.427  -5.559  27.174  0.00  0.00    +0.156 A 
ATOM      7  S   UNL     1       5.735  -5.261  25.641  0.00  0.00    -0.080 S 
ATOM      8  C   UNL     1       7.307  -5.046  24.980  0.00  0.00    +0.014 A 
ENDBRANCH   2   8
ENDBRANCH   1   2
BRANCH   1   9
ATOM      9  O   UNL     1       8.384  -2.793  22.333  0.00  0.00    -0.286 OA
BRANCH   9  10
ATOM     10  P   UNL     1       9.420  -1.533  22.910  0.00  0.00    +0.472 P 
ATOM     11  O   UNL     1      10.347  -0.406  23.426  0.00  0.00    -0.228 OA
BRANCH  10  12
ATOM     12  O   UNL     1      10.055  -1.596  21.405  0.00  0.00    -0.303 OA
ATOM     13  H   UNL     1      10.730  -0.900  21.316  0.00  0.00    +0.222 HD
ENDBRANCH  10  12
BRANCH  10  14
ATOM     14  O   UNL     1      10.360  -2.712  23.539  0.00  0.00    -0.303 OA
ATOM     15  H   UNL     1      10.315  -3.437  22.883  0.00  0.00    +0.222 HD
ENDBRANCH  10  14
ENDBRANCH   9  10
ENDBRANCH   1   9
TORSDOF 6
ENDMDL
MODEL 8
REMARK VINA RESULT:      -4.6      3.817      5.168
REMARK  Name = 
REMARK  7 active torsions:
REMARK  status: ('A' for Active; 'I' for Inactive)
REMARK    1  A    between atoms: C_1  and  C_2
REMARK    2  A    between atoms: C_3  and  C_4
REMARK    3  A    between atoms: C_4  and  C_5
REMARK    4  A    between atoms: C_5  and  O_6
REMARK    5  A    between atoms: O_6  and  P_7
REMARK    6  A    between atoms: P_7  and  O_8
REMARK    7  A    between atoms: P_7  and  O_9
REMARK                            x       y       z     vdW  Elec       q    Type
REMARK                         _______ _______ _______ _____ _____    ______ ____
ROOT
ATOM      1  C   UNL     1       5.671  -5.240  25.672  0.00  0.00    +0.177 C 
ENDROOT
BRANCH   1   2
ATOM      2  C   UNL     1       6.524  -5.343  24.413  0.00  0.00    +0.073 C 
BRANCH   2   8
ATOM      3  C   UNL     1       9.641  -5.127  25.358  0.00  0.00    +0.066 C 
ATOM      4  C   UNL     1       8.799  -4.091  24.699  0.00  0.00    +0.049 A 
ATOM      5  N   UNL     1       9.396  -2.870  24.422  0.00  0.00    -0.252 NA
ATOM      6  C   UNL     1       8.531  -2.069  23.834  0.00  0.00    +0.156 A 
ATOM      7  S   UNL     1       6.968  -2.713  23.587  0.00  0.00    -0.080 S 
ATOM      8  C   UNL     1       7.470  -4.191  24.306  0.00  0.00    +0.014 A 
ENDBRANCH   2   8
ENDBRANCH   1   2
BRANCH   1   9
ATOM      9  O   UNL     1       5.862  -6.390  26.500  0.00  0.00    -0.286 OA
BRANCH   9  10
ATOM     10  P   UNL     1       5.969  -5.958  28.172  0.00  0.00    +0.472 P 
ATOM     11  O   UNL     1       6.065  -5.573  29.668  0.00  0.00    -0.228 OA
BRANCH  10  12
ATOM     12  O   UNL     1       7.570  -6.207  27.961  0.00  0.00    -0.303 OA
ATOM     13  H   UNL     1       7.772  -7.144  28.131  0.00  0.00    +0.222 HD
ENDBRANCH  10  12
BRANCH  10  14
ATOM     14  O   UNL     1       5.600  -7.515  28.509  0.00  0.00    -0.303 OA
ATOM     15  H   UNL     1       4.830  -7.459  29.111  0.00  0.00    +0.222 HD
ENDBRANCH  10  14
ENDBRANCH   9  10
ENDBRANCH   1   9
TORSDOF 6
ENDMDL
MODEL 9
REMARK VINA RESULT:      -4.5      2.632      3.320
REMARK  Name = 
REMARK  7 active torsions:
REMARK  status: ('A' for Active; 'I' for Inactive)
REMARK    1  A    between atoms: C_1  and  C_2
REMARK    2  A    between atoms: C_3  and  C_4
REMARK    3  A    between atoms: C_4  and  C_5
REMARK    4  A    between atoms: C_5  and  O_6
REMARK    5  A    between atoms: O_6  and  P_7
REMARK    6  A    between atoms: P_7  and  O_8
REMARK    7  A    between atoms: P_7  and  O_9
REMARK                            x       y       z     vdW  Elec       q    Type
REMARK                         _______ _______ _______ _____ _____    ______ ____
ROOT
ATOM      1  C   UNL     1       9.751   0.243  24.700  0.00  0.00    +0.177 C 
ENDROOT
BRANCH   1   2
ATOM      2  C   UNL     1      10.319   1.571  24.213  0.00  0.00    +0.073 C 
BRANCH   2   8
ATOM      3  C   UNL     1       8.729   1.471  21.365  0.00  0.00    +0.066 C 
ATOM      4  C   UNL     1       8.551   2.427  22.491  0.00  0.00    +0.049 A 
ATOM      5  N   UNL     1       7.576   3.404  22.347  0.00  0.00    -0.252 NA
ATOM      6  C   UNL     1       7.535   4.161  23.424  0.00  0.00    +0.156 A 
ATOM      7  S   UNL     1       8.649   3.764  24.657  0.00  0.00    -0.080 S 
ATOM      8  C   UNL     1       9.238   2.466  23.698  0.00  0.00    +0.014 A 
ENDBRANCH   2   8
ENDBRANCH   1   2
BRANCH   1   9
ATOM      9  O   UNL     1      10.432  -0.849  24.078  0.00  0.00    -0.286 OA
BRANCH   9  10
ATOM     10  P   UNL     1       9.338  -1.860  23.197  0.00  0.00    +0.472 P 
ATOM     11  O   UNL     1       8.361  -2.765  22.409  0.00  0.00    -0.228 OA
BRANCH  10  12
ATOM     12  O   UNL     1      10.175  -3.082  23.890  0.00  0.00    -0.303 OA
ATOM     13  H   UNL     1      10.081  -3.023  24.857  0.00  0.00    +0.222 HD
ENDBRANCH  10  12
BRANCH  10  14
ATOM     14  O   UNL     1      10.337  -1.677  21.917  0.00  0.00    -0.303 OA
ATOM     15  H   UNL     1      10.401  -2.573  21.526  0.00  0.00    +0.222 HD
ENDBRANCH  10  14
ENDBRANCH   9  10
ENDBRANCH   1   9
TORSDOF 6
ENDMDL
