MODEL 1
REMARK VINA RESULT:      -7.4      0.000      0.000
REMARK  Name = 
REMARK  9 active torsions:
REMARK  status: ('A' for Active; 'I' for Inactive)
REMARK    1  A    between atoms: C_1  and  O_2
REMARK    2  A    between atoms: O_2  and  C_3
REMARK    3  A    between atoms: C_5  and  N_6
REMARK    4  A    between atoms: C_9  and  N_10
REMARK    5  A    between atoms: N_10  and  C_11
REMARK    6  A    between atoms: C_25  and  O_26
REMARK    7  A    between atoms: O_26  and  C_27
REMARK    8  A    between atoms: C_28  and  O_29
REMARK    9  A    between atoms: O_29  and  C_30
REMARK                            x       y       z     vdW  Elec       q    Type
REMARK                         _______ _______ _______ _____ _____    ______ ____
ROOT
ATOM      1  N   UNL     1       6.585  -1.723  23.476  0.00  0.00    -0.283 N 
ATOM      2  H   UNL     1       5.987  -0.964  23.764  0.00  0.00    +0.155 HD
ATOM      3  C   UNL     1       7.656  -1.196  22.766  0.00  0.00    +0.221 A 
ATOM      4  N   UNL     1       8.697  -1.952  22.392  0.00  0.00    -0.223 NA
ATOM      5  C   UNL     1       9.725  -1.319  21.807  0.00  0.00    +0.118 A 
ATOM      6  C   UNL     1       9.746   0.034  21.580  0.00  0.00    +0.063 A 
ATOM      7  C   UNL     1       8.625   0.736  21.968  0.00  0.00    +0.128 A 
ATOM      8  N   UNL     1       7.593   0.130  22.579  0.00  0.00    -0.199 NA
ENDROOT
BRANCH   1  13
ATOM      9  C   UNL     1       4.588  -4.842  23.419  0.00  0.00    +0.167 A 
ATOM     10  C   UNL     1       5.212  -5.633  24.409  0.00  0.00    +0.204 A 
ATOM     11  C   UNL     1       6.326  -5.094  25.092  0.00  0.00    +0.167 A 
ATOM     12  C   UNL     1       6.781  -3.796  24.791  0.00  0.00    +0.073 A 
ATOM     13  C   UNL     1       6.189  -3.018  23.802  0.00  0.00    +0.041 A 
ATOM     14  C   UNL     1       5.077  -3.553  23.146  0.00  0.00    +0.073 A 
BRANCH   9  16
ATOM     15  C   UNL     1       2.215  -5.115  23.393  0.00  0.00    +0.277 C 
ATOM     16  O   UNL     1       3.478  -5.325  22.768  0.00  0.00    -0.491 OA
ENDBRANCH   9  16
BRANCH  10  17
ATOM     17  O   UNL     1       4.838  -6.898  24.778  0.00  0.00    -0.488 OA
ATOM     18  C   UNL     1       3.997  -7.113  25.899  0.00  0.00    +0.277 C 
ENDBRANCH  10  17
BRANCH  11  19
ATOM     19  O   UNL     1       7.100  -5.671  26.072  0.00  0.00    -0.491 OA
ATOM     20  C   UNL     1       8.276  -5.020  26.519  0.00  0.00    +0.277 C 
ENDBRANCH  11  19
ENDBRANCH   1  13
BRANCH   7  21
ATOM     21  N   UNL     1       8.616   2.135  21.767  0.00  0.00    -0.295 N 
ATOM     22  H   UNL     1       9.445   2.397  21.237  0.00  0.00    +0.154 HD
BRANCH  21  23
ATOM     23  C   UNL     1       8.308   3.120  22.737  0.00  0.00    +0.097 A 
ATOM     24  C   UNL     1       7.038   3.669  22.889  0.00  0.00    +0.189 A 
ATOM     25  O   UNL     1       5.921   3.349  22.171  0.00  0.00    -0.451 OA
ATOM     26  C   UNL     1       4.924   4.158  22.818  0.00  0.00    +0.466 C 
ATOM     27  O   UNL     1       5.478   5.081  23.776  0.00  0.00    -0.453 OA
ATOM     28  C   UNL     1       6.778   4.682  23.792  0.00  0.00    +0.168 A 
ATOM     29  C   UNL     1       7.759   5.226  24.591  0.00  0.00    +0.051 A 
ATOM     30  C   UNL     1       9.049   4.714  24.467  0.00  0.00    +0.025 A 
ATOM     31  C   UNL     1       9.318   3.679  23.550  0.00  0.00    +0.066 A 
ATOM     32 CL   UNL     1      10.945   3.091  23.448  0.00  0.00    -0.081 Cl
ENDBRANCH  21  23
ENDBRANCH   7  21
TORSDOF 6
ENDMDL
MODEL 2
REMARK VINA RESULT:      -7.4      0.095      2.350
REMARK  Name = 
REMARK  9 active torsions:
REMARK  status: ('A' for Active; 'I' for Inactive)
REMARK    1  A    between atoms: C_1  and  O_2
REMARK    2  A    between atoms: O_2  and  C_3
REMARK    3  A    between atoms: C_5  and  N_6
REMARK    4  A    between atoms: C_9  and  N_10
REMARK    5  A    between atoms: N_10  and  C_11
REMARK    6  A    between atoms: C_25  and  O_26
REMARK    7  A    between atoms: O_26  and  C_27
REMARK    8  A    between atoms: C_28  and  O_29
REMARK    9  A    between atoms: O_29  and  C_30
REMARK                            x       y       z     vdW  Elec       q    Type
REMARK                         _______ _______ _______ _____ _____    ______ ____
ROOT
ATOM      1  N   UNL     1       6.494  -1.648  23.472  0.00  0.00    -0.283 N 
ATOM      2  H   UNL     1       5.923  -0.872  23.769  0.00  0.00    +0.155 HD
ATOM      3  C   UNL     1       7.577  -1.151  22.758  0.00  0.00    +0.221 A 
ATOM      4  N   UNL     1       8.590  -1.938  22.372  0.00  0.00    -0.223 NA
ATOM      5  C   UNL     1       9.634  -1.334  21.783  0.00  0.00    +0.118 A 
ATOM      6  C   UNL     1       9.697   0.020  21.565  0.00  0.00    +0.063 A 
ATOM      7  C   UNL     1       8.602   0.754  21.966  0.00  0.00    +0.128 A 
ATOM      8  N   UNL     1       7.555   0.178  22.580  0.00  0.00    -0.199 NA
ENDROOT
BRANCH   1  13
ATOM      9  C   UNL     1       6.422  -4.954  25.142  0.00  0.00    +0.167 A 
ATOM     10  C   UNL     1       5.335  -5.600  24.513  0.00  0.00    +0.204 A 
ATOM     11  C   UNL     1       4.621  -4.893  23.518  0.00  0.00    +0.167 A 
ATOM     12  C   UNL     1       5.006  -3.585  23.165  0.00  0.00    +0.073 A 
ATOM     13  C   UNL     1       6.059  -2.932  23.793  0.00  0.00    +0.041 A 
ATOM     14  C   UNL     1       6.770  -3.646  24.763  0.00  0.00    +0.073 A 
BRANCH   9  16
ATOM     15  C   UNL     1       8.285  -4.957  26.637  0.00  0.00    +0.277 C 
ATOM     16  O   UNL     1       7.159  -5.632  26.083  0.00  0.00    -0.491 OA
ENDBRANCH   9  16
BRANCH  10  17
ATOM     17  O   UNL     1       4.893  -6.868  24.781  0.00  0.00    -0.488 OA
ATOM     18  C   UNL     1       4.022  -7.123  25.871  0.00  0.00    +0.277 C 
ENDBRANCH  10  17
BRANCH  11  19
ATOM     19  O   UNL     1       3.530  -5.298  22.786  0.00  0.00    -0.491 OA
ATOM     20  C   UNL     1       2.228  -5.181  23.332  0.00  0.00    +0.277 C 
ENDBRANCH  11  19
ENDBRANCH   1  13
BRANCH   7  21
ATOM     21  N   UNL     1       8.636   2.154  21.773  0.00  0.00    -0.295 N 
ATOM     22  H   UNL     1       9.480   2.395  21.257  0.00  0.00    +0.154 HD
BRANCH  21  23
ATOM     23  C   UNL     1       8.342   3.142  22.744  0.00  0.00    +0.097 A 
ATOM     24  C   UNL     1       7.082   3.717  22.890  0.00  0.00    +0.189 A 
ATOM     25  O   UNL     1       5.964   3.422  22.163  0.00  0.00    -0.451 OA
ATOM     26  C   UNL     1       4.979   4.248  22.806  0.00  0.00    +0.466 C 
ATOM     27  O   UNL     1       5.545   5.156  23.771  0.00  0.00    -0.453 OA
ATOM     28  C   UNL     1       6.837   4.731  23.795  0.00  0.00    +0.168 A 
ATOM     29  C   UNL     1       7.824   5.253  24.602  0.00  0.00    +0.051 A 
ATOM     30  C   UNL     1       9.104   4.714  24.485  0.00  0.00    +0.025 A 
ATOM     31  C   UNL     1       9.358   3.678  23.566  0.00  0.00    +0.066 A 
ATOM     32 CL   UNL     1      10.973   3.056  23.473  0.00  0.00    -0.081 Cl
ENDBRANCH  21  23
ENDBRANCH   7  21
TORSDOF 6
ENDMDL
MODEL 3
REMARK VINA RESULT:      -7.3      2.611      3.235
REMARK  Name = 
REMARK  9 active torsions:
REMARK  status: ('A' for Active; 'I' for Inactive)
REMARK    1  A    between atoms: C_1  and  O_2
REMARK    2  A    between atoms: O_2  and  C_3
REMARK    3  A    between atoms: C_5  and  N_6
REMARK    4  A    between atoms: C_9  and  N_10
REMARK    5  A    between atoms: N_10  and  C_11
REMARK    6  A    between atoms: C_25  and  O_26
REMARK    7  A    between atoms: O_26  and  C_27
REMARK    8  A    between atoms: C_28  and  O_29
REMARK    9  A    between atoms: O_29  and  C_30
REMARK                            x       y       z     vdW  Elec       q    Type
REMARK                         _______ _______ _______ _____ _____    ______ ____
ROOT
ATOM      1  N   UNL     1       7.109  -0.805  23.535  0.00  0.00    -0.283 N 
ATOM      2  H   UNL     1       6.416  -0.205  23.118  0.00  0.00    +0.155 HD
ATOM      3  C   UNL     1       8.278  -0.075  23.712  0.00  0.00    +0.221 A 
ATOM      4  N   UNL     1       9.323  -0.567  24.389  0.00  0.00    -0.223 NA
ATOM      5  C   UNL     1      10.358   0.264  24.591  0.00  0.00    +0.118 A 
ATOM      6  C   UNL     1      10.384   1.559  24.138  0.00  0.00    +0.063 A 
ATOM      7  C   UNL     1       9.282   1.979  23.426  0.00  0.00    +0.128 A 
ATOM      8  N   UNL     1       8.223   1.176  23.231  0.00  0.00    -0.199 NA
ENDROOT
BRANCH   1  13
ATOM      9  C   UNL     1       5.854  -4.221  22.845  0.00  0.00    +0.167 A 
ATOM     10  C   UNL     1       5.928  -4.845  24.110  0.00  0.00    +0.204 A 
ATOM     11  C   UNL     1       6.417  -4.090  25.201  0.00  0.00    +0.167 A 
ATOM     12  C   UNL     1       6.804  -2.749  25.016  0.00  0.00    +0.073 A 
ATOM     13  C   UNL     1       6.757  -2.133  23.771  0.00  0.00    +0.041 A 
ATOM     14  C   UNL     1       6.255  -2.881  22.703  0.00  0.00    +0.073 A 
BRANCH   9  16
ATOM     15  C   UNL     1       6.262  -5.682  21.000  0.00  0.00    +0.277 C 
ATOM     16  O   UNL     1       5.343  -4.919  21.776  0.00  0.00    -0.491 OA
ENDBRANCH   9  16
BRANCH  10  17
ATOM     17  O   UNL     1       5.568  -6.137  24.389  0.00  0.00    -0.488 OA
ATOM     18  C   UNL     1       4.236  -6.461  24.751  0.00  0.00    +0.277 C 
ENDBRANCH  10  17
BRANCH  11  19
ATOM     19  O   UNL     1       6.597  -4.478  26.508  0.00  0.00    -0.491 OA
ATOM     20  C   UNL     1       7.733  -5.241  26.871  0.00  0.00    +0.277 C 
ENDBRANCH  11  19
ENDBRANCH   1  13
BRANCH   7  21
ATOM     21  N   UNL     1       9.264   3.312  22.957  0.00  0.00    -0.295 N 
ATOM     22  H   UNL     1       9.706   3.345  22.041  0.00  0.00    +0.154 HD
BRANCH  21  23
ATOM     23  C   UNL     1       9.579   4.470  23.710  0.00  0.00    +0.097 A 
ATOM     24  C   UNL     1      10.850   5.036  23.742  0.00  0.00    +0.189 A 
ATOM     25  O   UNL     1      11.953   4.598  23.066  0.00  0.00    -0.451 OA
ATOM     26  C   UNL     1      12.919   5.604  23.416  0.00  0.00    +0.466 C 
ATOM     27  O   UNL     1      12.449   6.513  24.430  0.00  0.00    -0.453 OA
ATOM     28  C   UNL     1      11.151   6.122  24.540  0.00  0.00    +0.168 A 
ATOM     29  C   UNL     1      10.220   6.708  25.370  0.00  0.00    +0.051 A 
ATOM     30  C   UNL     1       8.935   6.169  25.378  0.00  0.00    +0.025 A 
ATOM     31  C   UNL     1       8.622   5.063  24.563  0.00  0.00    +0.066 A 
ATOM     32 CL   UNL     1       7.004   4.445  24.624  0.00  0.00    -0.081 Cl
ENDBRANCH  21  23
ENDBRANCH   7  21
TORSDOF 6
ENDMDL
MODEL 4
REMARK VINA RESULT:      -7.2      2.568      3.735
REMARK  Name = 
REMARK  9 active torsions:
REMARK  status: ('A' for Active; 'I' for Inactive)
REMARK    1  A    between atoms: C_1  and  O_2
REMARK    2  A    between atoms: O_2  and  C_3
REMARK    3  A    between atoms: C_5  and  N_6
REMARK    4  A    between atoms: C_9  and  N_10
REMARK    5  A    between atoms: N_10  and  C_11
REMARK    6  A    between atoms: C_25  and  O_26
REMARK    7  A    between atoms: O_26  and  C_27
REMARK    8  A    between atoms: C_28  and  O_29
REMARK    9  A    between atoms: O_29  and  C_30
REMARK                            x       y       z     vdW  Elec       q    Type
REMARK                         _______ _______ _______ _____ _____    ______ ____
ROOT
ATOM      1  N   UNL     1       6.919  -0.770  23.449  0.00  0.00    -0.283 N 
ATOM      2  H   UNL     1       6.231  -0.148  23.054  0.00  0.00    +0.155 HD
ATOM      3  C   UNL     1       8.105  -0.067  23.617  0.00  0.00    +0.221 A 
ATOM      4  N   UNL     1       9.152  -0.593  24.268  0.00  0.00    -0.223 NA
ATOM      5  C   UNL     1      10.207   0.212  24.466  0.00  0.00    +0.118 A 
ATOM      6  C   UNL     1      10.253   1.514  24.034  0.00  0.00    +0.063 A 
ATOM      7  C   UNL     1       9.148   1.969  23.348  0.00  0.00    +0.128 A 
ATOM      8  N   UNL     1       8.069   1.192  23.159  0.00  0.00    -0.199 NA
ENDROOT
BRANCH   1  13
ATOM      9  C   UNL     1       6.342  -3.938  25.279  0.00  0.00    +0.167 A 
ATOM     10  C   UNL     1       5.880  -4.807  24.265  0.00  0.00    +0.204 A 
ATOM     11  C   UNL     1       5.761  -4.299  22.951  0.00  0.00    +0.167 A 
ATOM     12  C   UNL     1       6.110  -2.963  22.674  0.00  0.00    +0.073 A 
ATOM     13  C   UNL     1       6.543  -2.093  23.668  0.00  0.00    +0.041 A 
ATOM     14  C   UNL     1       6.675  -2.610  24.961  0.00  0.00    +0.073 A 
BRANCH   9  16
ATOM     15  C   UNL     1       7.765  -5.002  26.874  0.00  0.00    +0.277 C 
ATOM     16  O   UNL     1       6.506  -4.417  26.557  0.00  0.00    -0.491 OA
ENDBRANCH   9  16
BRANCH  10  17
ATOM     17  O   UNL     1       5.526  -6.120  24.434  0.00  0.00    -0.488 OA
ATOM     18  C   UNL     1       4.178  -6.487  24.676  0.00  0.00    +0.277 C 
ENDBRANCH  10  17
BRANCH  11  19
ATOM     19  O   UNL     1       5.324  -4.938  21.815  0.00  0.00    -0.491 OA
ATOM     20  C   UNL     1       6.238  -5.673  21.020  0.00  0.00    +0.277 C 
ENDBRANCH  11  19
ENDBRANCH   1  13
BRANCH   7  21
ATOM     21  N   UNL     1       9.150   3.311  22.903  0.00  0.00    -0.295 N 
ATOM     22  H   UNL     1       9.589   3.352  21.985  0.00  0.00    +0.154 HD
BRANCH  21  23
ATOM     23  C   UNL     1       9.488   4.450  23.674  0.00  0.00    +0.097 A 
ATOM     24  C   UNL     1      10.773   4.981  23.727  0.00  0.00    +0.189 A 
ATOM     25  O   UNL     1      11.872   4.522  23.058  0.00  0.00    -0.451 OA
ATOM     26  C   UNL     1      12.861   5.496  23.431  0.00  0.00    +0.466 C 
ATOM     27  O   UNL     1      12.405   6.405  24.452  0.00  0.00    -0.453 OA
ATOM     28  C   UNL     1      11.095   6.048  24.543  0.00  0.00    +0.168 A 
ATOM     29  C   UNL     1      10.171   6.649  25.369  0.00  0.00    +0.051 A 
ATOM     30  C   UNL     1       8.871   6.145  25.356  0.00  0.00    +0.025 A 
ATOM     31  C   UNL     1       8.538   5.059  24.524  0.00  0.00    +0.066 A 
ATOM     32 CL   UNL     1       6.903   4.484  24.559  0.00  0.00    -0.081 Cl
ENDBRANCH  21  23
ENDBRANCH   7  21
TORSDOF 6
ENDMDL
MODEL 5
REMARK VINA RESULT:      -7.1      1.816      2.214
REMARK  Name = 
REMARK  9 active torsions:
REMARK  status: ('A' for Active; 'I' for Inactive)
REMARK    1  A    between atoms: C_1  and  O_2
REMARK    2  A    between atoms: O_2  and  C_3
REMARK    3  A    between atoms: C_5  and  N_6
REMARK    4  A    between atoms: C_9  and  N_10
REMARK    5  A    between atoms: N_10  and  C_11
REMARK    6  A    between atoms: C_25  and  O_26
REMARK    7  A    between atoms: O_26  and  C_27
REMARK    8  A    between atoms: C_28  and  O_29
REMARK    9  A    between atoms: O_29  and  C_30
REMARK                            x       y       z     vdW  Elec       q    Type
REMARK                         _______ _______ _______ _____ _____    ______ ____
ROOT
ATOM      1  N   UNL     1       7.294  -0.724  23.464  0.00  0.00    -0.283 N 
ATOM      2  H   UNL     1       6.632  -0.096  23.037  0.00  0.00    +0.155 HD
ATOM      3  C   UNL     1       8.489  -0.043  23.655  0.00  0.00    +0.221 A 
ATOM      4  N   UNL     1       9.504  -0.578  24.347  0.00  0.00    -0.223 NA
ATOM      5  C   UNL     1      10.570   0.209  24.562  0.00  0.00    +0.118 A 
ATOM      6  C   UNL     1      10.657   1.501  24.109  0.00  0.00    +0.063 A 
ATOM      7  C   UNL     1       9.582   1.966  23.382  0.00  0.00    +0.128 A 
ATOM      8  N   UNL     1       8.493   1.208  23.173  0.00  0.00    -0.199 NA
ENDROOT
BRANCH   1  13
ATOM      9  C   UNL     1       5.902  -4.084  22.759  0.00  0.00    +0.167 A 
ATOM     10  C   UNL     1       5.937  -4.710  24.025  0.00  0.00    +0.204 A 
ATOM     11  C   UNL     1       6.447  -3.977  25.121  0.00  0.00    +0.167 A 
ATOM     12  C   UNL     1       6.892  -2.653  24.941  0.00  0.00    +0.073 A 
ATOM     13  C   UNL     1       6.884  -2.036  23.696  0.00  0.00    +0.041 A 
ATOM     14  C   UNL     1       6.361  -2.763  22.622  0.00  0.00    +0.073 A 
BRANCH   9  16
ATOM     15  C   UNL     1       6.249  -5.623  20.965  0.00  0.00    +0.277 C 
ATOM     16  O   UNL     1       5.374  -4.760  21.685  0.00  0.00    -0.491 OA
ENDBRANCH   9  16
BRANCH  10  17
ATOM     17  O   UNL     1       5.520  -5.986  24.300  0.00  0.00    -0.488 OA
ATOM     18  C   UNL     1       4.172  -6.253  24.650  0.00  0.00    +0.277 C 
ENDBRANCH  10  17
BRANCH  11  19
ATOM     19  O   UNL     1       6.596  -4.371  26.430  0.00  0.00    -0.491 OA
ATOM     20  C   UNL     1       7.760  -5.072  26.830  0.00  0.00    +0.277 C 
ENDBRANCH  11  19
ENDBRANCH   1  13
BRANCH   7  21
ATOM     21  N   UNL     1       9.626   3.299  22.913  0.00  0.00    -0.295 N 
ATOM     22  H   UNL     1      10.339   3.370  22.189  0.00  0.00    +0.154 HD
BRANCH  21  23
ATOM     23  C   UNL     1       9.599   4.470  23.709  0.00  0.00    +0.097 A 
ATOM     24  C   UNL     1       8.438   4.970  24.290  0.00  0.00    +0.189 A 
ATOM     25  O   UNL     1       7.187   4.427  24.208  0.00  0.00    -0.451 OA
ATOM     26  C   UNL     1       6.435   5.312  25.055  0.00  0.00    +0.466 C 
ATOM     27  O   UNL     1       7.187   6.467  25.477  0.00  0.00    -0.453 OA
ATOM     28  C   UNL     1       8.422   6.154  25.001  0.00  0.00    +0.168 A 
ATOM     29  C   UNL     1       9.550   6.927  25.170  0.00  0.00    +0.051 A 
ATOM     30  C   UNL     1      10.736   6.471  24.597  0.00  0.00    +0.025 A 
ATOM     31  C   UNL     1      10.757   5.262  23.874  0.00  0.00    +0.066 A 
ATOM     32 CL   UNL     1      12.266   4.755  23.189  0.00  0.00    -0.081 Cl
ENDBRANCH  21  23
ENDBRANCH   7  21
TORSDOF 6
ENDMDL
MODEL 6
REMARK VINA RESULT:      -7.1      3.169      9.461
REMARK  Name = 
REMARK  9 active torsions:
REMARK  status: ('A' for Active; 'I' for Inactive)
REMARK    1  A    between atoms: C_1  and  O_2
REMARK    2  A    between atoms: O_2  and  C_3
REMARK    3  A    between atoms: C_5  and  N_6
REMARK    4  A    between atoms: C_9  and  N_10
REMARK    5  A    between atoms: N_10  and  C_11
REMARK    6  A    between atoms: C_25  and  O_26
REMARK    7  A    between atoms: O_26  and  C_27
REMARK    8  A    between atoms: C_28  and  O_29
REMARK    9  A    between atoms: O_29  and  C_30
REMARK                            x       y       z     vdW  Elec       q    Type
REMARK                         _______ _______ _______ _____ _____    ______ ____
ROOT
ATOM      1  N   UNL     1       9.545   0.764  23.608  0.00  0.00    -0.283 N 
ATOM      2  H   UNL     1       9.769   0.264  22.761  0.00  0.00    +0.155 HD
ATOM      3  C   UNL     1       9.161  -0.156  24.575  0.00  0.00    +0.221 A 
ATOM      4  N   UNL     1       8.955   0.202  25.849  0.00  0.00    -0.223 NA
ATOM      5  C   UNL     1       8.693  -0.785  26.720  0.00  0.00    +0.118 A 
ATOM      6  C   UNL     1       8.625  -2.108  26.362  0.00  0.00    +0.063 A 
ATOM      7  C   UNL     1       8.820  -2.390  25.027  0.00  0.00    +0.128 A 
ATOM      8  N   UNL     1       9.109  -1.424  24.139  0.00  0.00    -0.199 NA
ENDROOT
BRANCH   1  13
ATOM      9  C   UNL     1      11.086   4.132  23.645  0.00  0.00    +0.167 A 
ATOM     10  C   UNL     1       9.965   4.991  23.603  0.00  0.00    +0.204 A 
ATOM     11  C   UNL     1       8.677   4.409  23.554  0.00  0.00    +0.167 A 
ATOM     12  C   UNL     1       8.533   3.008  23.562  0.00  0.00    +0.073 A 
ATOM     13  C   UNL     1       9.629   2.154  23.580  0.00  0.00    +0.041 A 
ATOM     14  C   UNL     1      10.897   2.739  23.647  0.00  0.00    +0.073 A 
BRANCH   9  16
ATOM     15  C   UNL     1      12.899   5.233  22.548  0.00  0.00    +0.277 C 
ATOM     16  O   UNL     1      12.347   4.671  23.734  0.00  0.00    -0.491 OA
ENDBRANCH   9  16
BRANCH  10  17
ATOM     17  O   UNL     1      10.004   6.360  23.601  0.00  0.00    -0.488 OA
ATOM     18  C   UNL     1       9.945   7.093  24.813  0.00  0.00    +0.277 C 
ENDBRANCH  10  17
BRANCH  11  19
ATOM     19  O   UNL     1       7.452   5.029  23.491  0.00  0.00    -0.491 OA
ATOM     20  C   UNL     1       6.841   5.265  22.235  0.00  0.00    +0.277 C 
ENDBRANCH  11  19
ENDBRANCH   1  13
BRANCH   7  21
ATOM     21  N   UNL     1       8.775  -3.743  24.621  0.00  0.00    -0.295 N 
ATOM     22  H   UNL     1       9.400  -3.870  23.828  0.00  0.00    +0.154 HD
BRANCH  21  23
ATOM     23  C   UNL     1       7.612  -4.538  24.477  0.00  0.00    +0.097 A 
ATOM     24  C   UNL     1       6.857  -4.579  23.309  0.00  0.00    +0.189 A 
ATOM     25  O   UNL     1       7.113  -3.903  22.150  0.00  0.00    -0.451 OA
ATOM     26  C   UNL     1       6.067  -4.396  21.295  0.00  0.00    +0.466 C 
ATOM     27  O   UNL     1       5.099  -5.204  21.992  0.00  0.00    -0.453 OA
ATOM     28  C   UNL     1       5.685  -5.305  23.216  0.00  0.00    +0.168 A 
ATOM     29  C   UNL     1       5.177  -6.022  24.276  0.00  0.00    +0.051 A 
ATOM     30  C   UNL     1       5.894  -6.003  25.471  0.00  0.00    +0.025 A 
ATOM     31  C   UNL     1       7.091  -5.267  25.569  0.00  0.00    +0.066 A 
ATOM     32 CL   UNL     1       7.932  -5.288  27.085  0.00  0.00    -0.081 Cl
ENDBRANCH  21  23
ENDBRANCH   7  21
TORSDOF 6
ENDMDL
MODEL 7
REMARK VINA RESULT:      -6.9      2.096      2.869
REMARK  Name = 
REMARK  9 active torsions:
REMARK  status: ('A' for Active; 'I' for Inactive)
REMARK    1  A    between atoms: C_1  and  O_2
REMARK    2  A    between atoms: O_2  and  C_3
REMARK    3  A    between atoms: C_5  and  N_6
REMARK    4  A    between atoms: C_9  and  N_10
REMARK    5  A    between atoms: N_10  and  C_11
REMARK    6  A    between atoms: C_25  and  O_26
REMARK    7  A    between atoms: O_26  and  C_27
REMARK    8  A    between atoms: C_28  and  O_29
REMARK    9  A    between atoms: O_29  and  C_30
REMARK                            x       y       z     vdW  Elec       q    Type
REMARK                         _______ _______ _______ _____ _____    ______ ____
ROOT
ATOM      1  N   UNL     1       7.007  -0.447  23.145  0.00  0.00    -0.283 N 
ATOM      2  H   UNL     1       6.551   0.283  22.621  0.00  0.00    +0.155 HD
ATOM      3  C   UNL     1       8.266   0.002  23.524  0.00  0.00    +0.221 A 
ATOM      4  N   UNL     1       9.041  -0.696  24.365  0.00  0.00    -0.223 NA
ATOM      5  C   UNL     1      10.190  -0.118  24.748  0.00  0.00    +0.118 A 
ATOM      6  C   UNL     1      10.590   1.122  24.319  0.00  0.00    +0.063 A 
ATOM      7  C   UNL     1       9.750   1.762  23.433  0.00  0.00    +0.128 A 
ATOM      8  N   UNL     1       8.582   1.217  23.053  0.00  0.00    -0.199 NA
ENDROOT
BRANCH   1  13
ATOM      9  C   UNL     1       4.985  -3.078  24.790  0.00  0.00    +0.167 A 
ATOM     10  C   UNL     1       4.942  -4.098  23.813  0.00  0.00    +0.204 A 
ATOM     11  C   UNL     1       5.604  -3.876  22.584  0.00  0.00    +0.167 A 
ATOM     12  C   UNL     1       6.295  -2.670  22.360  0.00  0.00    +0.073 A 
ATOM     13  C   UNL     1       6.325  -1.651  23.305  0.00  0.00    +0.041 A 
ATOM     14  C   UNL     1       5.683  -1.887  24.524  0.00  0.00    +0.073 A 
BRANCH   9  16
ATOM     15  C   UNL     1       5.212  -3.755  27.069  0.00  0.00    +0.277 C 
ATOM     16  O   UNL     1       4.385  -3.284  26.009  0.00  0.00    -0.491 OA
ENDBRANCH   9  16
BRANCH  10  17
ATOM     17  O   UNL     1       4.305  -5.304  23.942  0.00  0.00    -0.488 OA
ATOM     18  C   UNL     1       4.959  -6.415  24.533  0.00  0.00    +0.277 C 
ENDBRANCH  10  17
BRANCH  11  19
ATOM     19  O   UNL     1       5.688  -4.701  21.487  0.00  0.00    -0.491 OA
ATOM     20  C   UNL     1       6.767  -5.611  21.366  0.00  0.00    +0.277 C 
ENDBRANCH  11  19
ENDBRANCH   1  13
BRANCH   7  21
ATOM     21  N   UNL     1      10.119   3.049  22.980  0.00  0.00    -0.295 N 
ATOM     22  H   UNL     1      10.993   2.978  22.463  0.00  0.00    +0.154 HD
BRANCH  21  23
ATOM     23  C   UNL     1      10.076   4.247  23.735  0.00  0.00    +0.097 A 
ATOM     24  C   UNL     1       8.936   4.691  24.398  0.00  0.00    +0.189 A 
ATOM     25  O   UNL     1       7.725   4.061  24.445  0.00  0.00    -0.451 OA
ATOM     26  C   UNL     1       6.987   4.926  25.324  0.00  0.00    +0.466 C 
ATOM     27  O   UNL     1       7.687   6.146  25.637  0.00  0.00    -0.453 OA
ATOM     28  C   UNL     1       8.897   5.899  25.066  0.00  0.00    +0.168 A 
ATOM     29  C   UNL     1       9.977   6.753  25.108  0.00  0.00    +0.051 A 
ATOM     30  C   UNL     1      11.139   6.355  24.449  0.00  0.00    +0.025 A 
ATOM     31  C   UNL     1      11.184   5.122  23.770  0.00  0.00    +0.066 A 
ATOM     32 CL   UNL     1      12.662   4.691  22.973  0.00  0.00    -0.081 Cl
ENDBRANCH  21  23
ENDBRANCH   7  21
TORSDOF 6
ENDMDL
MODEL 8
REMARK VINA RESULT:      -6.9      3.154      9.251
REMARK  Name = 
REMARK  9 active torsions:
REMARK  status: ('A' for Active; 'I' for Inactive)
REMARK    1  A    between atoms: C_1  and  O_2
REMARK    2  A    between atoms: O_2  and  C_3
REMARK    3  A    between atoms: C_5  and  N_6
REMARK    4  A    between atoms: C_9  and  N_10
REMARK    5  A    between atoms: N_10  and  C_11
REMARK    6  A    between atoms: C_25  and  O_26
REMARK    7  A    between atoms: O_26  and  C_27
REMARK    8  A    between atoms: C_28  and  O_29
REMARK    9  A    between atoms: O_29  and  C_30
REMARK                            x       y       z     vdW  Elec       q    Type
REMARK                         _______ _______ _______ _____ _____    ______ ____
ROOT
ATOM      1  N   UNL     1       9.611   0.742  23.809  0.00  0.00    -0.283 N 
ATOM      2  H   UNL     1       9.924   0.243  22.991  0.00  0.00    +0.155 HD
ATOM      3  C   UNL     1       9.115  -0.178  24.724  0.00  0.00    +0.221 A 
ATOM      4  N   UNL     1       8.771   0.178  25.969  0.00  0.00    -0.223 NA
ATOM      5  C   UNL     1       8.406  -0.809  26.801  0.00  0.00    +0.118 A 
ATOM      6  C   UNL     1       8.369  -2.131  26.433  0.00  0.00    +0.063 A 
ATOM      7  C   UNL     1       8.710  -2.410  25.127  0.00  0.00    +0.128 A 
ATOM      8  N   UNL     1       9.103  -1.443  24.281  0.00  0.00    -0.199 NA
ENDROOT
BRANCH   1  13
ATOM      9  C   UNL     1       8.517   4.281  23.776  0.00  0.00    +0.167 A 
ATOM     10  C   UNL     1       9.739   4.986  23.703  0.00  0.00    +0.204 A 
ATOM     11  C   UNL     1      10.940   4.243  23.672  0.00  0.00    +0.167 A 
ATOM     12  C   UNL     1      10.903   2.835  23.701  0.00  0.00    +0.073 A 
ATOM     13  C   UNL     1       9.708   2.132  23.796  0.00  0.00    +0.041 A 
ATOM     14  C   UNL     1       8.524   2.876  23.807  0.00  0.00    +0.073 A 
BRANCH   9  16
ATOM     15  C   UNL     1       6.722   5.240  25.026  0.00  0.00    +0.277 C 
ATOM     16  O   UNL     1       7.332   4.977  23.766  0.00  0.00    -0.491 OA
ENDBRANCH   9  16
BRANCH  10  17
ATOM     17  O   UNL     1       9.876   6.349  23.662  0.00  0.00    -0.488 OA
ATOM     18  C   UNL     1       9.988   7.108  24.854  0.00  0.00    +0.277 C 
ENDBRANCH  10  17
BRANCH  11  19
ATOM     19  O   UNL     1      12.237   4.699  23.620  0.00  0.00    -0.491 OA
ATOM     20  C   UNL     1      12.750   5.236  22.414  0.00  0.00    +0.277 C 
ENDBRANCH  11  19
ENDBRANCH   1  13
BRANCH   7  21
ATOM     21  N   UNL     1       8.701  -3.762  24.714  0.00  0.00    -0.295 N 
ATOM     22  H   UNL     1       9.353  -3.874  23.940  0.00  0.00    +0.154 HD
BRANCH  21  23
ATOM     23  C   UNL     1       7.555  -4.574  24.528  0.00  0.00    +0.097 A 
ATOM     24  C   UNL     1       6.849  -4.634  23.330  0.00  0.00    +0.189 A 
ATOM     25  O   UNL     1       7.142  -3.962  22.178  0.00  0.00    -0.451 OA
ATOM     26  C   UNL     1       6.140  -4.476  21.285  0.00  0.00    +0.466 C 
ATOM     27  O   UNL     1       5.156  -5.293  21.948  0.00  0.00    -0.453 OA
ATOM     28  C   UNL     1       5.693  -5.378  23.194  0.00  0.00    +0.168 A 
ATOM     29  C   UNL     1       5.152  -6.096  24.238  0.00  0.00    +0.051 A 
ATOM     30  C   UNL     1       5.820  -6.059  25.461  0.00  0.00    +0.025 A 
ATOM     31  C   UNL     1       7.002  -5.305  25.602  0.00  0.00    +0.066 A 
ATOM     32 CL   UNL     1       7.780  -5.303  27.151  0.00  0.00    -0.081 Cl
ENDBRANCH  21  23
ENDBRANCH   7  21
TORSDOF 6
ENDMDL
MODEL 9
REMARK VINA RESULT:      -6.9      1.996      2.842
REMARK  Name = 
REMARK  9 active torsions:
REMARK  status: ('A' for Active; 'I' for Inactive)
REMARK    1  A    between atoms: C_1  and  O_2
REMARK    2  A    between atoms: O_2  and  C_3
REMARK    3  A    between atoms: C_5  and  N_6
REMARK    4  A    between atoms: C_9  and  N_10
REMARK    5  A    between atoms: N_10  and  C_11
REMARK    6  A    between atoms: C_25  and  O_26
REMARK    7  A    between atoms: O_26  and  C_27
REMARK    8  A    between atoms: C_28  and  O_29
REMARK    9  A    between atoms: O_29  and  C_30
REMARK                            x       y       z     vdW  Elec       q    Type
REMARK                         _______ _______ _______ _____ _____    ______ ____
ROOT
ATOM      1  N   UNL     1       9.053  -1.516  24.926  0.00  0.00    -0.283 N 
ATOM      2  H   UNL     1       9.511  -1.140  25.742  0.00  0.00    +0.155 HD
ATOM      3  C   UNL     1       9.246  -0.637  23.868  0.00  0.00    +0.221 A 
ATOM      4  N   UNL     1       8.884  -0.948  22.616  0.00  0.00    -0.223 NA
ATOM      5  C   UNL     1       9.215  -0.071  21.655  0.00  0.00    +0.118 A 
ATOM      6  C   UNL     1       9.887   1.099  21.902  0.00  0.00    +0.063 A 
ATOM      7  C   UNL     1      10.198   1.358  23.220  0.00  0.00    +0.128 A 
ATOM      8  N   UNL     1       9.901   0.486  24.197  0.00  0.00    -0.199 NA
ENDROOT
BRANCH   1  13
ATOM      9  C   UNL     1       7.062  -4.179  26.558  0.00  0.00    +0.167 A 
ATOM     10  C   UNL     1       6.952  -5.155  25.543  0.00  0.00    +0.204 A 
ATOM     11  C   UNL     1       7.558  -4.893  24.293  0.00  0.00    +0.167 A 
ATOM     12  C   UNL     1       8.261  -3.691  24.086  0.00  0.00    +0.073 A 
ATOM     13  C   UNL     1       8.356  -2.713  25.070  0.00  0.00    +0.041 A 
ATOM     14  C   UNL     1       7.769  -2.990  26.308  0.00  0.00    +0.073 A 
BRANCH   9  16
ATOM     15  C   UNL     1       5.185  -3.978  28.021  0.00  0.00    +0.277 C 
ATOM     16  O   UNL     1       6.518  -4.426  27.796  0.00  0.00    -0.491 OA
ENDBRANCH   9  16
BRANCH  10  17
ATOM     17  O   UNL     1       6.299  -6.355  25.652  0.00  0.00    -0.488 OA
ATOM     18  C   UNL     1       4.927  -6.472  25.314  0.00  0.00    +0.277 C 
ENDBRANCH  10  17
BRANCH  11  19
ATOM     19  O   UNL     1       7.572  -5.672  23.160  0.00  0.00    -0.491 OA
ATOM     20  C   UNL     1       6.994  -5.188  21.961  0.00  0.00    +0.277 C 
ENDBRANCH  11  19
ENDBRANCH   1  13
BRANCH   7  21
ATOM     21  N   UNL     1      10.906   2.546  23.513  0.00  0.00    -0.295 N 
ATOM     22  H   UNL     1      11.606   2.346  24.224  0.00  0.00    +0.154 HD
BRANCH  21  23
ATOM     23  C   UNL     1      10.343   3.831  23.709  0.00  0.00    +0.097 A 
ATOM     24  C   UNL     1       8.987   4.042  23.942  0.00  0.00    +0.189 A 
ATOM     25  O   UNL     1       8.018   3.084  24.035  0.00  0.00    -0.451 OA
ATOM     26  C   UNL     1       6.864   3.876  24.361  0.00  0.00    +0.466 C 
ATOM     27  O   UNL     1       7.107   5.294  24.275  0.00  0.00    -0.453 OA
ATOM     28  C   UNL     1       8.450   5.309  24.058  0.00  0.00    +0.168 A 
ATOM     29  C   UNL     1       9.214   6.448  23.934  0.00  0.00    +0.051 A 
ATOM     30  C   UNL     1      10.577   6.287  23.691  0.00  0.00    +0.025 A 
ATOM     31  C   UNL     1      11.130   4.996  23.576  0.00  0.00    +0.066 A 
ATOM     32 CL   UNL     1      12.832   4.869  23.272  0.00  0.00    -0.081 Cl
ENDBRANCH  21  23
ENDBRANCH   7  21
TORSDOF 6
ENDMDL
