MODEL 1
REMARK VINA RESULT:      -7.6      0.000      0.000
REMARK  Name = 
REMARK  10 active torsions:
REMARK  status: ('A' for Active; 'I' for Inactive)
REMARK    1  A    between atoms: C_1  and  O_2
REMARK    2  A    between atoms: O_2  and  C_3
REMARK    3  A    between atoms: C_8  and  C_15
REMARK    4  A    between atoms: C_16  and  O_17
REMARK    5  A    between atoms: C_18  and  C_28
REMARK    6  A    between atoms: N_20  and  C_21
REMARK    7  A    between atoms: C_21  and  C_22
REMARK    8  A    between atoms: C_22  and  C_23
REMARK    9  A    between atoms: C_23  and  C_24
REMARK   10  A    between atoms: C_23  and  C_25
REMARK                            x       y       z     vdW  Elec       q    Type
REMARK                         _______ _______ _______ _____ _____    ______ ____
ROOT
ATOM      1  C   UNL     1       8.161   0.617  23.689  0.00  0.00    +0.176 A 
ATOM      2  C   UNL     1       9.541   1.114  23.481  0.00  0.00    +0.286 A 
ATOM      3  O   UNL     1      10.463   0.309  23.335  0.00  0.00    -0.265 OA
ATOM      4  N   UNL     1       9.718   2.487  23.491  0.00  0.00    -0.228 N 
ATOM      5  N   UNL     1       8.693   3.390  23.597  0.00  0.00    -0.164 NA
ATOM      6  C   UNL     1       7.474   2.947  23.728  0.00  0.00    +0.134 A 
ATOM      7  C   UNL     1       7.137   1.486  23.782  0.00  0.00    +0.165 A 
ENDROOT
BRANCH   1  13
ATOM      8  C   UNL     1       5.692  -5.424  23.518  0.00  0.00    +0.122 A 
ATOM      9  C   UNL     1       6.817  -4.999  24.219  0.00  0.00    +0.081 A 
ATOM     10  C   UNL     1       7.245  -3.673  24.100  0.00  0.00    +0.183 A 
ATOM     11  C   UNL     1       6.582  -2.747  23.307  0.00  0.00    +0.205 A 
ATOM     12  N   UNL     1       6.960  -1.412  23.116  0.00  0.00    -0.037 NA
ATOM     13  C   UNL     1       7.892  -0.846  23.819  0.00  0.00    +0.351 C 
ATOM     14  N   UNL     1       8.688  -1.527  24.736  0.00  0.00    -0.090 N 
ATOM     15  H   UNL     1       9.024  -1.010  25.559  0.00  0.00    +0.326 HD
ATOM     16  C   UNL     1       5.423  -3.178  22.654  0.00  0.00    +0.061 A 
ATOM     17  S   UNL     1       8.677  -3.166  24.948  0.00  0.00    +0.136 S 
ATOM     18  O   UNL     1       9.817  -3.711  24.248  0.00  0.00    -0.130 OA
ATOM     19  O   UNL     1       8.461  -3.396  26.359  0.00  0.00    -0.130 OA
ATOM     20  C   UNL     1       4.975  -4.502  22.759  0.00  0.00    +0.050 A 
BRANCH   8  22
ATOM     21  C   UNL     1       4.262  -7.001  24.533  0.00  0.00    +0.277 C 
ATOM     22  O   UNL     1       5.364  -6.742  23.668  0.00  0.00    -0.495 OA
ENDBRANCH   8  22
ENDBRANCH   1  13
BRANCH   6  23
ATOM     23  C   UNL     1       6.365   3.965  23.816  0.00  0.00    +0.006 A 
ATOM     24  C   UNL     1       6.033   4.491  25.076  0.00  0.00    +0.010 A 
ATOM     25  C   UNL     1       5.059   5.488  25.200  0.00  0.00    +0.001 A 
ATOM     26  C   UNL     1       4.406   5.975  24.071  0.00  0.00    +0.000 A 
ATOM     27  C   UNL     1       4.688   5.428  22.824  0.00  0.00    +0.001 A 
ATOM     28  C   UNL     1       5.639   4.410  22.703  0.00  0.00    +0.010 A 
ENDBRANCH   6  23
BRANCH   7  29
ATOM     29  O   UNL     1       5.812   1.090  23.902  0.00  0.00    -0.504 OA
ATOM     30  H   UNL     1       5.386   1.597  24.628  0.00  0.00    +0.292 HD
ENDBRANCH   7  29
BRANCH   4  31
ATOM     31  C   UNL     1      11.068   3.037  23.396  0.00  0.00    +0.148 C 
BRANCH  31  32
ATOM     32  C   UNL     1      11.114   4.569  23.371  0.00  0.00    +0.026 C 
BRANCH  32  33
ATOM     33  C   UNL     1      12.506   5.196  23.575  0.00  0.00    -0.015 C 
ATOM     34  C   UNL     1      12.388   6.412  24.500  0.00  0.00    +0.007 C 
ATOM     35  C   UNL     1      13.161   5.617  22.260  0.00  0.00    +0.007 C 
ENDBRANCH  32  33
ENDBRANCH  31  32
ENDBRANCH   4  31
TORSDOF 7
ENDMDL
MODEL 2
REMARK VINA RESULT:      -6.9      2.660      3.367
REMARK  Name = 
REMARK  10 active torsions:
REMARK  status: ('A' for Active; 'I' for Inactive)
REMARK    1  A    between atoms: C_1  and  O_2
REMARK    2  A    between atoms: O_2  and  C_3
REMARK    3  A    between atoms: C_8  and  C_15
REMARK    4  A    between atoms: C_16  and  O_17
REMARK    5  A    between atoms: C_18  and  C_28
REMARK    6  A    between atoms: N_20  and  C_21
REMARK    7  A    between atoms: C_21  and  C_22
REMARK    8  A    between atoms: C_22  and  C_23
REMARK    9  A    between atoms: C_23  and  C_24
REMARK   10  A    between atoms: C_23  and  C_25
REMARK                            x       y       z     vdW  Elec       q    Type
REMARK                         _______ _______ _______ _____ _____    ______ ____
ROOT
ATOM      1  C   UNL     1       7.339  -1.304  25.516  0.00  0.00    +0.176 A 
ATOM      2  C   UNL     1       8.632  -1.025  24.848  0.00  0.00    +0.286 A 
ATOM      3  O   UNL     1       9.242  -1.943  24.295  0.00  0.00    -0.265 OA
ATOM      4  N   UNL     1       9.100   0.275  24.912  0.00  0.00    -0.228 N 
ATOM      5  N   UNL     1       8.403   1.312  25.475  0.00  0.00    -0.164 NA
ATOM      6  C   UNL     1       7.242   1.071  26.016  0.00  0.00    +0.134 A 
ATOM      7  C   UNL     1       6.632  -0.299  26.064  0.00  0.00    +0.165 A 
ENDROOT
BRANCH   1  13
ATOM      8  C   UNL     1       3.955  -6.864  25.008  0.00  0.00    +0.122 A 
ATOM      9  C   UNL     1       5.027  -6.612  25.859  0.00  0.00    +0.081 A 
ATOM     10  C   UNL     1       5.680  -5.376  25.799  0.00  0.00    +0.183 A 
ATOM     11  C   UNL     1       5.294  -4.374  24.921  0.00  0.00    +0.205 A 
ATOM     12  N   UNL     1       5.910  -3.123  24.783  0.00  0.00    -0.037 NA
ATOM     13  C   UNL     1       6.817  -2.700  25.609  0.00  0.00    +0.351 C 
ATOM     14  N   UNL     1       7.357  -3.481  26.629  0.00  0.00    -0.090 N 
ATOM     15  H   UNL     1       7.657  -3.005  27.490  0.00  0.00    +0.326 HD
ATOM     16  C   UNL     1       4.181  -4.625  24.113  0.00  0.00    +0.061 A 
ATOM     17  S   UNL     1       7.047  -5.089  26.838  0.00  0.00    +0.136 S 
ATOM     18  O   UNL     1       8.166  -5.830  26.304  0.00  0.00    -0.130 OA
ATOM     19  O   UNL     1       6.604  -5.248  28.205  0.00  0.00    -0.130 OA
ATOM     20  C   UNL     1       3.511  -5.856  24.156  0.00  0.00    +0.050 A 
BRANCH   8  22
ATOM     21  C   UNL     1       2.109  -8.247  24.518  0.00  0.00    +0.277 C 
ATOM     22  O   UNL     1       3.396  -8.107  25.112  0.00  0.00    -0.495 OA
ENDBRANCH   8  22
ENDBRANCH   1  13
BRANCH   6  23
ATOM     23  C   UNL     1       6.488   2.237  26.605  0.00  0.00    +0.006 A 
ATOM     24  C   UNL     1       6.753   2.607  27.934  0.00  0.00    +0.010 A 
ATOM     25  C   UNL     1       6.130   3.724  28.503  0.00  0.00    +0.001 A 
ATOM     26  C   UNL     1       5.238   4.487  27.753  0.00  0.00    +0.000 A 
ATOM     27  C   UNL     1       4.929   4.104  26.453  0.00  0.00    +0.001 A 
ATOM     28  C   UNL     1       5.527   2.970  25.895  0.00  0.00    +0.010 A 
ENDBRANCH   6  23
BRANCH   7  29
ATOM     29  O   UNL     1       5.381  -0.474  26.639  0.00  0.00    -0.504 OA
ATOM     30  H   UNL     1       5.242   0.211  27.329  0.00  0.00    +0.292 HD
ENDBRANCH   7  29
BRANCH   4  31
ATOM     31  C   UNL     1      10.416   0.593  24.364  0.00  0.00    +0.148 C 
BRANCH  31  32
ATOM     32  C   UNL     1      10.443   1.862  23.506  0.00  0.00    +0.026 C 
BRANCH  32  33
ATOM     33  C   UNL     1       9.881   1.713  22.080  0.00  0.00    -0.015 C 
ATOM     34  C   UNL     1       8.489   2.349  22.010  0.00  0.00    +0.007 C 
ATOM     35  C   UNL     1       9.799   0.255  21.628  0.00  0.00    +0.007 C 
ENDBRANCH  32  33
ENDBRANCH  31  32
ENDBRANCH   4  31
TORSDOF 7
ENDMDL
MODEL 3
REMARK VINA RESULT:      -6.9      1.685      2.052
REMARK  Name = 
REMARK  10 active torsions:
REMARK  status: ('A' for Active; 'I' for Inactive)
REMARK    1  A    between atoms: C_1  and  O_2
REMARK    2  A    between atoms: O_2  and  C_3
REMARK    3  A    between atoms: C_8  and  C_15
REMARK    4  A    between atoms: C_16  and  O_17
REMARK    5  A    between atoms: C_18  and  C_28
REMARK    6  A    between atoms: N_20  and  C_21
REMARK    7  A    between atoms: C_21  and  C_22
REMARK    8  A    between atoms: C_22  and  C_23
REMARK    9  A    between atoms: C_23  and  C_24
REMARK   10  A    between atoms: C_23  and  C_25
REMARK                            x       y       z     vdW  Elec       q    Type
REMARK                         _______ _______ _______ _____ _____    ______ ____
ROOT
ATOM      1  C   UNL     1       7.717   0.752  24.196  0.00  0.00    +0.176 A 
ATOM      2  C   UNL     1       9.037   1.396  24.002  0.00  0.00    +0.286 A 
ATOM      3  O   UNL     1      10.059   0.707  24.027  0.00  0.00    -0.265 OA
ATOM      4  N   UNL     1       9.043   2.768  23.828  0.00  0.00    -0.228 N 
ATOM      5  N   UNL     1       7.910   3.534  23.744  0.00  0.00    -0.164 NA
ATOM      6  C   UNL     1       6.747   2.954  23.864  0.00  0.00    +0.134 A 
ATOM      7  C   UNL     1       6.590   1.482  24.104  0.00  0.00    +0.165 A 
ENDROOT
BRANCH   1  13
ATOM      8  C   UNL     1       6.529  -5.105  26.823  0.00  0.00    +0.122 A 
ATOM      9  C   UNL     1       7.356  -4.827  25.738  0.00  0.00    +0.081 A 
ATOM     10  C   UNL     1       7.454  -3.514  25.265  0.00  0.00    +0.183 A 
ATOM     11  C   UNL     1       6.759  -2.462  25.843  0.00  0.00    +0.205 A 
ATOM     12  N   UNL     1       6.785  -1.129  25.413  0.00  0.00    -0.037 NA
ATOM     13  C   UNL     1       7.620  -0.703  24.517  0.00  0.00    +0.351 C 
ATOM     14  N   UNL     1       8.482  -1.537  23.807  0.00  0.00    -0.090 N 
ATOM     15  H   UNL     1       9.390  -1.152  23.515  0.00  0.00    +0.326 HD
ATOM     16  C   UNL     1       5.977  -2.752  26.965  0.00  0.00    +0.061 A 
ATOM     17  S   UNL     1       8.457  -3.187  23.881  0.00  0.00    +0.136 S 
ATOM     18  O   UNL     1       7.763  -3.673  22.712  0.00  0.00    -0.130 OA
ATOM     19  O   UNL     1       9.804  -3.603  24.202  0.00  0.00    -0.130 OA
ATOM     20  C   UNL     1       5.864  -4.059  27.458  0.00  0.00    +0.050 A 
BRANCH   8  22
ATOM     21  C   UNL     1       5.218  -6.841  27.735  0.00  0.00    +0.277 C 
ATOM     22  O   UNL     1       6.469  -6.418  27.200  0.00  0.00    -0.495 OA
ENDBRANCH   8  22
ENDBRANCH   1  13
BRANCH   6  23
ATOM     23  C   UNL     1       5.519   3.819  23.741  0.00  0.00    +0.006 A 
ATOM     24  C   UNL     1       5.067   4.512  24.877  0.00  0.00    +0.010 A 
ATOM     25  C   UNL     1       3.972   5.381  24.796  0.00  0.00    +0.001 A 
ATOM     26  C   UNL     1       3.316   5.571  23.582  0.00  0.00    +0.000 A 
ATOM     27  C   UNL     1       3.721   4.854  22.462  0.00  0.00    +0.001 A 
ATOM     28  C   UNL     1       4.794   3.963  22.549  0.00  0.00    +0.010 A 
ENDBRANCH   6  23
BRANCH   7  29
ATOM     29  O   UNL     1       5.318   0.934  24.201  0.00  0.00    -0.504 OA
ATOM     30  H   UNL     1       4.801   1.430  24.873  0.00  0.00    +0.292 HD
ENDBRANCH   7  29
BRANCH   4  31
ATOM     31  C   UNL     1      10.318   3.475  23.736  0.00  0.00    +0.148 C 
BRANCH  31  32
ATOM     32  C   UNL     1      10.188   5.001  23.792  0.00  0.00    +0.026 C 
BRANCH  32  33
ATOM     33  C   UNL     1      11.497   5.788  23.591  0.00  0.00    -0.015 C 
ATOM     34  C   UNL     1      12.598   4.835  23.115  0.00  0.00    +0.007 C 
ATOM     35  C   UNL     1      11.955   6.504  24.861  0.00  0.00    +0.007 C 
ENDBRANCH  32  33
ENDBRANCH  31  32
ENDBRANCH   4  31
TORSDOF 7
ENDMDL
MODEL 4
REMARK VINA RESULT:      -6.9      3.094      8.716
REMARK  Name = 
REMARK  10 active torsions:
REMARK  status: ('A' for Active; 'I' for Inactive)
REMARK    1  A    between atoms: C_1  and  O_2
REMARK    2  A    between atoms: O_2  and  C_3
REMARK    3  A    between atoms: C_8  and  C_15
REMARK    4  A    between atoms: C_16  and  O_17
REMARK    5  A    between atoms: C_18  and  C_28
REMARK    6  A    between atoms: N_20  and  C_21
REMARK    7  A    between atoms: C_21  and  C_22
REMARK    8  A    between atoms: C_22  and  C_23
REMARK    9  A    between atoms: C_23  and  C_24
REMARK   10  A    between atoms: C_23  and  C_25
REMARK                            x       y       z     vdW  Elec       q    Type
REMARK                         _______ _______ _______ _____ _____    ______ ____
ROOT
ATOM      1  C   UNL     1       6.748  -1.708  24.689  0.00  0.00    +0.176 A 
ATOM      2  C   UNL     1       6.192  -2.518  23.580  0.00  0.00    +0.286 A 
ATOM      3  O   UNL     1       6.510  -2.259  22.417  0.00  0.00    -0.265 OA
ATOM      4  N   UNL     1       5.307  -3.524  23.925  0.00  0.00    -0.228 N 
ATOM      5  N   UNL     1       4.991  -3.856  25.216  0.00  0.00    -0.164 NA
ATOM      6  C   UNL     1       5.523  -3.172  26.191  0.00  0.00    +0.134 A 
ATOM      7  C   UNL     1       6.462  -2.023  25.965  0.00  0.00    +0.165 A 
ENDROOT
BRANCH   1  13
ATOM      8  C   UNL     1       9.400   4.235  24.166  0.00  0.00    +0.122 A 
ATOM      9  C   UNL     1       9.844   3.064  23.558  0.00  0.00    +0.081 A 
ATOM     10  C   UNL     1       9.189   1.857  23.824  0.00  0.00    +0.183 A 
ATOM     11  C   UNL     1       8.095   1.777  24.674  0.00  0.00    +0.205 A 
ATOM     12  N   UNL     1       7.402   0.607  25.010  0.00  0.00    -0.037 NA
ATOM     13  C   UNL     1       7.611  -0.522  24.405  0.00  0.00    +0.351 C 
ATOM     14  N   UNL     1       8.616  -0.718  23.461  0.00  0.00    -0.090 N 
ATOM     15  H   UNL     1       8.442  -1.396  22.708  0.00  0.00    +0.326 HD
ATOM     16  C   UNL     1       7.631   2.972  25.231  0.00  0.00    +0.061 A 
ATOM     17  S   UNL     1       9.781   0.394  23.092  0.00  0.00    +0.136 S 
ATOM     18  O   UNL     1      10.990   0.015  23.784  0.00  0.00    -0.130 OA
ATOM     19  O   UNL     1       9.740   0.568  21.657  0.00  0.00    -0.130 OA
ATOM     20  C   UNL     1       8.270   4.193  24.979  0.00  0.00    +0.050 A 
BRANCH   8  22
ATOM     21  C   UNL     1      11.491   5.147  23.565  0.00  0.00    +0.277 C 
ATOM     22  O   UNL     1      10.117   5.362  23.875  0.00  0.00    -0.495 OA
ENDBRANCH   8  22
ENDBRANCH   1  13
BRANCH   6  23
ATOM     23  C   UNL     1       5.176  -3.577  27.601  0.00  0.00    +0.006 A 
ATOM     24  C   UNL     1       4.251  -2.798  28.316  0.00  0.00    +0.010 A 
ATOM     25  C   UNL     1       3.845  -3.172  29.603  0.00  0.00    +0.001 A 
ATOM     26  C   UNL     1       4.354  -4.329  30.190  0.00  0.00    +0.000 A 
ATOM     27  C   UNL     1       5.306  -5.082  29.513  0.00  0.00    +0.001 A 
ATOM     28  C   UNL     1       5.736  -4.691  28.241  0.00  0.00    +0.010 A 
ENDBRANCH   6  23
BRANCH   7  29
ATOM     29  O   UNL     1       7.005  -1.356  27.054  0.00  0.00    -0.504 OA
ATOM     30  H   UNL     1       6.663  -1.756  27.884  0.00  0.00    +0.292 HD
ENDBRANCH   7  29
BRANCH   4  31
ATOM     31  C   UNL     1       4.645  -4.290  22.872  0.00  0.00    +0.148 C 
BRANCH  31  32
ATOM     32  C   UNL     1       5.006  -5.779  22.866  0.00  0.00    +0.026 C 
BRANCH  32  33
ATOM     33  C   UNL     1       6.214  -6.167  21.993  0.00  0.00    -0.015 C 
ATOM     34  C   UNL     1       7.511  -5.858  22.749  0.00  0.00    +0.007 C 
ATOM     35  C   UNL     1       6.225  -5.445  20.646  0.00  0.00    +0.007 C 
ENDBRANCH  32  33
ENDBRANCH  31  32
ENDBRANCH   4  31
TORSDOF 7
ENDMDL
MODEL 5
REMARK VINA RESULT:      -6.8      2.987      9.460
REMARK  Name = 
REMARK  10 active torsions:
REMARK  status: ('A' for Active; 'I' for Inactive)
REMARK    1  A    between atoms: C_1  and  O_2
REMARK    2  A    between atoms: O_2  and  C_3
REMARK    3  A    between atoms: C_8  and  C_15
REMARK    4  A    between atoms: C_16  and  O_17
REMARK    5  A    between atoms: C_18  and  C_28
REMARK    6  A    between atoms: N_20  and  C_21
REMARK    7  A    between atoms: C_21  and  C_22
REMARK    8  A    between atoms: C_22  and  C_23
REMARK    9  A    between atoms: C_23  and  C_24
REMARK   10  A    between atoms: C_23  and  C_25
REMARK                            x       y       z     vdW  Elec       q    Type
REMARK                         _______ _______ _______ _____ _____    ______ ____
ROOT
ATOM      1  C   UNL     1       6.820  -3.168  24.410  0.00  0.00    +0.176 A 
ATOM      2  C   UNL     1       5.978  -3.883  23.422  0.00  0.00    +0.286 A 
ATOM      3  O   UNL     1       6.102  -3.632  22.222  0.00  0.00    -0.265 OA
ATOM      4  N   UNL     1       5.062  -4.790  23.924  0.00  0.00    -0.228 N 
ATOM      5  N   UNL     1       4.956  -5.117  25.250  0.00  0.00    -0.164 NA
ATOM      6  C   UNL     1       5.735  -4.522  26.110  0.00  0.00    +0.134 A 
ATOM      7  C   UNL     1       6.742  -3.481  25.717  0.00  0.00    +0.165 A 
ENDROOT
BRANCH   1  13
ATOM      8  C   UNL     1      10.046   2.431  23.480  0.00  0.00    +0.122 A 
ATOM      9  C   UNL     1      10.186   1.253  22.751  0.00  0.00    +0.081 A 
ATOM     10  C   UNL     1       9.454   0.121  23.122  0.00  0.00    +0.183 A 
ATOM     11  C   UNL     1       8.576   0.123  24.196  0.00  0.00    +0.205 A 
ATOM     12  N   UNL     1       7.827  -0.973  24.645  0.00  0.00    -0.037 NA
ATOM     13  C   UNL     1       7.746  -2.081  23.974  0.00  0.00    +0.351 C 
ATOM     14  N   UNL     1       8.482  -2.340  22.819  0.00  0.00    -0.090 N 
ATOM     15  H   UNL     1       8.056  -2.945  22.105  0.00  0.00    +0.326 HD
ATOM     16  C   UNL     1       8.408   1.329  24.882  0.00  0.00    +0.061 A 
ATOM     17  S   UNL     1       9.670  -1.357  22.228  0.00  0.00    +0.136 S 
ATOM     18  O   UNL     1      10.943  -1.919  22.613  0.00  0.00    -0.130 OA
ATOM     19  O   UNL     1       9.334  -1.093  20.847  0.00  0.00    -0.130 OA
ATOM     20  C   UNL     1       9.131   2.477  24.528  0.00  0.00    +0.050 A 
BRANCH   8  22
ATOM     21  C   UNL     1      10.581   4.714  23.735  0.00  0.00    +0.277 C 
ATOM     22  O   UNL     1      10.822   3.478  23.068  0.00  0.00    -0.495 OA
ENDBRANCH   8  22
ENDBRANCH   1  13
BRANCH   6  23
ATOM     23  C   UNL     1       5.612  -4.921  27.559  0.00  0.00    +0.006 A 
ATOM     24  C   UNL     1       4.768  -4.170  28.394  0.00  0.00    +0.010 A 
ATOM     25  C   UNL     1       4.568  -4.541  29.729  0.00  0.00    +0.001 A 
ATOM     26  C   UNL     1       5.203  -5.668  30.246  0.00  0.00    +0.000 A 
ATOM     27  C   UNL     1       6.079  -6.392  29.445  0.00  0.00    +0.001 A 
ATOM     28  C   UNL     1       6.304  -6.002  28.121  0.00  0.00    +0.010 A 
ENDBRANCH   6  23
BRANCH   7  29
ATOM     29  O   UNL     1       7.551  -2.907  26.687  0.00  0.00    -0.504 OA
ATOM     30  H   UNL     1       7.122  -2.091  27.026  0.00  0.00    +0.292 HD
ENDBRANCH   7  29
BRANCH   4  31
ATOM     31  C   UNL     1       4.132  -5.451  23.011  0.00  0.00    +0.148 C 
BRANCH  31  32
ATOM     32  C   UNL     1       2.657  -5.228  23.360  0.00  0.00    +0.026 C 
BRANCH  32  33
ATOM     33  C   UNL     1       1.816  -6.506  23.543  0.00  0.00    -0.015 C 
ATOM     34  C   UNL     1       2.693  -7.614  24.136  0.00  0.00    +0.007 C 
ATOM     35  C   UNL     1       1.193  -6.995  22.235  0.00  0.00    +0.007 C 
ENDBRANCH  32  33
ENDBRANCH  31  32
ENDBRANCH   4  31
TORSDOF 7
ENDMDL
MODEL 6
REMARK VINA RESULT:      -6.8      2.256      3.164
REMARK  Name = 
REMARK  10 active torsions:
REMARK  status: ('A' for Active; 'I' for Inactive)
REMARK    1  A    between atoms: C_1  and  O_2
REMARK    2  A    between atoms: O_2  and  C_3
REMARK    3  A    between atoms: C_8  and  C_15
REMARK    4  A    between atoms: C_16  and  O_17
REMARK    5  A    between atoms: C_18  and  C_28
REMARK    6  A    between atoms: N_20  and  C_21
REMARK    7  A    between atoms: C_21  and  C_22
REMARK    8  A    between atoms: C_22  and  C_23
REMARK    9  A    between atoms: C_23  and  C_24
REMARK   10  A    between atoms: C_23  and  C_25
REMARK                            x       y       z     vdW  Elec       q    Type
REMARK                         _______ _______ _______ _____ _____    ______ ____
ROOT
ATOM      1  C   UNL     1       7.071   2.569  23.389  0.00  0.00    +0.176 A 
ATOM      2  C   UNL     1       7.988   3.681  23.043  0.00  0.00    +0.286 A 
ATOM      3  O   UNL     1       9.196   3.463  22.934  0.00  0.00    -0.265 OA
ATOM      4  N   UNL     1       7.418   4.932  22.885  0.00  0.00    -0.228 N 
ATOM      5  N   UNL     1       6.072   5.174  22.948  0.00  0.00    -0.164 NA
ATOM      6  C   UNL     1       5.264   4.182  23.202  0.00  0.00    +0.134 A 
ATOM      7  C   UNL     1       5.743   2.781  23.443  0.00  0.00    +0.165 A 
ENDROOT
BRANCH   1  13
ATOM      8  C   UNL     1       8.334  -3.824  23.779  0.00  0.00    +0.122 A 
ATOM      9  C   UNL     1       8.872  -2.815  24.572  0.00  0.00    +0.081 A 
ATOM     10  C   UNL     1       8.536  -1.482  24.315  0.00  0.00    +0.183 A 
ATOM     11  C   UNL     1       7.669  -1.118  23.294  0.00  0.00    +0.205 A 
ATOM     12  N   UNL     1       7.303   0.192  22.959  0.00  0.00    -0.037 NA
ATOM     13  C   UNL     1       7.608   1.211  23.702  0.00  0.00    +0.351 C 
ATOM     14  N   UNL     1       8.426   1.130  24.827  0.00  0.00    -0.090 N 
ATOM     15  H   UNL     1       8.245   1.782  25.601  0.00  0.00    +0.326 HD
ATOM     16  C   UNL     1       7.096  -2.149  22.545  0.00  0.00    +0.061 A 
ATOM     17  S   UNL     1       9.250  -0.227  25.286  0.00  0.00    +0.136 S 
ATOM     18  O   UNL     1      10.623  -0.075  24.866  0.00  0.00    -0.130 OA
ATOM     19  O   UNL     1       8.893  -0.476  26.665  0.00  0.00    -0.130 OA
ATOM     20  C   UNL     1       7.418  -3.492  22.783  0.00  0.00    +0.050 A 
BRANCH   8  22
ATOM     21  C   UNL     1       9.480  -5.227  25.289  0.00  0.00    +0.277 C 
ATOM     22  O   UNL     1       8.740  -5.094  24.079  0.00  0.00    -0.495 OA
ENDBRANCH   8  22
ENDBRANCH   1  13
BRANCH   6  23
ATOM     23  C   UNL     1       3.786   4.475  23.240  0.00  0.00    +0.006 A 
ATOM     24  C   UNL     1       3.202   4.832  24.467  0.00  0.00    +0.010 A 
ATOM     25  C   UNL     1       1.848   5.179  24.540  0.00  0.00    +0.001 A 
ATOM     26  C   UNL     1       1.061   5.178  23.391  0.00  0.00    +0.000 A 
ATOM     27  C   UNL     1       1.613   4.779  22.179  0.00  0.00    +0.001 A 
ATOM     28  C   UNL     1       2.957   4.402  22.112  0.00  0.00    +0.010 A 
ENDBRANCH   6  23
BRANCH   7  29
ATOM     29  O   UNL     1       4.822   1.772  23.688  0.00  0.00    -0.504 OA
ATOM     30  H   UNL     1       4.485   1.426  22.833  0.00  0.00    +0.292 HD
ENDBRANCH   7  29
BRANCH   4  31
ATOM     31  C   UNL     1       8.280   6.088  22.646  0.00  0.00    +0.148 C 
BRANCH  31  32
ATOM     32  C   UNL     1       8.283   7.108  23.790  0.00  0.00    +0.026 C 
BRANCH  32  33
ATOM     33  C   UNL     1       9.364   6.898  24.866  0.00  0.00    -0.015 C 
ATOM     34  C   UNL     1      10.623   6.311  24.219  0.00  0.00    +0.007 C 
ATOM     35  C   UNL     1       8.899   5.981  25.998  0.00  0.00    +0.007 C 
ENDBRANCH  32  33
ENDBRANCH  31  32
ENDBRANCH   4  31
TORSDOF 7
ENDMDL
MODEL 7
REMARK VINA RESULT:      -6.7      3.260      8.871
REMARK  Name = 
REMARK  10 active torsions:
REMARK  status: ('A' for Active; 'I' for Inactive)
REMARK    1  A    between atoms: C_1  and  O_2
REMARK    2  A    between atoms: O_2  and  C_3
REMARK    3  A    between atoms: C_8  and  C_15
REMARK    4  A    between atoms: C_16  and  O_17
REMARK    5  A    between atoms: C_18  and  C_28
REMARK    6  A    between atoms: N_20  and  C_21
REMARK    7  A    between atoms: C_21  and  C_22
REMARK    8  A    between atoms: C_22  and  C_23
REMARK    9  A    between atoms: C_23  and  C_24
REMARK   10  A    between atoms: C_23  and  C_25
REMARK                            x       y       z     vdW  Elec       q    Type
REMARK                         _______ _______ _______ _____ _____    ______ ____
ROOT
ATOM      1  C   UNL     1       6.014  -1.746  24.763  0.00  0.00    +0.176 A 
ATOM      2  C   UNL     1       5.635  -2.693  23.688  0.00  0.00    +0.286 A 
ATOM      3  O   UNL     1       5.905  -2.423  22.516  0.00  0.00    -0.265 OA
ATOM      4  N   UNL     1       4.959  -3.837  24.074  0.00  0.00    -0.228 N 
ATOM      5  N   UNL     1       4.704  -4.172  25.377  0.00  0.00    -0.164 NA
ATOM      6  C   UNL     1       5.086  -3.360  26.324  0.00  0.00    +0.134 A 
ATOM      7  C   UNL     1       5.785  -2.061  26.052  0.00  0.00    +0.165 A 
ENDROOT
BRANCH   1  13
ATOM      8  C   UNL     1      10.014   3.304  23.705  0.00  0.00    +0.122 A 
ATOM      9  C   UNL     1       8.622   3.323  23.697  0.00  0.00    +0.081 A 
ATOM     10  C   UNL     1       7.915   2.131  23.887  0.00  0.00    +0.183 A 
ATOM     11  C   UNL     1       8.550   0.915  24.095  0.00  0.00    +0.205 A 
ATOM     12  N   UNL     1       7.915  -0.322  24.268  0.00  0.00    -0.037 NA
ATOM     13  C   UNL     1       6.632  -0.428  24.432  0.00  0.00    +0.351 C 
ATOM     14  N   UNL     1       5.749   0.645  24.329  0.00  0.00    -0.090 N 
ATOM     15  H   UNL     1       4.902   0.627  24.911  0.00  0.00    +0.326 HD
ATOM     16  C   UNL     1       9.946   0.926  24.155  0.00  0.00    +0.061 A 
ATOM     17  S   UNL     1       6.176   2.161  23.831  0.00  0.00    +0.136 S 
ATOM     18  O   UNL     1       5.784   2.300  22.448  0.00  0.00    -0.130 OA
ATOM     19  O   UNL     1       5.715   3.073  24.854  0.00  0.00    -0.130 OA
ATOM     20  C   UNL     1      10.677   2.107  23.968  0.00  0.00    +0.050 A 
BRANCH   8  22
ATOM     21  C   UNL     1      12.038   4.450  23.313  0.00  0.00    +0.277 C 
ATOM     22  O   UNL     1      10.624   4.506  23.480  0.00  0.00    -0.495 OA
ENDBRANCH   8  22
ENDBRANCH   1  13
BRANCH   6  23
ATOM     23  C   UNL     1       4.813  -3.768  27.749  0.00  0.00    +0.006 A 
ATOM     24  C   UNL     1       5.549  -4.832  28.297  0.00  0.00    +0.010 A 
ATOM     25  C   UNL     1       5.381  -5.203  29.636  0.00  0.00    +0.001 A 
ATOM     26  C   UNL     1       4.478  -4.518  30.445  0.00  0.00    +0.000 A 
ATOM     27  C   UNL     1       3.707  -3.496  29.903  0.00  0.00    +0.001 A 
ATOM     28  C   UNL     1       3.852  -3.145  28.558  0.00  0.00    +0.010 A 
ENDBRANCH   6  23
BRANCH   7  29
ATOM     29  O   UNL     1       6.180  -1.257  27.112  0.00  0.00    -0.504 OA
ATOM     30  H   UNL     1       6.236  -0.325  26.809  0.00  0.00    +0.292 HD
ENDBRANCH   7  29
BRANCH   4  31
ATOM     31  C   UNL     1       4.466  -4.759  23.053  0.00  0.00    +0.148 C 
BRANCH  31  32
ATOM     32  C   UNL     1       5.175  -6.117  23.048  0.00  0.00    +0.026 C 
BRANCH  32  33
ATOM     33  C   UNL     1       6.410  -6.220  22.134  0.00  0.00    -0.015 C 
ATOM     34  C   UNL     1       7.627  -5.623  22.849  0.00  0.00    +0.007 C 
ATOM     35  C   UNL     1       6.211  -5.515  20.792  0.00  0.00    +0.007 C 
ENDBRANCH  32  33
ENDBRANCH  31  32
ENDBRANCH   4  31
TORSDOF 7
ENDMDL
MODEL 8
REMARK VINA RESULT:      -6.6      3.108      9.215
REMARK  Name = 
REMARK  10 active torsions:
REMARK  status: ('A' for Active; 'I' for Inactive)
REMARK    1  A    between atoms: C_1  and  O_2
REMARK    2  A    between atoms: O_2  and  C_3
REMARK    3  A    between atoms: C_8  and  C_15
REMARK    4  A    between atoms: C_16  and  O_17
REMARK    5  A    between atoms: C_18  and  C_28
REMARK    6  A    between atoms: N_20  and  C_21
REMARK    7  A    between atoms: C_21  and  C_22
REMARK    8  A    between atoms: C_22  and  C_23
REMARK    9  A    between atoms: C_23  and  C_24
REMARK   10  A    between atoms: C_23  and  C_25
REMARK                            x       y       z     vdW  Elec       q    Type
REMARK                         _______ _______ _______ _____ _____    ______ ____
ROOT
ATOM      1  C   UNL     1       6.572  -3.424  25.227  0.00  0.00    +0.176 A 
ATOM      2  C   UNL     1       6.890  -4.150  26.479  0.00  0.00    +0.286 A 
ATOM      3  O   UNL     1       7.907  -3.859  27.111  0.00  0.00    -0.265 OA
ATOM      4  N   UNL     1       6.016  -5.155  26.856  0.00  0.00    -0.228 N 
ATOM      5  N   UNL     1       4.855  -5.448  26.192  0.00  0.00    -0.164 NA
ATOM      6  C   UNL     1       4.554  -4.771  25.119  0.00  0.00    +0.134 A 
ATOM      7  C   UNL     1       5.430  -3.687  24.565  0.00  0.00    +0.165 A 
ENDROOT
BRANCH   1  13
ATOM      8  C   UNL     1       9.984   1.945  23.761  0.00  0.00    +0.122 A 
ATOM      9  C   UNL     1      10.037   0.716  23.109  0.00  0.00    +0.081 A 
ATOM     10  C   UNL     1       9.276  -0.354  23.592  0.00  0.00    +0.183 A 
ATOM     11  C   UNL     1       8.454  -0.240  24.703  0.00  0.00    +0.205 A 
ATOM     12  N   UNL     1       7.683  -1.267  25.262  0.00  0.00    -0.037 NA
ATOM     13  C   UNL     1       7.521  -2.413  24.674  0.00  0.00    +0.351 C 
ATOM     14  N   UNL     1       8.186  -2.782  23.506  0.00  0.00    -0.090 N 
ATOM     15  H   UNL     1       7.700  -3.414  22.856  0.00  0.00    +0.326 HD
ATOM     16  C   UNL     1       8.373   1.017  25.311  0.00  0.00    +0.061 A 
ATOM     17  S   UNL     1       9.384  -1.897  22.794  0.00  0.00    +0.136 S 
ATOM     18  O   UNL     1      10.650  -2.490  23.156  0.00  0.00    -0.130 OA
ATOM     19  O   UNL     1       8.991  -1.710  21.415  0.00  0.00    -0.130 OA
ATOM     20  C   UNL     1       9.125   2.104  24.845  0.00  0.00    +0.050 A 
BRANCH   8  22
ATOM     21  C   UNL     1      10.411   4.258  23.584  0.00  0.00    +0.277 C 
ATOM     22  O   UNL     1      10.782   2.926  23.241  0.00  0.00    -0.495 OA
ENDBRANCH   8  22
ENDBRANCH   1  13
BRANCH   6  23
ATOM     23  C   UNL     1       3.257  -5.101  24.424  0.00  0.00    +0.006 A 
ATOM     24  C   UNL     1       2.107  -4.367  24.762  0.00  0.00    +0.010 A 
ATOM     25  C   UNL     1       0.896  -4.589  24.097  0.00  0.00    +0.001 A 
ATOM     26  C   UNL     1       0.817  -5.543  23.085  0.00  0.00    +0.000 A 
ATOM     27  C   UNL     1       1.933  -6.310  22.774  0.00  0.00    +0.001 A 
ATOM     28  C   UNL     1       3.135  -6.111  23.460  0.00  0.00    +0.010 A 
ENDBRANCH   6  23
BRANCH   7  29
ATOM     29  O   UNL     1       5.033  -2.996  23.429  0.00  0.00    -0.504 OA
ATOM     30  H   UNL     1       4.053  -3.002  23.371  0.00  0.00    +0.292 HD
ENDBRANCH   7  29
BRANCH   4  31
ATOM     31  C   UNL     1       6.328  -5.976  28.024  0.00  0.00    +0.148 C 
BRANCH  31  32
ATOM     32  C   UNL     1       5.170  -6.870  28.481  0.00  0.00    +0.026 C 
BRANCH  32  33
ATOM     33  C   UNL     1       4.543  -6.504  29.839  0.00  0.00    -0.015 C 
ATOM     34  C   UNL     1       3.107  -7.035  29.898  0.00  0.00    +0.007 C 
ATOM     35  C   UNL     1       4.539  -4.997  30.099  0.00  0.00    +0.007 C 
ENDBRANCH  32  33
ENDBRANCH  31  32
ENDBRANCH   4  31
TORSDOF 7
ENDMDL
MODEL 9
REMARK VINA RESULT:      -6.6      1.965      4.573
REMARK  Name = 
REMARK  10 active torsions:
REMARK  status: ('A' for Active; 'I' for Inactive)
REMARK    1  A    between atoms: C_1  and  O_2
REMARK    2  A    between atoms: O_2  and  C_3
REMARK    3  A    between atoms: C_8  and  C_15
REMARK    4  A    between atoms: C_16  and  O_17
REMARK    5  A    between atoms: C_18  and  C_28
REMARK    6  A    between atoms: N_20  and  C_21
REMARK    7  A    between atoms: C_21  and  C_22
REMARK    8  A    between atoms: C_22  and  C_23
REMARK    9  A    between atoms: C_23  and  C_24
REMARK   10  A    between atoms: C_23  and  C_25
REMARK                            x       y       z     vdW  Elec       q    Type
REMARK                         _______ _______ _______ _____ _____    ______ ____
ROOT
ATOM      1  C   UNL     1       7.847   1.474  23.964  0.00  0.00    +0.176 A 
ATOM      2  C   UNL     1       6.593   2.158  23.571  0.00  0.00    +0.286 A 
ATOM      3  O   UNL     1       5.533   1.529  23.561  0.00  0.00    -0.265 OA
ATOM      4  N   UNL     1       6.697   3.488  23.203  0.00  0.00    -0.228 N 
ATOM      5  N   UNL     1       7.859   4.210  23.263  0.00  0.00    -0.164 NA
ATOM      6  C   UNL     1       8.951   3.616  23.660  0.00  0.00    +0.134 A 
ATOM      7  C   UNL     1       8.998   2.167  24.043  0.00  0.00    +0.165 A 
ENDROOT
BRANCH   1  13
ATOM      8  C   UNL     1       7.153  -4.497  26.511  0.00  0.00    +0.122 A 
ATOM      9  C   UNL     1       7.902  -4.147  25.391  0.00  0.00    +0.081 A 
ATOM     10  C   UNL     1       7.896  -2.821  24.944  0.00  0.00    +0.183 A 
ATOM     11  C   UNL     1       7.172  -1.825  25.582  0.00  0.00    +0.205 A 
ATOM     12  N   UNL     1       7.095  -0.484  25.184  0.00  0.00    -0.037 NA
ATOM     13  C   UNL     1       7.855   0.009  24.255  0.00  0.00    +0.351 C 
ATOM     14  N   UNL     1       8.725  -0.756  23.481  0.00  0.00    -0.090 N 
ATOM     15  H   UNL     1       9.592  -0.311  23.152  0.00  0.00    +0.326 HD
ATOM     16  C   UNL     1       6.470  -2.185  26.736  0.00  0.00    +0.061 A 
ATOM     17  S   UNL     1       8.803  -2.406  23.518  0.00  0.00    +0.136 S 
ATOM     18  O   UNL     1       8.077  -2.909  22.375  0.00  0.00    -0.130 OA
ATOM     19  O   UNL     1      10.187  -2.746  23.758  0.00  0.00    -0.130 OA
ATOM     20  C   UNL     1       6.461  -3.506  27.204  0.00  0.00    +0.050 A 
BRANCH   8  22
ATOM     21  C   UNL     1       6.580  -6.137  28.106  0.00  0.00    +0.277 C 
ATOM     22  O   UNL     1       7.190  -5.818  26.859  0.00  0.00    -0.495 OA
ENDBRANCH   8  22
ENDBRANCH   1  13
BRANCH   6  23
ATOM     23  C   UNL     1      10.208   4.444  23.740  0.00  0.00    +0.006 A 
ATOM     24  C   UNL     1      10.158   5.683  24.401  0.00  0.00    +0.010 A 
ATOM     25  C   UNL     1      11.314   6.456  24.562  0.00  0.00    +0.001 A 
ATOM     26  C   UNL     1      12.534   6.002  24.068  0.00  0.00    +0.000 A 
ATOM     27  C   UNL     1      12.590   4.802  23.368  0.00  0.00    +0.001 A 
ATOM     28  C   UNL     1      11.430   4.045  23.180  0.00  0.00    +0.010 A 
ENDBRANCH   6  23
BRANCH   7  29
ATOM     29  O   UNL     1      10.194   1.609  24.476  0.00  0.00    -0.504 OA
ATOM     30  H   UNL     1      10.130   1.410  25.435  0.00  0.00    +0.292 HD
ENDBRANCH   7  29
BRANCH   4  31
ATOM     31  C   UNL     1       5.516   4.190  22.705  0.00  0.00    +0.148 C 
BRANCH  31  32
ATOM     32  C   UNL     1       5.610   5.715  22.810  0.00  0.00    +0.026 C 
BRANCH  32  33
ATOM     33  C   UNL     1       4.989   6.334  24.077  0.00  0.00    -0.015 C 
ATOM     34  C   UNL     1       6.105   6.826  25.005  0.00  0.00    +0.007 C 
ATOM     35  C   UNL     1       4.092   5.355  24.833  0.00  0.00    +0.007 C 
ENDBRANCH  32  33
ENDBRANCH  31  32
ENDBRANCH   4  31
TORSDOF 7
ENDMDL
