MODEL 1
REMARK VINA RESULT:      -7.4      0.000      0.000
REMARK  Name = 
REMARK  7 active torsions:
REMARK  status: ('A' for Active; 'I' for Inactive)
REMARK    1  A    between atoms: C_1  and  C_2
REMARK    2  A    between atoms: C_2  and  C_3
REMARK    3  A    between atoms: C_2  and  C_4
REMARK    4  A    between atoms: C_4  and  C_5
REMARK    5  A    between atoms: C_5  and  N_6
REMARK    6  A    between atoms: C_9  and  C_10
REMARK    7  A    between atoms: C_22  and  O_23
REMARK                            x       y       z     vdW  Elec       q    Type
REMARK                         _______ _______ _______ _____ _____    ______ ____
ROOT
ATOM      1  N   UNL     1       7.670   3.231  24.170  0.00  0.00    -0.307 N 
ATOM      2  C   UNL     1       8.996   3.737  23.946  0.00  0.00    +0.056 A 
ATOM      3  C   UNL     1      10.051   2.822  23.781  0.00  0.00    +0.041 A 
ATOM      4  C   UNL     1      11.357   3.292  23.537  0.00  0.00    +0.013 A 
ATOM      5  C   UNL     1      11.625   4.652  23.424  0.00  0.00    +0.001 A 
ATOM      6  C   UNL     1      10.591   5.560  23.580  0.00  0.00    +0.002 A 
ATOM      7  C   UNL     1       9.785   1.377  23.807  0.00  0.00    +0.146 A 
ATOM      8  C   UNL     1       8.538   0.905  23.982  0.00  0.00    +0.174 A 
ATOM      9  C   UNL     1       9.294   5.110  23.856  0.00  0.00    +0.026 A 
ATOM     10  C   UNL     1       7.408   1.860  24.167  0.00  0.00    +0.270 A 
ATOM     11  O   UNL     1       6.276   1.387  24.303  0.00  0.00    -0.267 OA
ENDROOT
BRANCH   8  12
ATOM     12  C   UNL     1       8.261  -0.593  23.983  0.00  0.00    +0.358 C 
ATOM     13  N   UNL     1       7.278  -1.099  23.158  0.00  0.00    -0.196 N 
ATOM     14  H   UNL     1       6.935  -0.490  22.412  0.00  0.00    +0.299 HD
ATOM     15  C   UNL     1       6.886  -2.436  23.112  0.00  0.00    +0.148 A 
ATOM     16  C   UNL     1       7.524  -3.402  23.874  0.00  0.00    +0.179 A 
ATOM     17  C   UNL     1       7.113  -4.739  23.897  0.00  0.00    +0.035 A 
ATOM     18  C   UNL     1       6.008  -5.119  23.143  0.00  0.00    +0.002 A 
ATOM     19  C   UNL     1       5.331  -4.164  22.385  0.00  0.00    +0.004 A 
ATOM     20  S   UNL     1       8.906  -2.910  24.833  0.00  0.00    +0.183 S 
ATOM     21  O   UNL     1       8.603  -3.291  26.201  0.00  0.00    -0.125 OA
ATOM     22  O   UNL     1      10.072  -3.451  24.166  0.00  0.00    -0.125 OA
ATOM     23  C   UNL     1       5.765  -2.832  22.373  0.00  0.00    +0.051 A 
ATOM     24  N   UNL     1       8.999  -1.297  24.792  0.00  0.00    +0.096 NA
ENDBRANCH   8  12
BRANCH   7  25
ATOM     25  O   UNL     1      10.900   0.581  23.605  0.00  0.00    -0.505 OA
ATOM     26  H   UNL     1      11.669   1.165  23.439  0.00  0.00    +0.292 HD
ENDBRANCH   7  25
BRANCH   1  27
ATOM     27  C   UNL     1       6.503   4.122  24.223  0.00  0.00    +0.126 C 
BRANCH  27  28
ATOM     28  C   UNL     1       5.985   4.566  22.845  0.00  0.00    +0.024 C 
BRANCH  28  30
ATOM     29  C   UNL     1       5.901   6.731  24.114  0.00  0.00    +0.007 C 
ATOM     30  C   UNL     1       5.822   6.094  22.724  0.00  0.00    -0.016 C 
ATOM     31  C   UNL     1       6.868   6.725  21.805  0.00  0.00    +0.007 C 
ENDBRANCH  28  30
ENDBRANCH  27  28
ENDBRANCH   1  27
TORSDOF 5
ENDMDL
MODEL 2
REMARK VINA RESULT:      -7.2      1.844      3.320
REMARK  Name = 
REMARK  7 active torsions:
REMARK  status: ('A' for Active; 'I' for Inactive)
REMARK    1  A    between atoms: C_1  and  C_2
REMARK    2  A    between atoms: C_2  and  C_3
REMARK    3  A    between atoms: C_2  and  C_4
REMARK    4  A    between atoms: C_4  and  C_5
REMARK    5  A    between atoms: C_5  and  N_6
REMARK    6  A    between atoms: C_9  and  C_10
REMARK    7  A    between atoms: C_22  and  O_23
REMARK                            x       y       z     vdW  Elec       q    Type
REMARK                         _______ _______ _______ _____ _____    ______ ____
ROOT
ATOM      1  N   UNL     1       8.598   2.512  23.999  0.00  0.00    -0.307 N 
ATOM      2  C   UNL     1       7.990   2.990  25.210  0.00  0.00    +0.056 A 
ATOM      3  C   UNL     1       7.359   2.065  26.062  0.00  0.00    +0.041 A 
ATOM      4  C   UNL     1       6.775   2.504  27.267  0.00  0.00    +0.013 A 
ATOM      5  C   UNL     1       6.836   3.839  27.653  0.00  0.00    +0.001 A 
ATOM      6  C   UNL     1       7.460   4.756  26.823  0.00  0.00    +0.002 A 
ATOM      7  C   UNL     1       7.355   0.635  25.724  0.00  0.00    +0.146 A 
ATOM      8  C   UNL     1       7.955   0.185  24.608  0.00  0.00    +0.174 A 
ATOM      9  C   UNL     1       8.015   4.340  25.607  0.00  0.00    +0.026 A 
ATOM     10  C   UNL     1       8.621   1.151  23.689  0.00  0.00    +0.270 A 
ATOM     11  O   UNL     1       9.178   0.696  22.686  0.00  0.00    -0.267 OA
ENDROOT
BRANCH   8  12
ATOM     12  C   UNL     1       7.972  -1.301  24.274  0.00  0.00    +0.358 C 
ATOM     13  N   UNL     1       7.276  -1.754  23.172  0.00  0.00    -0.196 N 
ATOM     14  H   UNL     1       6.969  -1.054  22.492  0.00  0.00    +0.299 HD
ATOM     15  C   UNL     1       7.160  -3.091  22.796  0.00  0.00    +0.148 A 
ATOM     16  C   UNL     1       7.814  -4.096  23.492  0.00  0.00    +0.179 A 
ATOM     17  C   UNL     1       7.667  -5.451  23.177  0.00  0.00    +0.035 A 
ATOM     18  C   UNL     1       6.816  -5.815  22.140  0.00  0.00    +0.002 A 
ATOM     19  C   UNL     1       6.125  -4.828  21.438  0.00  0.00    +0.004 A 
ATOM     20  S   UNL     1       8.873  -3.627  24.808  0.00  0.00    +0.183 S 
ATOM     21  O   UNL     1       8.396  -4.338  25.980  0.00  0.00    -0.125 OA
ATOM     22  O   UNL     1      10.225  -3.832  24.329  0.00  0.00    -0.125 OA
ATOM     23  C   UNL     1       6.293  -3.477  21.767  0.00  0.00    +0.051 A 
ATOM     24  N   UNL     1       8.665  -2.049  25.084  0.00  0.00    +0.096 NA
ENDBRANCH   8  12
BRANCH   7  25
ATOM     25  O   UNL     1       6.729  -0.176  26.655  0.00  0.00    -0.505 OA
ATOM     26  H   UNL     1       7.396  -0.787  27.031  0.00  0.00    +0.292 HD
ENDBRANCH   7  25
BRANCH   1  27
ATOM     27  C   UNL     1       9.382   3.398  23.128  0.00  0.00    +0.126 C 
BRANCH  27  28
ATOM     28  C   UNL     1      10.845   3.577  23.565  0.00  0.00    +0.024 C 
BRANCH  28  30
ATOM     29  C   UNL     1      10.829   6.020  24.146  0.00  0.00    +0.007 C 
ATOM     30  C   UNL     1      11.417   4.963  23.207  0.00  0.00    -0.016 C 
ATOM     31  C   UNL     1      12.944   5.003  23.275  0.00  0.00    +0.007 C 
ENDBRANCH  28  30
ENDBRANCH  27  28
ENDBRANCH   1  27
TORSDOF 5
ENDMDL
MODEL 3
REMARK VINA RESULT:      -7.1      3.015      8.554
REMARK  Name = 
REMARK  7 active torsions:
REMARK  status: ('A' for Active; 'I' for Inactive)
REMARK    1  A    between atoms: C_1  and  C_2
REMARK    2  A    between atoms: C_2  and  C_3
REMARK    3  A    between atoms: C_2  and  C_4
REMARK    4  A    between atoms: C_4  and  C_5
REMARK    5  A    between atoms: C_5  and  N_6
REMARK    6  A    between atoms: C_9  and  C_10
REMARK    7  A    between atoms: C_22  and  O_23
REMARK                            x       y       z     vdW  Elec       q    Type
REMARK                         _______ _______ _______ _____ _____    ______ ____
ROOT
ATOM      1  N   UNL     1       5.211  -5.272  24.223  0.00  0.00    -0.307 N 
ATOM      2  C   UNL     1       5.371  -5.650  25.600  0.00  0.00    +0.056 A 
ATOM      3  C   UNL     1       6.280  -4.933  26.398  0.00  0.00    +0.041 A 
ATOM      4  C   UNL     1       6.440  -5.268  27.758  0.00  0.00    +0.013 A 
ATOM      5  C   UNL     1       5.689  -6.282  28.343  0.00  0.00    +0.001 A 
ATOM      6  C   UNL     1       4.787  -6.991  27.566  0.00  0.00    +0.002 A 
ATOM      7  C   UNL     1       7.024  -3.798  25.831  0.00  0.00    +0.146 A 
ATOM      8  C   UNL     1       6.847  -3.424  24.552  0.00  0.00    +0.174 A 
ATOM      9  C   UNL     1       4.643  -6.692  26.206  0.00  0.00    +0.026 A 
ATOM     10  C   UNL     1       5.893  -4.178  23.689  0.00  0.00    +0.270 A 
ATOM     11  O   UNL     1       5.744  -3.789  22.527  0.00  0.00    -0.267 OA
ENDROOT
BRANCH   8  12
ATOM     12  C   UNL     1       7.599  -2.232  23.975  0.00  0.00    +0.358 C 
ATOM     13  N   UNL     1       6.904  -1.084  23.655  0.00  0.00    -0.196 N 
ATOM     14  H   UNL     1       5.957  -0.991  24.031  0.00  0.00    +0.299 HD
ATOM     15  C   UNL     1       7.462   0.048  23.064  0.00  0.00    +0.148 A 
ATOM     16  C   UNL     1       8.821   0.130  22.803  0.00  0.00    +0.179 A 
ATOM     17  C   UNL     1       9.400   1.226  22.153  0.00  0.00    +0.035 A 
ATOM     18  C   UNL     1       8.584   2.269  21.732  0.00  0.00    +0.002 A 
ATOM     19  C   UNL     1       7.210   2.204  21.959  0.00  0.00    +0.004 A 
ATOM     20  S   UNL     1       9.839  -1.198  23.325  0.00  0.00    +0.183 S 
ATOM     21  O   UNL     1      10.535  -1.662  22.138  0.00  0.00    -0.125 OA
ATOM     22  O   UNL     1      10.586  -0.708  24.465  0.00  0.00    -0.125 OA
ATOM     23  C   UNL     1       6.653   1.099  22.616  0.00  0.00    +0.051 A 
ATOM     24  N   UNL     1       8.881  -2.401  23.823  0.00  0.00    +0.096 NA
ENDBRANCH   8  12
BRANCH   7  25
ATOM     25  O   UNL     1       7.865  -3.156  26.724  0.00  0.00    -0.505 OA
ATOM     26  H   UNL     1       8.786  -3.254  26.404  0.00  0.00    +0.292 HD
ENDBRANCH   7  25
BRANCH   1  27
ATOM     27  C   UNL     1       4.190  -5.892  23.367  0.00  0.00    +0.126 C 
BRANCH  27  28
ATOM     28  C   UNL     1       2.839  -5.157  23.365  0.00  0.00    +0.024 C 
BRANCH  28  30
ATOM     29  C   UNL     1       0.502  -5.777  22.687  0.00  0.00    +0.007 C 
ATOM     30  C   UNL     1       1.645  -6.087  23.657  0.00  0.00    -0.016 C 
ATOM     31  C   UNL     1       2.017  -7.567  23.562  0.00  0.00    +0.007 C 
ENDBRANCH  28  30
ENDBRANCH  27  28
ENDBRANCH   1  27
TORSDOF 5
ENDMDL
MODEL 4
REMARK VINA RESULT:      -6.9      2.090      4.163
REMARK  Name = 
REMARK  7 active torsions:
REMARK  status: ('A' for Active; 'I' for Inactive)
REMARK    1  A    between atoms: C_1  and  C_2
REMARK    2  A    between atoms: C_2  and  C_3
REMARK    3  A    between atoms: C_2  and  C_4
REMARK    4  A    between atoms: C_4  and  C_5
REMARK    5  A    between atoms: C_5  and  N_6
REMARK    6  A    between atoms: C_9  and  C_10
REMARK    7  A    between atoms: C_22  and  O_23
REMARK                            x       y       z     vdW  Elec       q    Type
REMARK                         _______ _______ _______ _____ _____    ______ ____
ROOT
ATOM      1  N   UNL     1       7.596   0.947  22.405  0.00  0.00    -0.307 N 
ATOM      2  C   UNL     1       6.899   2.084  22.942  0.00  0.00    +0.056 A 
ATOM      3  C   UNL     1       5.963   1.879  23.971  0.00  0.00    +0.041 A 
ATOM      4  C   UNL     1       5.282   2.978  24.532  0.00  0.00    +0.013 A 
ATOM      5  C   UNL     1       5.541   4.278  24.109  0.00  0.00    +0.001 A 
ATOM      6  C   UNL     1       6.465   4.489  23.099  0.00  0.00    +0.002 A 
ATOM      7  C   UNL     1       5.732   0.527  24.501  0.00  0.00    +0.146 A 
ATOM      8  C   UNL     1       6.411  -0.530  24.021  0.00  0.00    +0.174 A 
ATOM      9  C   UNL     1       7.124   3.404  22.509  0.00  0.00    +0.026 A 
ATOM     10  C   UNL     1       7.401  -0.333  22.924  0.00  0.00    +0.270 A 
ATOM     11  O   UNL     1       8.018  -1.326  22.526  0.00  0.00    -0.267 OA
ENDROOT
BRANCH   8  12
ATOM     12  C   UNL     1       6.189  -1.926  24.589  0.00  0.00    +0.358 C 
ATOM     13  N   UNL     1       5.709  -2.922  23.765  0.00  0.00    -0.196 N 
ATOM     14  H   UNL     1       5.741  -2.752  22.757  0.00  0.00    +0.299 HD
ATOM     15  C   UNL     1       5.404  -4.219  24.176  0.00  0.00    +0.148 A 
ATOM     16  C   UNL     1       5.631  -4.636  25.479  0.00  0.00    +0.179 A 
ATOM     17  C   UNL     1       5.277  -5.909  25.936  0.00  0.00    +0.035 A 
ATOM     18  C   UNL     1       4.654  -6.792  25.062  0.00  0.00    +0.002 A 
ATOM     19  C   UNL     1       4.391  -6.393  23.752  0.00  0.00    +0.004 A 
ATOM     20  S   UNL     1       6.403  -3.509  26.578  0.00  0.00    +0.183 S 
ATOM     21  O   UNL     1       5.507  -3.375  27.712  0.00  0.00    -0.125 OA
ATOM     22  O   UNL     1       7.754  -3.996  26.768  0.00  0.00    -0.125 OA
ATOM     23  C   UNL     1       4.759  -5.114  23.314  0.00  0.00    +0.051 A 
ATOM     24  N   UNL     1       6.479  -2.068  25.851  0.00  0.00    +0.096 NA
ENDBRANCH   8  12
BRANCH   7  25
ATOM     25  O   UNL     1       4.809   0.460  25.530  0.00  0.00    -0.505 OA
ATOM     26  H   UNL     1       4.272   1.280  25.516  0.00  0.00    +0.292 HD
ENDBRANCH   7  25
BRANCH   1  27
ATOM     27  C   UNL     1       8.676   1.100  21.420  0.00  0.00    +0.126 C 
BRANCH  27  28
ATOM     28  C   UNL     1      10.087   1.114  22.031  0.00  0.00    +0.024 C 
BRANCH  28  30
ATOM     29  C   UNL     1      10.862   0.844  24.404  0.00  0.00    +0.007 C 
ATOM     30  C   UNL     1      10.135   1.770  23.425  0.00  0.00    -0.016 C 
ATOM     31  C   UNL     1      10.816   3.139  23.406  0.00  0.00    +0.007 C 
ENDBRANCH  28  30
ENDBRANCH  27  28
ENDBRANCH   1  27
TORSDOF 5
ENDMDL
MODEL 5
REMARK VINA RESULT:      -6.9      1.912      2.958
REMARK  Name = 
REMARK  7 active torsions:
REMARK  status: ('A' for Active; 'I' for Inactive)
REMARK    1  A    between atoms: C_1  and  C_2
REMARK    2  A    between atoms: C_2  and  C_3
REMARK    3  A    between atoms: C_2  and  C_4
REMARK    4  A    between atoms: C_4  and  C_5
REMARK    5  A    between atoms: C_5  and  N_6
REMARK    6  A    between atoms: C_9  and  C_10
REMARK    7  A    between atoms: C_22  and  O_23
REMARK                            x       y       z     vdW  Elec       q    Type
REMARK                         _______ _______ _______ _____ _____    ______ ____
ROOT
ATOM      1  N   UNL     1       8.053   2.268  24.345  0.00  0.00    -0.307 N 
ATOM      2  C   UNL     1       7.563   2.618  25.649  0.00  0.00    +0.056 A 
ATOM      3  C   UNL     1       7.117   1.592  26.503  0.00  0.00    +0.041 A 
ATOM      4  C   UNL     1       6.652   1.906  27.796  0.00  0.00    +0.013 A 
ATOM      5  C   UNL     1       6.653   3.216  28.264  0.00  0.00    +0.001 A 
ATOM      6  C   UNL     1       7.095   4.231  27.432  0.00  0.00    +0.002 A 
ATOM      7  C   UNL     1       7.185   0.189  26.069  0.00  0.00    +0.146 A 
ATOM      8  C   UNL     1       7.678  -0.139  24.862  0.00  0.00    +0.174 A 
ATOM      9  C   UNL     1       7.528   3.939  26.133  0.00  0.00    +0.026 A 
ATOM     10  C   UNL     1       8.147   0.935  23.941  0.00  0.00    +0.270 A 
ATOM     11  O   UNL     1       8.611   0.590  22.849  0.00  0.00    -0.267 OA
ENDROOT
BRANCH   8  12
ATOM     12  C   UNL     1       7.772  -1.595  24.425  0.00  0.00    +0.358 C 
ATOM     13  N   UNL     1       7.127  -1.999  23.274  0.00  0.00    -0.196 N 
ATOM     14  H   UNL     1       6.807  -1.266  22.636  0.00  0.00    +0.299 HD
ATOM     15  C   UNL     1       7.082  -3.309  22.803  0.00  0.00    +0.148 A 
ATOM     16  C   UNL     1       7.763  -4.332  23.446  0.00  0.00    +0.179 A 
ATOM     17  C   UNL     1       7.687  -5.666  23.033  0.00  0.00    +0.035 A 
ATOM     18  C   UNL     1       6.882  -5.993  21.948  0.00  0.00    +0.002 A 
ATOM     19  C   UNL     1       6.165  -4.990  21.296  0.00  0.00    +0.004 A 
ATOM     20  S   UNL     1       8.764  -3.911  24.823  0.00  0.00    +0.183 S 
ATOM     21  O   UNL     1       8.289  -4.724  25.928  0.00  0.00    -0.125 OA
ATOM     22  O   UNL     1      10.136  -4.023  24.371  0.00  0.00    -0.125 OA
ATOM     23  C   UNL     1       6.262  -3.659  21.723  0.00  0.00    +0.051 A 
ATOM     24  N   UNL     1       8.476  -2.367  25.202  0.00  0.00    +0.096 NA
ENDBRANCH   8  12
BRANCH   7  25
ATOM     25  O   UNL     1       6.744  -0.727  27.008  0.00  0.00    -0.505 OA
ATOM     26  H   UNL     1       6.046  -1.278  26.597  0.00  0.00    +0.292 HD
ENDBRANCH   7  25
BRANCH   1  27
ATOM     27  C   UNL     1       8.652   3.269  23.452  0.00  0.00    +0.126 C 
BRANCH  27  28
ATOM     28  C   UNL     1       7.631   4.057  22.614  0.00  0.00    +0.024 C 
BRANCH  28  30
ATOM     29  C   UNL     1       9.015   5.993  23.415  0.00  0.00    +0.007 C 
ATOM     30  C   UNL     1       7.628   5.566  22.929  0.00  0.00    -0.016 C 
ATOM     31  C   UNL     1       7.217   6.415  21.725  0.00  0.00    +0.007 C 
ENDBRANCH  28  30
ENDBRANCH  27  28
ENDBRANCH   1  27
TORSDOF 5
ENDMDL
MODEL 6
REMARK VINA RESULT:      -6.9      3.158      8.786
REMARK  Name = 
REMARK  7 active torsions:
REMARK  status: ('A' for Active; 'I' for Inactive)
REMARK    1  A    between atoms: C_1  and  C_2
REMARK    2  A    between atoms: C_2  and  C_3
REMARK    3  A    between atoms: C_2  and  C_4
REMARK    4  A    between atoms: C_4  and  C_5
REMARK    5  A    between atoms: C_5  and  N_6
REMARK    6  A    between atoms: C_9  and  C_10
REMARK    7  A    between atoms: C_22  and  O_23
REMARK                            x       y       z     vdW  Elec       q    Type
REMARK                         _______ _______ _______ _____ _____    ______ ____
ROOT
ATOM      1  N   UNL     1       6.247  -4.963  25.976  0.00  0.00    -0.307 N 
ATOM      2  C   UNL     1       5.193  -5.435  25.121  0.00  0.00    +0.056 A 
ATOM      3  C   UNL     1       4.982  -4.792  23.888  0.00  0.00    +0.041 A 
ATOM      4  C   UNL     1       3.969  -5.249  23.021  0.00  0.00    +0.013 A 
ATOM      5  C   UNL     1       3.187  -6.353  23.344  0.00  0.00    +0.001 A 
ATOM      6  C   UNL     1       3.393  -6.996  24.554  0.00  0.00    +0.002 A 
ATOM      7  C   UNL     1       5.849  -3.678  23.479  0.00  0.00    +0.146 A 
ATOM      8  C   UNL     1       6.857  -3.260  24.265  0.00  0.00    +0.174 A 
ATOM      9  C   UNL     1       4.371  -6.532  25.441  0.00  0.00    +0.026 A 
ATOM     10  C   UNL     1       7.091  -3.925  25.578  0.00  0.00    +0.270 A 
ATOM     11  O   UNL     1       8.040  -3.525  26.260  0.00  0.00    -0.267 OA
ENDROOT
BRANCH   8  12
ATOM     12  C   UNL     1       7.771  -2.123  23.826  0.00  0.00    +0.358 C 
ATOM     13  N   UNL     1       7.843  -0.979  24.595  0.00  0.00    -0.196 N 
ATOM     14  H   UNL     1       7.464  -1.029  25.544  0.00  0.00    +0.299 HD
ATOM     15  C   UNL     1       8.588   0.153  24.272  0.00  0.00    +0.148 A 
ATOM     16  C   UNL     1       9.394   0.190  23.144  0.00  0.00    +0.179 A 
ATOM     17  C   UNL     1      10.103   1.333  22.760  0.00  0.00    +0.035 A 
ATOM     18  C   UNL     1       9.986   2.489  23.523  0.00  0.00    +0.002 A 
ATOM     19  C   UNL     1       9.164   2.490  24.650  0.00  0.00    +0.004 A 
ATOM     20  S   UNL     1       9.522  -1.269  22.180  0.00  0.00    +0.183 S 
ATOM     21  O   UNL     1       9.131  -0.896  20.833  0.00  0.00    -0.125 OA
ATOM     22  O   UNL     1      10.844  -1.804  22.435  0.00  0.00    -0.125 OA
ATOM     23  C   UNL     1       8.467   1.331  25.019  0.00  0.00    +0.051 A 
ATOM     24  N   UNL     1       8.431  -2.329  22.723  0.00  0.00    +0.096 NA
ENDBRANCH   8  12
BRANCH   7  25
ATOM     25  O   UNL     1       5.558  -3.148  22.234  0.00  0.00    -0.505 OA
ATOM     26  H   UNL     1       5.159  -3.853  21.683  0.00  0.00    +0.292 HD
ENDBRANCH   7  25
BRANCH   1  27
ATOM     27  C   UNL     1       6.608  -5.665  27.216  0.00  0.00    +0.126 C 
BRANCH  27  28
ATOM     28  C   UNL     1       5.986  -5.060  28.485  0.00  0.00    +0.024 C 
BRANCH  28  30
ATOM     29  C   UNL     1       4.772  -6.068  30.438  0.00  0.00    +0.007 C 
ATOM     30  C   UNL     1       4.703  -5.787  28.935  0.00  0.00    -0.016 C 
ATOM     31  C   UNL     1       3.436  -4.994  28.615  0.00  0.00    +0.007 C 
ENDBRANCH  28  30
ENDBRANCH  27  28
ENDBRANCH   1  27
TORSDOF 5
ENDMDL
MODEL 7
REMARK VINA RESULT:      -6.7      2.575      8.318
REMARK  Name = 
REMARK  7 active torsions:
REMARK  status: ('A' for Active; 'I' for Inactive)
REMARK    1  A    between atoms: C_1  and  C_2
REMARK    2  A    between atoms: C_2  and  C_3
REMARK    3  A    between atoms: C_2  and  C_4
REMARK    4  A    between atoms: C_4  and  C_5
REMARK    5  A    between atoms: C_5  and  N_6
REMARK    6  A    between atoms: C_9  and  C_10
REMARK    7  A    between atoms: C_22  and  O_23
REMARK                            x       y       z     vdW  Elec       q    Type
REMARK                         _______ _______ _______ _____ _____    ______ ____
ROOT
ATOM      1  N   UNL     1       6.124  -3.536  25.415  0.00  0.00    -0.307 N 
ATOM      2  C   UNL     1       6.131  -4.353  24.232  0.00  0.00    +0.056 A 
ATOM      3  C   UNL     1       6.732  -3.848  23.065  0.00  0.00    +0.041 A 
ATOM      4  C   UNL     1       6.773  -4.637  21.897  0.00  0.00    +0.013 A 
ATOM      5  C   UNL     1       6.256  -5.928  21.882  0.00  0.00    +0.001 A 
ATOM      6  C   UNL     1       5.667  -6.435  23.028  0.00  0.00    +0.002 A 
ATOM      7  C   UNL     1       7.366  -2.522  23.075  0.00  0.00    +0.146 A 
ATOM      8  C   UNL     1       7.389  -1.774  24.192  0.00  0.00    +0.174 A 
ATOM      9  C   UNL     1       5.589  -5.651  24.185  0.00  0.00    +0.026 A 
ATOM     10  C   UNL     1       6.750  -2.289  25.437  0.00  0.00    +0.270 A 
ATOM     11  O   UNL     1       6.811  -1.581  26.446  0.00  0.00    -0.267 OA
ENDROOT
BRANCH   8  12
ATOM     12  C   UNL     1       8.069  -0.411  24.207  0.00  0.00    +0.358 C 
ATOM     13  N   UNL     1       7.464   0.639  24.868  0.00  0.00    -0.196 N 
ATOM     14  H   UNL     1       6.706   0.410  25.515  0.00  0.00    +0.299 HD
ATOM     15  C   UNL     1       7.949   1.945  24.902  0.00  0.00    +0.148 A 
ATOM     16  C   UNL     1       9.154   2.284  24.306  0.00  0.00    +0.179 A 
ATOM     17  C   UNL     1       9.635   3.597  24.269  0.00  0.00    +0.035 A 
ATOM     18  C   UNL     1       8.872   4.612  24.833  0.00  0.00    +0.002 A 
ATOM     19  C   UNL     1       7.643   4.306  25.418  0.00  0.00    +0.004 A 
ATOM     20  S   UNL     1      10.102   0.998  23.585  0.00  0.00    +0.183 S 
ATOM     21  O   UNL     1      10.321   1.386  22.203  0.00  0.00    -0.125 OA
ATOM     22  O   UNL     1      11.229   0.784  24.470  0.00  0.00    -0.125 OA
ATOM     23  C   UNL     1       7.184   2.983  25.449  0.00  0.00    +0.051 A 
ATOM     24  N   UNL     1       9.203  -0.345  23.572  0.00  0.00    +0.096 NA
ENDBRANCH   8  12
BRANCH   7  25
ATOM     25  O   UNL     1       7.947  -2.150  21.875  0.00  0.00    -0.505 OA
ATOM     26  H   UNL     1       8.325  -2.951  21.454  0.00  0.00    +0.292 HD
ENDBRANCH   7  25
BRANCH   1  27
ATOM     27  C   UNL     1       5.630  -4.046  26.701  0.00  0.00    +0.126 C 
BRANCH  27  28
ATOM     28  C   UNL     1       6.669  -4.846  27.503  0.00  0.00    +0.024 C 
BRANCH  28  30
ATOM     29  C   UNL     1       5.533  -5.438  29.662  0.00  0.00    +0.007 C 
ATOM     30  C   UNL     1       6.046  -5.988  28.330  0.00  0.00    -0.016 C 
ATOM     31  C   UNL     1       4.911  -6.696  27.590  0.00  0.00    +0.007 C 
ENDBRANCH  28  30
ENDBRANCH  27  28
ENDBRANCH   1  27
TORSDOF 5
ENDMDL
MODEL 8
REMARK VINA RESULT:      -6.7      2.517      8.147
REMARK  Name = 
REMARK  7 active torsions:
REMARK  status: ('A' for Active; 'I' for Inactive)
REMARK    1  A    between atoms: C_1  and  C_2
REMARK    2  A    between atoms: C_2  and  C_3
REMARK    3  A    between atoms: C_2  and  C_4
REMARK    4  A    between atoms: C_4  and  C_5
REMARK    5  A    between atoms: C_5  and  N_6
REMARK    6  A    between atoms: C_9  and  C_10
REMARK    7  A    between atoms: C_22  and  O_23
REMARK                            x       y       z     vdW  Elec       q    Type
REMARK                         _______ _______ _______ _____ _____    ______ ____
ROOT
ATOM      1  N   UNL     1       5.074  -3.132  24.453  0.00  0.00    -0.307 N 
ATOM      2  C   UNL     1       5.625  -4.161  23.616  0.00  0.00    +0.056 A 
ATOM      3  C   UNL     1       6.628  -3.817  22.691  0.00  0.00    +0.041 A 
ATOM      4  C   UNL     1       7.202  -4.812  21.874  0.00  0.00    +0.013 A 
ATOM      5  C   UNL     1       6.818  -6.144  21.982  0.00  0.00    +0.001 A 
ATOM      6  C   UNL     1       5.834  -6.492  22.893  0.00  0.00    +0.002 A 
ATOM      7  C   UNL     1       7.119  -2.434  22.615  0.00  0.00    +0.146 A 
ATOM      8  C   UNL     1       6.626  -1.479  23.424  0.00  0.00    +0.174 A 
ATOM      9  C   UNL     1       5.231  -5.510  23.688  0.00  0.00    +0.026 A 
ATOM     10  C   UNL     1       5.557  -1.823  24.404  0.00  0.00    +0.270 A 
ATOM     11  O   UNL     1       5.147  -0.923  25.142  0.00  0.00    -0.267 OA
ENDROOT
BRANCH   8  12
ATOM     12  C   UNL     1       7.154  -0.051  23.361  0.00  0.00    +0.358 C 
ATOM     13  N   UNL     1       6.261   0.995  23.250  0.00  0.00    -0.196 N 
ATOM     14  H   UNL     1       5.279   0.794  23.449  0.00  0.00    +0.299 HD
ATOM     15  C   UNL     1       6.617   2.336  23.120  0.00  0.00    +0.148 A 
ATOM     16  C   UNL     1       7.943   2.739  23.157  0.00  0.00    +0.179 A 
ATOM     17  C   UNL     1       8.335   4.068  22.966  0.00  0.00    +0.035 A 
ATOM     18  C   UNL     1       7.363   5.027  22.707  0.00  0.00    +0.002 A 
ATOM     19  C   UNL     1       6.022   4.649  22.639  0.00  0.00    +0.004 A 
ATOM     20  S   UNL     1       9.162   1.518  23.470  0.00  0.00    +0.183 S 
ATOM     21  O   UNL     1      10.092   1.584  22.357  0.00  0.00    -0.125 OA
ATOM     22  O   UNL     1       9.625   1.749  24.823  0.00  0.00    -0.125 OA
ATOM     23  C   UNL     1       5.653   3.312  22.840  0.00  0.00    +0.051 A 
ATOM     24  N   UNL     1       8.449   0.069  23.416  0.00  0.00    +0.096 NA
ENDBRANCH   8  12
BRANCH   7  25
ATOM     25  O   UNL     1       8.125  -2.229  21.688  0.00  0.00    -0.505 OA
ATOM     26  H   UNL     1       7.765  -2.411  20.795  0.00  0.00    +0.292 HD
ENDBRANCH   7  25
BRANCH   1  27
ATOM     27  C   UNL     1       4.118  -3.440  25.525  0.00  0.00    +0.126 C 
BRANCH  27  28
ATOM     28  C   UNL     1       4.765  -3.979  26.811  0.00  0.00    +0.024 C 
BRANCH  28  30
ATOM     29  C   UNL     1       2.822  -5.544  26.529  0.00  0.00    +0.007 C 
ATOM     30  C   UNL     1       4.099  -5.270  27.328  0.00  0.00    -0.016 C 
ATOM     31  C   UNL     1       5.029  -6.481  27.250  0.00  0.00    +0.007 C 
ENDBRANCH  28  30
ENDBRANCH  27  28
ENDBRANCH   1  27
TORSDOF 5
ENDMDL
MODEL 9
REMARK VINA RESULT:      -6.5      2.542      8.058
REMARK  Name = 
REMARK  7 active torsions:
REMARK  status: ('A' for Active; 'I' for Inactive)
REMARK    1  A    between atoms: C_1  and  C_2
REMARK    2  A    between atoms: C_2  and  C_3
REMARK    3  A    between atoms: C_2  and  C_4
REMARK    4  A    between atoms: C_4  and  C_5
REMARK    5  A    between atoms: C_5  and  N_6
REMARK    6  A    between atoms: C_9  and  C_10
REMARK    7  A    between atoms: C_22  and  O_23
REMARK                            x       y       z     vdW  Elec       q    Type
REMARK                         _______ _______ _______ _____ _____    ______ ____
ROOT
ATOM      1  N   UNL     1       5.140  -3.130  24.535  0.00  0.00    -0.307 N 
ATOM      2  C   UNL     1       5.711  -4.146  23.695  0.00  0.00    +0.056 A 
ATOM      3  C   UNL     1       6.683  -3.774  22.748  0.00  0.00    +0.041 A 
ATOM      4  C   UNL     1       7.277  -4.754  21.927  0.00  0.00    +0.013 A 
ATOM      5  C   UNL     1       6.943  -6.098  22.054  0.00  0.00    +0.001 A 
ATOM      6  C   UNL     1       5.991  -6.474  22.986  0.00  0.00    +0.002 A 
ATOM      7  C   UNL     1       7.121  -2.374  22.652  0.00  0.00    +0.146 A 
ATOM      8  C   UNL     1       6.610  -1.431  23.463  0.00  0.00    +0.174 A 
ATOM      9  C   UNL     1       5.368  -5.508  23.785  0.00  0.00    +0.026 A 
ATOM     10  C   UNL     1       5.573  -1.806  24.466  0.00  0.00    +0.270 A 
ATOM     11  O   UNL     1       5.145  -0.915  25.206  0.00  0.00    -0.267 OA
ENDROOT
BRANCH   8  12
ATOM     12  C   UNL     1       7.084   0.014  23.378  0.00  0.00    +0.358 C 
ATOM     13  N   UNL     1       6.152   1.027  23.290  0.00  0.00    -0.196 N 
ATOM     14  H   UNL     1       5.183   0.792  23.518  0.00  0.00    +0.299 HD
ATOM     15  C   UNL     1       6.455   2.379  23.143  0.00  0.00    +0.148 A 
ATOM     16  C   UNL     1       7.767   2.829  23.141  0.00  0.00    +0.179 A 
ATOM     17  C   UNL     1       8.104   4.170  22.933  0.00  0.00    +0.035 A 
ATOM     18  C   UNL     1       7.092   5.093  22.698  0.00  0.00    +0.002 A 
ATOM     19  C   UNL     1       5.764   4.667  22.671  0.00  0.00    +0.004 A 
ATOM     20  S   UNL     1       9.037   1.654  23.422  0.00  0.00    +0.183 S 
ATOM     21  O   UNL     1       9.932   1.748  22.282  0.00  0.00    -0.125 OA
ATOM     22  O   UNL     1       9.531   1.909  24.760  0.00  0.00    -0.125 OA
ATOM     23  C   UNL     1       5.449   3.319  22.887  0.00  0.00    +0.051 A 
ATOM     24  N   UNL     1       8.376   0.181  23.395  0.00  0.00    +0.096 NA
ENDBRANCH   8  12
BRANCH   7  25
ATOM     25  O   UNL     1       8.102  -2.141  21.703  0.00  0.00    -0.505 OA
ATOM     26  H   UNL     1       8.931  -1.904  22.169  0.00  0.00    +0.292 HD
ENDBRANCH   7  25
BRANCH   1  27
ATOM     27  C   UNL     1       4.216  -3.464  25.628  0.00  0.00    +0.126 C 
BRANCH  27  28
ATOM     28  C   UNL     1       2.730  -3.402  25.239  0.00  0.00    +0.024 C 
BRANCH  28  30
ATOM     29  C   UNL     1       1.713  -5.407  24.119  0.00  0.00    +0.007 C 
ATOM     30  C   UNL     1       1.990  -4.735  25.467  0.00  0.00    -0.016 C 
ATOM     31  C   UNL     1       2.769  -5.691  26.371  0.00  0.00    +0.007 C 
ENDBRANCH  28  30
ENDBRANCH  27  28
ENDBRANCH   1  27
TORSDOF 5
ENDMDL
