MODEL 1
REMARK VINA RESULT:      -6.7      0.000      0.000
REMARK  Name = 
REMARK  12 active torsions:
REMARK  status: ('A' for Active; 'I' for Inactive)
REMARK    1  A    between atoms: O_1  and  C_2
REMARK    2  A    between atoms: C_2  and  CA_4
REMARK    3  A    between atoms: CA_4  and  C_20
REMARK    4  A    between atoms: N_5  and  C_6
REMARK    5  A    between atoms: C_6  and  C_8
REMARK    6  A    between atoms: C_8  and  C_10
REMARK    7  A    between atoms: C_8  and  C_12
REMARK    8  A    between atoms: C_10  and  S_11
REMARK    9  A    between atoms: C_12  and  C_13
REMARK   10  A    between atoms: C_13  and  C_14
REMARK   11  A    between atoms: C_23  and  C_24
REMARK   12  A    between atoms: C_24  and  N_25
REMARK                            x       y       z     vdW  Elec       q    Type
REMARK                         _______ _______ _______ _____ _____    ______ ____
ROOT
ATOM      1  CA  UNL     1       8.310  -3.955  25.808  0.00  0.00    +0.154 C 
ATOM      2  N   UNL     1       7.365  -4.057  26.702  0.00  0.00    -0.172 NA
ENDROOT
BRANCH   1   3
ATOM      3  C   UNL     1       8.769  -2.595  25.495  0.00  0.00    +0.043 A 
ATOM      4  S   UNL     1       9.639  -2.314  24.038  0.00  0.00    -0.090 S 
ATOM      5  C   UNL     1       9.744  -0.628  24.316  0.00  0.00    +0.012 A 
ATOM      6  C   UNL     1       9.160  -0.284  25.518  0.00  0.00    +0.014 A 
ATOM      7  C   UNL     1       8.613  -1.414  26.198  0.00  0.00    +0.018 A 
BRANCH   5   8
ATOM      8  C   UNL     1      10.446   0.258  23.330  0.00  0.00    +0.189 C 
BRANCH   8   9
ATOM      9  N   UNL     1       9.541   1.189  22.689  0.00  0.00    -0.227 N 
ATOM     10  N   UNL     1       8.734   0.792  21.689  0.00  0.00    -0.044 NA
ATOM     11  N   UNL     1       7.956   1.836  21.435  0.00  0.00    -0.023 NA
ATOM     12  N   UNL     1       8.251   2.884  22.275  0.00  0.00    -0.117 NA
ATOM     13  C   UNL     1       9.228   2.463  23.046  0.00  0.00    +0.245 A 
ENDBRANCH   8   9
ENDBRANCH   5   8
ENDBRANCH   1   3
BRANCH   1  14
ATOM     14  C   UNL     1       9.025  -5.079  24.984  0.00  0.00    +0.354 C 
ATOM     15  OXT UNL     1       8.532  -5.487  23.943  0.00  0.00    -0.244 OA
BRANCH  14  16
ATOM     16  O   UNL     1      10.171  -5.595  25.427  0.00  0.00    -0.476 OA
ATOM     17  H   UNL     1      10.144  -6.540  25.698  0.00  0.00    +0.295 HD
ENDBRANCH  14  16
ENDBRANCH   1  14
BRANCH   2  18
ATOM     18  C   UNL     1       6.869  -5.226  27.187  0.00  0.00    +0.241 C 
ATOM     19  O   UNL     1       7.540  -6.023  27.836  0.00  0.00    -0.273 OA
BRANCH  18  20
ATOM     20  C   UNL     1       5.395  -5.510  26.926  0.00  0.00    +0.087 C 
BRANCH  20  21
ATOM     21  C   UNL     1       5.135  -6.387  25.692  0.00  0.00    +0.018 C 
BRANCH  21  22
ATOM     22  C   UNL     1       4.201  -5.710  24.681  0.00  0.00    +0.036 C 
BRANCH  22  23
ATOM     23  C   UNL     1       4.969  -4.962  23.623  0.00  0.00    -0.047 A 
ATOM     24  C   UNL     1       5.430  -5.620  22.476  0.00  0.00    +0.003 A 
ATOM     25  C   UNL     1       6.110  -4.914  21.482  0.00  0.00    +0.000 A 
ATOM     26  C   UNL     1       6.332  -3.546  21.625  0.00  0.00    +0.000 A 
ATOM     27  C   UNL     1       5.883  -2.883  22.766  0.00  0.00    +0.000 A 
ATOM     28  C   UNL     1       5.203  -3.586  23.761  0.00  0.00    +0.003 A 
ENDBRANCH  22  23
ENDBRANCH  21  22
ENDBRANCH  20  21
BRANCH  20  29
ATOM     29  C   UNL     1       4.734  -5.959  28.235  0.00  0.00    +0.078 C 
BRANCH  29  30
ATOM     30  S   UNL     1       4.568  -4.660  29.499  0.00  0.00    -0.178 S 
ATOM     31  H   UNL     1       5.013  -5.381  30.539  0.00  0.00    +0.102 HD
ENDBRANCH  29  30
ENDBRANCH  20  29
ENDBRANCH  18  20
ENDBRANCH   2  18
TORSDOF 12
ENDMDL
MODEL 2
REMARK VINA RESULT:      -6.7      1.423      2.036
REMARK  Name = 
REMARK  12 active torsions:
REMARK  status: ('A' for Active; 'I' for Inactive)
REMARK    1  A    between atoms: O_1  and  C_2
REMARK    2  A    between atoms: C_2  and  CA_4
REMARK    3  A    between atoms: CA_4  and  C_20
REMARK    4  A    between atoms: N_5  and  C_6
REMARK    5  A    between atoms: C_6  and  C_8
REMARK    6  A    between atoms: C_8  and  C_10
REMARK    7  A    between atoms: C_8  and  C_12
REMARK    8  A    between atoms: C_10  and  S_11
REMARK    9  A    between atoms: C_12  and  C_13
REMARK   10  A    between atoms: C_13  and  C_14
REMARK   11  A    between atoms: C_23  and  C_24
REMARK   12  A    between atoms: C_24  and  N_25
REMARK                            x       y       z     vdW  Elec       q    Type
REMARK                         _______ _______ _______ _____ _____    ______ ____
ROOT
ATOM      1  CA  UNL     1       8.343  -3.915  25.850  0.00  0.00    +0.154 C 
ATOM      2  N   UNL     1       7.404  -4.009  26.751  0.00  0.00    -0.172 NA
ENDROOT
BRANCH   1   3
ATOM      3  C   UNL     1       8.887  -2.573  25.609  0.00  0.00    +0.043 A 
ATOM      4  S   UNL     1       9.746  -2.260  24.152  0.00  0.00    -0.090 S 
ATOM      5  C   UNL     1       9.969  -0.605  24.530  0.00  0.00    +0.012 A 
ATOM      6  C   UNL     1       9.433  -0.298  25.764  0.00  0.00    +0.014 A 
ATOM      7  C   UNL     1       8.824  -1.430  26.387  0.00  0.00    +0.018 A 
BRANCH   5   8
ATOM      8  C   UNL     1      10.711   0.292  23.583  0.00  0.00    +0.189 C 
BRANCH   8   9
ATOM      9  N   UNL     1       9.817   1.031  22.716  0.00  0.00    -0.227 N 
ATOM     10  N   UNL     1       9.382   0.502  21.559  0.00  0.00    -0.044 NA
ATOM     11  N   UNL     1       8.490   1.367  21.095  0.00  0.00    -0.023 NA
ATOM     12  N   UNL     1       8.344   2.431  21.955  0.00  0.00    -0.117 NA
ATOM     13  C   UNL     1       9.167   2.202  22.952  0.00  0.00    +0.245 A 
ENDBRANCH   8   9
ENDBRANCH   5   8
ENDBRANCH   1   3
BRANCH   1  14
ATOM     14  C   UNL     1       8.973  -5.034  24.950  0.00  0.00    +0.354 C 
ATOM     15  OXT UNL     1       8.439  -5.349  23.897  0.00  0.00    -0.244 OA
BRANCH  14  16
ATOM     16  O   UNL     1      10.090  -5.644  25.342  0.00  0.00    -0.476 OA
ATOM     17  H   UNL     1      10.594  -5.203  26.062  0.00  0.00    +0.295 HD
ENDBRANCH  14  16
ENDBRANCH   1  14
BRANCH   2  18
ATOM     18  C   UNL     1       6.838  -5.170  27.175  0.00  0.00    +0.241 C 
ATOM     19  O   UNL     1       7.439  -6.006  27.842  0.00  0.00    -0.273 OA
BRANCH  18  20
ATOM     20  C   UNL     1       5.373  -5.393  26.818  0.00  0.00    +0.087 C 
BRANCH  20  21
ATOM     21  C   UNL     1       4.530  -4.109  26.805  0.00  0.00    +0.018 C 
BRANCH  21  22
ATOM     22  C   UNL     1       4.012  -3.767  25.402  0.00  0.00    +0.036 C 
BRANCH  22  23
ATOM     23  C   UNL     1       4.848  -2.704  24.740  0.00  0.00    -0.047 A 
ATOM     24  C   UNL     1       5.041  -1.460  25.354  0.00  0.00    +0.003 A 
ATOM     25  C   UNL     1       5.847  -0.492  24.751  0.00  0.00    +0.000 A 
ATOM     26  C   UNL     1       6.467  -0.760  23.533  0.00  0.00    +0.000 A 
ATOM     27  C   UNL     1       6.277  -1.992  22.910  0.00  0.00    +0.000 A 
ATOM     28  C   UNL     1       5.472  -2.961  23.510  0.00  0.00    +0.003 A 
ENDBRANCH  22  23
ENDBRANCH  21  22
ENDBRANCH  20  21
BRANCH  20  29
ATOM     29  C   UNL     1       5.293  -6.277  25.568  0.00  0.00    +0.078 C 
BRANCH  29  30
ATOM     30  S   UNL     1       3.791  -7.297  25.441  0.00  0.00    -0.178 S 
ATOM     31  H   UNL     1       3.528  -7.047  24.148  0.00  0.00    +0.102 HD
ENDBRANCH  29  30
ENDBRANCH  20  29
ENDBRANCH  18  20
ENDBRANCH   2  18
TORSDOF 12
ENDMDL
MODEL 3
REMARK VINA RESULT:      -6.6      3.758      7.964
REMARK  Name = 
REMARK  12 active torsions:
REMARK  status: ('A' for Active; 'I' for Inactive)
REMARK    1  A    between atoms: O_1  and  C_2
REMARK    2  A    between atoms: C_2  and  CA_4
REMARK    3  A    between atoms: CA_4  and  C_20
REMARK    4  A    between atoms: N_5  and  C_6
REMARK    5  A    between atoms: C_6  and  C_8
REMARK    6  A    between atoms: C_8  and  C_10
REMARK    7  A    between atoms: C_8  and  C_12
REMARK    8  A    between atoms: C_10  and  S_11
REMARK    9  A    between atoms: C_12  and  C_13
REMARK   10  A    between atoms: C_13  and  C_14
REMARK   11  A    between atoms: C_23  and  C_24
REMARK   12  A    between atoms: C_24  and  N_25
REMARK                            x       y       z     vdW  Elec       q    Type
REMARK                         _______ _______ _______ _____ _____    ______ ____
ROOT
ATOM      1  CA  UNL     1       7.317   1.208  24.928  0.00  0.00    +0.154 C 
ATOM      2  N   UNL     1       8.164   2.068  25.425  0.00  0.00    -0.172 NA
ENDROOT
BRANCH   1   3
ATOM      3  C   UNL     1       7.483  -0.190  25.349  0.00  0.00    +0.043 A 
ATOM      4  S   UNL     1       6.497  -1.406  24.637  0.00  0.00    -0.090 S 
ATOM      5  C   UNL     1       7.269  -2.667  25.499  0.00  0.00    +0.012 A 
ATOM      6  C   UNL     1       8.239  -2.172  26.346  0.00  0.00    +0.014 A 
ATOM      7  C   UNL     1       8.351  -0.750  26.269  0.00  0.00    +0.018 A 
BRANCH   5   8
ATOM      8  C   UNL     1       6.832  -4.090  25.310  0.00  0.00    +0.189 C 
BRANCH   8   9
ATOM      9  N   UNL     1       6.666  -4.783  26.571  0.00  0.00    -0.227 N 
ATOM     10  N   UNL     1       7.515  -5.759  26.940  0.00  0.00    -0.044 NA
ATOM     11  N   UNL     1       7.164  -6.073  28.181  0.00  0.00    -0.023 NA
ATOM     12  N   UNL     1       6.114  -5.294  28.606  0.00  0.00    -0.117 NA
ATOM     13  C   UNL     1       5.825  -4.500  27.601  0.00  0.00    +0.245 A 
ENDBRANCH   8   9
ENDBRANCH   5   8
ENDBRANCH   1   3
BRANCH   1  14
ATOM     14  C   UNL     1       6.146   1.438  23.914  0.00  0.00    +0.354 C 
ATOM     15  OXT UNL     1       6.379   1.551  22.720  0.00  0.00    -0.244 OA
BRANCH  14  16
ATOM     16  O   UNL     1       4.893   1.518  24.360  0.00  0.00    -0.476 OA
ATOM     17  H   UNL     1       4.306   2.153  23.890  0.00  0.00    +0.295 HD
ENDBRANCH  14  16
ENDBRANCH   1  14
BRANCH   2  18
ATOM     18  C   UNL     1       8.123   3.412  25.225  0.00  0.00    +0.241 C 
ATOM     19  O   UNL     1       7.396   4.164  25.867  0.00  0.00    -0.273 OA
BRANCH  18  20
ATOM     20  C   UNL     1       9.067   3.982  24.174  0.00  0.00    +0.087 C 
BRANCH  20  21
ATOM     21  C   UNL     1      10.236   3.053  23.813  0.00  0.00    +0.018 C 
BRANCH  21  22
ATOM     22  C   UNL     1      10.094   2.457  22.406  0.00  0.00    +0.036 C 
BRANCH  22  23
ATOM     23  C   UNL     1      10.012   0.954  22.440  0.00  0.00    -0.047 A 
ATOM     24  C   UNL     1      10.606   0.229  23.481  0.00  0.00    +0.003 A 
ATOM     25  C   UNL     1      10.495  -1.162  23.525  0.00  0.00    +0.000 A 
ATOM     26  C   UNL     1       9.789  -1.839  22.533  0.00  0.00    +0.000 A 
ATOM     27  C   UNL     1       9.200  -1.128  21.489  0.00  0.00    +0.000 A 
ATOM     28  C   UNL     1       9.310   0.263  21.442  0.00  0.00    +0.003 A 
ENDBRANCH  22  23
ENDBRANCH  21  22
ENDBRANCH  20  21
BRANCH  20  29
ATOM     29  C   UNL     1       8.239   4.526  23.003  0.00  0.00    +0.078 C 
BRANCH  29  30
ATOM     30  S   UNL     1       8.113   6.340  22.927  0.00  0.00    -0.178 S 
ATOM     31  H   UNL     1       7.674   6.529  24.181  0.00  0.00    +0.102 HD
ENDBRANCH  29  30
ENDBRANCH  20  29
ENDBRANCH  18  20
ENDBRANCH   2  18
TORSDOF 12
ENDMDL
MODEL 4
REMARK VINA RESULT:      -6.6      3.196      7.744
REMARK  Name = 
REMARK  12 active torsions:
REMARK  status: ('A' for Active; 'I' for Inactive)
REMARK    1  A    between atoms: O_1  and  C_2
REMARK    2  A    between atoms: C_2  and  CA_4
REMARK    3  A    between atoms: CA_4  and  C_20
REMARK    4  A    between atoms: N_5  and  C_6
REMARK    5  A    between atoms: C_6  and  C_8
REMARK    6  A    between atoms: C_8  and  C_10
REMARK    7  A    between atoms: C_8  and  C_12
REMARK    8  A    between atoms: C_10  and  S_11
REMARK    9  A    between atoms: C_12  and  C_13
REMARK   10  A    between atoms: C_13  and  C_14
REMARK   11  A    between atoms: C_23  and  C_24
REMARK   12  A    between atoms: C_24  and  N_25
REMARK                            x       y       z     vdW  Elec       q    Type
REMARK                         _______ _______ _______ _____ _____    ______ ____
ROOT
ATOM      1  CA  UNL     1       8.462  -3.868  23.915  0.00  0.00    +0.154 C 
ATOM      2  N   UNL     1       8.757  -2.773  23.269  0.00  0.00    -0.172 NA
ENDROOT
BRANCH   1   3
ATOM      3  C   UNL     1       7.236  -4.560  23.500  0.00  0.00    +0.043 A 
ATOM      4  S   UNL     1       5.729  -4.090  24.185  0.00  0.00    -0.090 S 
ATOM      5  C   UNL     1       4.842  -5.197  23.227  0.00  0.00    +0.012 A 
ATOM      6  C   UNL     1       5.679  -5.943  22.423  0.00  0.00    +0.014 A 
ATOM      7  C   UNL     1       7.051  -5.587  22.590  0.00  0.00    +0.018 A 
BRANCH   5   8
ATOM      8  C   UNL     1       3.351  -5.288  23.364  0.00  0.00    +0.189 C 
BRANCH   8   9
ATOM      9  N   UNL     1       2.923  -6.589  23.835  0.00  0.00    -0.227 N 
ATOM     10  N   UNL     1       2.064  -7.336  23.120  0.00  0.00    -0.044 NA
ATOM     11  N   UNL     1       1.999  -8.497  23.757  0.00  0.00    -0.023 NA
ATOM     12  N   UNL     1       2.822  -8.499  24.859  0.00  0.00    -0.117 NA
ATOM     13  C   UNL     1       3.388  -7.315  24.887  0.00  0.00    +0.245 A 
ENDBRANCH   8   9
ENDBRANCH   5   8
ENDBRANCH   1   3
BRANCH   1  14
ATOM     14  C   UNL     1       9.217  -4.555  25.104  0.00  0.00    +0.354 C 
ATOM     15  OXT UNL     1       8.892  -4.318  26.257  0.00  0.00    -0.244 OA
BRANCH  14  16
ATOM     16  O   UNL     1      10.220  -5.395  24.851  0.00  0.00    -0.476 OA
ATOM     17  H   UNL     1      10.342  -6.129  25.494  0.00  0.00    +0.295 HD
ENDBRANCH  14  16
ENDBRANCH   1  14
BRANCH   2  18
ATOM     18  C   UNL     1       9.889  -2.039  23.447  0.00  0.00    +0.241 C 
ATOM     19  O   UNL     1      10.949  -2.294  22.884  0.00  0.00    -0.273 OA
BRANCH  18  20
ATOM     20  C   UNL     1       9.787  -0.828  24.364  0.00  0.00    +0.087 C 
BRANCH  20  21
ATOM     21  C   UNL     1      10.587   0.392  23.881  0.00  0.00    +0.018 C 
BRANCH  21  22
ATOM     22  C   UNL     1      10.093   0.912  22.525  0.00  0.00    +0.036 C 
BRANCH  22  23
ATOM     23  C   UNL     1       9.262   2.159  22.672  0.00  0.00    -0.047 A 
ATOM     24  C   UNL     1       9.680   3.202  23.509  0.00  0.00    +0.003 A 
ATOM     25  C   UNL     1       8.922   4.370  23.613  0.00  0.00    +0.000 A 
ATOM     26  C   UNL     1       7.744   4.506  22.882  0.00  0.00    +0.000 A 
ATOM     27  C   UNL     1       7.316   3.472  22.052  0.00  0.00    +0.000 A 
ATOM     28  C   UNL     1       8.071   2.304  21.946  0.00  0.00    +0.003 A 
ENDBRANCH  22  23
ENDBRANCH  21  22
ENDBRANCH  20  21
BRANCH  20  29
ATOM     29  C   UNL     1       8.313  -0.585  24.710  0.00  0.00    +0.078 C 
BRANCH  29  30
ATOM     30  S   UNL     1       7.877  -0.858  26.456  0.00  0.00    -0.178 S 
ATOM     31  H   UNL     1       6.547  -0.742  26.316  0.00  0.00    +0.102 HD
ENDBRANCH  29  30
ENDBRANCH  20  29
ENDBRANCH  18  20
ENDBRANCH   2  18
TORSDOF 12
ENDMDL
MODEL 5
REMARK VINA RESULT:      -6.5      2.210      3.431
REMARK  Name = 
REMARK  12 active torsions:
REMARK  status: ('A' for Active; 'I' for Inactive)
REMARK    1  A    between atoms: O_1  and  C_2
REMARK    2  A    between atoms: C_2  and  CA_4
REMARK    3  A    between atoms: CA_4  and  C_20
REMARK    4  A    between atoms: N_5  and  C_6
REMARK    5  A    between atoms: C_6  and  C_8
REMARK    6  A    between atoms: C_8  and  C_10
REMARK    7  A    between atoms: C_8  and  C_12
REMARK    8  A    between atoms: C_10  and  S_11
REMARK    9  A    between atoms: C_12  and  C_13
REMARK   10  A    between atoms: C_13  and  C_14
REMARK   11  A    between atoms: C_23  and  C_24
REMARK   12  A    between atoms: C_24  and  N_25
REMARK                            x       y       z     vdW  Elec       q    Type
REMARK                         _______ _______ _______ _____ _____    ______ ____
ROOT
ATOM      1  CA  UNL     1       8.568  -3.618  23.870  0.00  0.00    +0.154 C 
ATOM      2  N   UNL     1       7.615  -3.955  23.046  0.00  0.00    -0.172 NA
ENDROOT
BRANCH   1   3
ATOM      3  C   UNL     1       9.156  -2.286  23.680  0.00  0.00    +0.043 A 
ATOM      4  S   UNL     1       8.840  -1.426  22.224  0.00  0.00    -0.090 S 
ATOM      5  C   UNL     1       9.717  -0.049  22.737  0.00  0.00    +0.012 A 
ATOM      6  C   UNL     1      10.277  -0.249  23.983  0.00  0.00    +0.014 A 
ATOM      7  C   UNL     1       9.965  -1.537  24.516  0.00  0.00    +0.018 A 
BRANCH   5   8
ATOM      8  C   UNL     1       9.834   1.150  21.842  0.00  0.00    +0.189 C 
BRANCH   8   9
ATOM      9  N   UNL     1       8.806   2.134  22.110  0.00  0.00    -0.227 N 
ATOM     10  N   UNL     1       7.622   2.089  21.475  0.00  0.00    -0.044 NA
ATOM     11  N   UNL     1       6.884   3.030  22.047  0.00  0.00    -0.023 NA
ATOM     12  N   UNL     1       7.583   3.661  23.050  0.00  0.00    -0.117 NA
ATOM     13  C   UNL     1       8.765   3.090  23.077  0.00  0.00    +0.245 A 
ENDBRANCH   8   9
ENDBRANCH   5   8
ENDBRANCH   1   3
BRANCH   1  14
ATOM     14  C   UNL     1       9.211  -4.443  25.038  0.00  0.00    +0.354 C 
ATOM     15  OXT UNL     1       8.730  -4.397  26.160  0.00  0.00    -0.244 OA
BRANCH  14  16
ATOM     16  O   UNL     1      10.289  -5.189  24.802  0.00  0.00    -0.476 OA
ATOM     17  H   UNL     1      10.917  -5.291  25.553  0.00  0.00    +0.295 HD
ENDBRANCH  14  16
ENDBRANCH   1  14
BRANCH   2  18
ATOM     18  C   UNL     1       6.892  -5.105  23.112  0.00  0.00    +0.241 C 
ATOM     19  O   UNL     1       7.118  -6.083  22.406  0.00  0.00    -0.273 OA
BRANCH  18  20
ATOM     20  C   UNL     1       5.779  -5.160  24.151  0.00  0.00    +0.087 C 
BRANCH  20  21
ATOM     21  C   UNL     1       5.054  -3.822  24.364  0.00  0.00    +0.018 C 
BRANCH  21  22
ATOM     22  C   UNL     1       5.307  -3.237  25.760  0.00  0.00    +0.036 C 
BRANCH  22  23
ATOM     23  C   UNL     1       5.967  -1.885  25.689  0.00  0.00    -0.047 A 
ATOM     24  C   UNL     1       5.779  -1.055  24.576  0.00  0.00    +0.003 A 
ATOM     25  C   UNL     1       6.364   0.211  24.534  0.00  0.00    +0.000 A 
ATOM     26  C   UNL     1       7.138   0.660  25.601  0.00  0.00    +0.000 A 
ATOM     27  C   UNL     1       7.337  -0.160  26.710  0.00  0.00    +0.000 A 
ATOM     28  C   UNL     1       6.753  -1.427  26.756  0.00  0.00    +0.003 A 
ENDBRANCH  22  23
ENDBRANCH  21  22
ENDBRANCH  20  21
BRANCH  20  29
ATOM     29  C   UNL     1       4.893  -6.379  23.870  0.00  0.00    +0.078 C 
BRANCH  29  30
ATOM     30  S   UNL     1       3.232  -5.994  23.234  0.00  0.00    -0.178 S 
ATOM     31  H   UNL     1       3.607  -5.626  21.998  0.00  0.00    +0.102 HD
ENDBRANCH  29  30
ENDBRANCH  20  29
ENDBRANCH  18  20
ENDBRANCH   2  18
TORSDOF 12
ENDMDL
MODEL 6
REMARK VINA RESULT:      -6.5      3.484      7.802
REMARK  Name = 
REMARK  12 active torsions:
REMARK  status: ('A' for Active; 'I' for Inactive)
REMARK    1  A    between atoms: O_1  and  C_2
REMARK    2  A    between atoms: C_2  and  CA_4
REMARK    3  A    between atoms: CA_4  and  C_20
REMARK    4  A    between atoms: N_5  and  C_6
REMARK    5  A    between atoms: C_6  and  C_8
REMARK    6  A    between atoms: C_8  and  C_10
REMARK    7  A    between atoms: C_8  and  C_12
REMARK    8  A    between atoms: C_10  and  S_11
REMARK    9  A    between atoms: C_12  and  C_13
REMARK   10  A    between atoms: C_13  and  C_14
REMARK   11  A    between atoms: C_23  and  C_24
REMARK   12  A    between atoms: C_24  and  N_25
REMARK                            x       y       z     vdW  Elec       q    Type
REMARK                         _______ _______ _______ _____ _____    ______ ____
ROOT
ATOM      1  CA  UNL     1       6.478   0.172  24.605  0.00  0.00    +0.154 C 
ATOM      2  N   UNL     1       6.896   1.085  23.772  0.00  0.00    -0.172 NA
ENDROOT
BRANCH   1   3
ATOM      3  C   UNL     1       6.752  -1.223  24.237  0.00  0.00    +0.043 A 
ATOM      4  S   UNL     1       7.571  -2.244  25.352  0.00  0.00    -0.090 S 
ATOM      5  C   UNL     1       7.452  -3.612  24.331  0.00  0.00    +0.012 A 
ATOM      6  C   UNL     1       6.833  -3.293  23.139  0.00  0.00    +0.014 A 
ATOM      7  C   UNL     1       6.444  -1.920  23.082  0.00  0.00    +0.018 A 
BRANCH   5   8
ATOM      8  C   UNL     1       8.027  -4.929  24.762  0.00  0.00    +0.189 C 
BRANCH   8   9
ATOM      9  N   UNL     1       7.355  -5.464  25.927  0.00  0.00    -0.227 N 
ATOM     10  N   UNL     1       7.975  -5.520  27.119  0.00  0.00    -0.044 NA
ATOM     11  N   UNL     1       7.047  -5.923  27.976  0.00  0.00    -0.023 NA
ATOM     12  N   UNL     1       5.840  -6.107  27.342  0.00  0.00    -0.117 NA
ATOM     13  C   UNL     1       6.049  -5.813  26.079  0.00  0.00    +0.245 A 
ENDBRANCH   8   9
ENDBRANCH   5   8
ENDBRANCH   1   3
BRANCH   1  14
ATOM     14  C   UNL     1       5.693   0.339  25.951  0.00  0.00    +0.354 C 
ATOM     15  OXT UNL     1       6.277   0.692  26.964  0.00  0.00    -0.244 OA
BRANCH  14  16
ATOM     16  O   UNL     1       4.385   0.087  25.987  0.00  0.00    -0.476 OA
ATOM     17  H   UNL     1       4.114  -0.826  25.742  0.00  0.00    +0.295 HD
ENDBRANCH  14  16
ENDBRANCH   1  14
BRANCH   2  18
ATOM     18  C   UNL     1       6.815   2.428  23.975  0.00  0.00    +0.241 C 
ATOM     19  O   UNL     1       5.815   3.088  23.709  0.00  0.00    -0.273 OA
BRANCH  18  20
ATOM     20  C   UNL     1       8.028   3.104  24.600  0.00  0.00    +0.087 C 
BRANCH  20  21
ATOM     21  C   UNL     1       8.953   3.793  23.585  0.00  0.00    +0.018 C 
BRANCH  21  22
ATOM     22  C   UNL     1      10.332   3.126  23.506  0.00  0.00    +0.036 C 
BRANCH  22  23
ATOM     23  C   UNL     1      10.232   1.680  23.096  0.00  0.00    -0.047 A 
ATOM     24  C   UNL     1      10.591   0.659  23.986  0.00  0.00    +0.003 A 
ATOM     25  C   UNL     1      10.462  -0.680  23.612  0.00  0.00    +0.000 A 
ATOM     26  C   UNL     1       9.973  -1.009  22.350  0.00  0.00    +0.000 A 
ATOM     27  C   UNL     1       9.619  -0.001  21.455  0.00  0.00    +0.000 A 
ATOM     28  C   UNL     1       9.747   1.339  21.826  0.00  0.00    +0.003 A 
ENDBRANCH  22  23
ENDBRANCH  21  22
ENDBRANCH  20  21
BRANCH  20  29
ATOM     29  C   UNL     1       7.568   3.953  25.791  0.00  0.00    +0.078 C 
BRANCH  29  30
ATOM     30  S   UNL     1       8.297   5.619  25.877  0.00  0.00    -0.178 S 
ATOM     31  H   UNL     1       8.532   5.765  24.564  0.00  0.00    +0.102 HD
ENDBRANCH  29  30
ENDBRANCH  20  29
ENDBRANCH  18  20
ENDBRANCH   2  18
TORSDOF 12
ENDMDL
MODEL 7
REMARK VINA RESULT:      -6.5      3.806      7.511
REMARK  Name = 
REMARK  12 active torsions:
REMARK  status: ('A' for Active; 'I' for Inactive)
REMARK    1  A    between atoms: O_1  and  C_2
REMARK    2  A    between atoms: C_2  and  CA_4
REMARK    3  A    between atoms: CA_4  and  C_20
REMARK    4  A    between atoms: N_5  and  C_6
REMARK    5  A    between atoms: C_6  and  C_8
REMARK    6  A    between atoms: C_8  and  C_10
REMARK    7  A    between atoms: C_8  and  C_12
REMARK    8  A    between atoms: C_10  and  S_11
REMARK    9  A    between atoms: C_12  and  C_13
REMARK   10  A    between atoms: C_13  and  C_14
REMARK   11  A    between atoms: C_23  and  C_24
REMARK   12  A    between atoms: C_24  and  N_25
REMARK                            x       y       z     vdW  Elec       q    Type
REMARK                         _______ _______ _______ _____ _____    ______ ____
ROOT
ATOM      1  CA  UNL     1       7.258   0.993  25.016  0.00  0.00    +0.154 C 
ATOM      2  N   UNL     1       8.153   1.877  25.362  0.00  0.00    -0.172 NA
ENDROOT
BRANCH   1   3
ATOM      3  C   UNL     1       7.485  -0.382  25.479  0.00  0.00    +0.043 A 
ATOM      4  S   UNL     1       6.474  -1.645  24.895  0.00  0.00    -0.090 S 
ATOM      5  C   UNL     1       7.336  -2.855  25.746  0.00  0.00    +0.012 A 
ATOM      6  C   UNL     1       8.357  -2.306  26.496  0.00  0.00    +0.014 A 
ATOM      7  C   UNL     1       8.432  -0.888  26.352  0.00  0.00    +0.018 A 
BRANCH   5   8
ATOM      8  C   UNL     1       6.916  -4.292  25.649  0.00  0.00    +0.189 C 
BRANCH   8   9
ATOM      9  N   UNL     1       7.084  -4.822  24.312  0.00  0.00    -0.227 N 
ATOM     10  N   UNL     1       8.295  -5.199  23.864  0.00  0.00    -0.044 NA
ATOM     11  N   UNL     1       8.070  -5.755  22.681  0.00  0.00    -0.023 NA
ATOM     12  N   UNL     1       6.727  -5.750  22.383  0.00  0.00    -0.117 NA
ATOM     13  C   UNL     1       6.135  -5.176  23.405  0.00  0.00    +0.245 A 
ENDBRANCH   8   9
ENDBRANCH   5   8
ENDBRANCH   1   3
BRANCH   1  14
ATOM     14  C   UNL     1       5.968   1.173  24.145  0.00  0.00    +0.354 C 
ATOM     15  OXT UNL     1       4.896   1.420  24.677  0.00  0.00    -0.244 OA
BRANCH  14  16
ATOM     16  O   UNL     1       6.043   1.048  22.821  0.00  0.00    -0.476 OA
ATOM     17  H   UNL     1       6.862   0.629  22.472  0.00  0.00    +0.295 HD
ENDBRANCH  14  16
ENDBRANCH   1  14
BRANCH   2  18
ATOM     18  C   UNL     1       8.078   3.210  25.105  0.00  0.00    +0.241 C 
ATOM     19  O   UNL     1       7.424   3.990  25.790  0.00  0.00    -0.273 OA
BRANCH  18  20
ATOM     20  C   UNL     1       8.888   3.732  23.925  0.00  0.00    +0.087 C 
BRANCH  20  21
ATOM     21  C   UNL     1      10.177   2.941  23.653  0.00  0.00    +0.018 C 
BRANCH  21  22
ATOM     22  C   UNL     1      10.159   2.251  22.283  0.00  0.00    +0.036 C 
BRANCH  22  23
ATOM     23  C   UNL     1       9.991   0.759  22.410  0.00  0.00    -0.047 A 
ATOM     24  C   UNL     1      10.626   0.053  23.439  0.00  0.00    +0.003 A 
ATOM     25  C   UNL     1      10.437  -1.323  23.572  0.00  0.00    +0.000 A 
ATOM     26  C   UNL     1       9.611  -2.004  22.680  0.00  0.00    +0.000 A 
ATOM     27  C   UNL     1       8.980  -1.312  21.648  0.00  0.00    +0.000 A 
ATOM     28  C   UNL     1       9.167   0.064  21.513  0.00  0.00    +0.003 A 
ENDBRANCH  22  23
ENDBRANCH  21  22
ENDBRANCH  20  21
BRANCH  20  29
ATOM     29  C   UNL     1       7.950   3.942  22.730  0.00  0.00    +0.078 C 
BRANCH  29  30
ATOM     30  S   UNL     1       7.393   5.657  22.481  0.00  0.00    -0.178 S 
ATOM     31  H   UNL     1       8.307   5.996  21.557  0.00  0.00    +0.102 HD
ENDBRANCH  29  30
ENDBRANCH  20  29
ENDBRANCH  18  20
ENDBRANCH   2  18
TORSDOF 12
ENDMDL
MODEL 8
REMARK VINA RESULT:      -6.3      3.072      7.092
REMARK  Name = 
REMARK  12 active torsions:
REMARK  status: ('A' for Active; 'I' for Inactive)
REMARK    1  A    between atoms: O_1  and  C_2
REMARK    2  A    between atoms: C_2  and  CA_4
REMARK    3  A    between atoms: CA_4  and  C_20
REMARK    4  A    between atoms: N_5  and  C_6
REMARK    5  A    between atoms: C_6  and  C_8
REMARK    6  A    between atoms: C_8  and  C_10
REMARK    7  A    between atoms: C_8  and  C_12
REMARK    8  A    between atoms: C_10  and  S_11
REMARK    9  A    between atoms: C_12  and  C_13
REMARK   10  A    between atoms: C_13  and  C_14
REMARK   11  A    between atoms: C_23  and  C_24
REMARK   12  A    between atoms: C_24  and  N_25
REMARK                            x       y       z     vdW  Elec       q    Type
REMARK                         _______ _______ _______ _____ _____    ______ ____
ROOT
ATOM      1  CA  UNL     1       7.723  -1.980  22.819  0.00  0.00    +0.154 C 
ATOM      2  N   UNL     1       7.028  -1.002  23.332  0.00  0.00    -0.172 NA
ENDROOT
BRANCH   1   3
ATOM      3  C   UNL     1       7.049  -3.280  22.721  0.00  0.00    +0.043 A 
ATOM      4  S   UNL     1       5.372  -3.390  23.086  0.00  0.00    -0.090 S 
ATOM      5  C   UNL     1       5.300  -5.054  22.696  0.00  0.00    +0.012 A 
ATOM      6  C   UNL     1       6.540  -5.535  22.329  0.00  0.00    +0.014 A 
ATOM      7  C   UNL     1       7.544  -4.520  22.357  0.00  0.00    +0.018 A 
BRANCH   5   8
ATOM      8  C   UNL     1       4.006  -5.804  22.819  0.00  0.00    +0.189 C 
BRANCH   8   9
ATOM      9  N   UNL     1       3.741  -6.217  24.181  0.00  0.00    -0.227 N 
ATOM     10  N   UNL     1       4.363  -7.284  24.715  0.00  0.00    -0.044 NA
ATOM     11  N   UNL     1       4.002  -7.294  25.991  0.00  0.00    -0.023 NA
ATOM     12  N   UNL     1       3.171  -6.235  26.275  0.00  0.00    -0.117 NA
ATOM     13  C   UNL     1       3.027  -5.579  25.147  0.00  0.00    +0.245 A 
ENDBRANCH   8   9
ENDBRANCH   5   8
ENDBRANCH   1   3
BRANCH   1  14
ATOM     14  C   UNL     1       9.204  -1.983  22.303  0.00  0.00    +0.354 C 
ATOM     15  OXT UNL     1      10.081  -2.525  22.958  0.00  0.00    -0.244 OA
BRANCH  14  16
ATOM     16  O   UNL     1       9.502  -1.387  21.150  0.00  0.00    -0.476 OA
ATOM     17  H   UNL     1       9.200  -1.846  20.335  0.00  0.00    +0.295 HD
ENDBRANCH  14  16
ENDBRANCH   1  14
BRANCH   2  18
ATOM     18  C   UNL     1       7.443   0.289  23.428  0.00  0.00    +0.241 C 
ATOM     19  O   UNL     1       7.276   1.116  22.537  0.00  0.00    -0.273 OA
BRANCH  18  20
ATOM     20  C   UNL     1       8.110   0.704  24.733  0.00  0.00    +0.087 C 
BRANCH  20  21
ATOM     21  C   UNL     1       7.604  -0.062  25.965  0.00  0.00    +0.018 C 
BRANCH  21  22
ATOM     22  C   UNL     1       8.603  -1.125  26.442  0.00  0.00    +0.036 C 
BRANCH  22  23
ATOM     23  C   UNL     1       8.009  -2.508  26.406  0.00  0.00    -0.047 A 
ATOM     24  C   UNL     1       6.652  -2.711  26.692  0.00  0.00    +0.003 A 
ATOM     25  C   UNL     1       6.101  -3.991  26.623  0.00  0.00    +0.000 A 
ATOM     26  C   UNL     1       6.897  -5.077  26.266  0.00  0.00    +0.000 A 
ATOM     27  C   UNL     1       8.249  -4.887  25.987  0.00  0.00    +0.000 A 
ATOM     28  C   UNL     1       8.803  -3.609  26.055  0.00  0.00    +0.003 A 
ENDBRANCH  22  23
ENDBRANCH  21  22
ENDBRANCH  20  21
BRANCH  20  29
ATOM     29  C   UNL     1       9.629   0.742  24.528  0.00  0.00    +0.078 C 
BRANCH  29  30
ATOM     30  S   UNL     1      10.271   2.290  23.818  0.00  0.00    -0.178 S 
ATOM     31  H   UNL     1      11.210   1.736  23.034  0.00  0.00    +0.102 HD
ENDBRANCH  29  30
ENDBRANCH  20  29
ENDBRANCH  18  20
ENDBRANCH   2  18
TORSDOF 12
ENDMDL
MODEL 9
REMARK VINA RESULT:      -6.2      1.844      2.402
REMARK  Name = 
REMARK  12 active torsions:
REMARK  status: ('A' for Active; 'I' for Inactive)
REMARK    1  A    between atoms: O_1  and  C_2
REMARK    2  A    between atoms: C_2  and  CA_4
REMARK    3  A    between atoms: CA_4  and  C_20
REMARK    4  A    between atoms: N_5  and  C_6
REMARK    5  A    between atoms: C_6  and  C_8
REMARK    6  A    between atoms: C_8  and  C_10
REMARK    7  A    between atoms: C_8  and  C_12
REMARK    8  A    between atoms: C_10  and  S_11
REMARK    9  A    between atoms: C_12  and  C_13
REMARK   10  A    between atoms: C_13  and  C_14
REMARK   11  A    between atoms: C_23  and  C_24
REMARK   12  A    between atoms: C_24  and  N_25
REMARK                            x       y       z     vdW  Elec       q    Type
REMARK                         _______ _______ _______ _____ _____    ______ ____
ROOT
ATOM      1  CA  UNL     1       8.239  -2.551  25.524  0.00  0.00    +0.154 C 
ATOM      2  N   UNL     1       8.093  -3.847  25.526  0.00  0.00    -0.172 NA
ENDROOT
BRANCH   1   3
ATOM      3  C   UNL     1       8.767  -1.954  24.290  0.00  0.00    +0.043 A 
ATOM      4  S   UNL     1       8.100  -0.475  23.718  0.00  0.00    -0.090 S 
ATOM      5  C   UNL     1       9.194  -0.383  22.404  0.00  0.00    +0.012 A 
ATOM      6  C   UNL     1      10.032  -1.479  22.375  0.00  0.00    +0.014 A 
ATOM      7  C   UNL     1       9.777  -2.385  23.449  0.00  0.00    +0.018 A 
BRANCH   5   8
ATOM      8  C   UNL     1       9.126   0.768  21.443  0.00  0.00    +0.189 C 
BRANCH   8   9
ATOM      9  N   UNL     1       9.094   2.046  22.122  0.00  0.00    -0.227 N 
ATOM     10  N   UNL     1       7.991   2.816  22.097  0.00  0.00    -0.044 NA
ATOM     11  N   UNL     1       8.252   3.825  22.917  0.00  0.00    -0.023 NA
ATOM     12  N   UNL     1       9.503   3.694  23.474  0.00  0.00    -0.117 NA
ATOM     13  C   UNL     1      10.004   2.586  22.976  0.00  0.00    +0.245 A 
ENDBRANCH   8   9
ENDBRANCH   5   8
ENDBRANCH   1   3
BRANCH   1  14
ATOM     14  C   UNL     1       7.956  -1.517  26.667  0.00  0.00    +0.354 C 
ATOM     15  OXT UNL     1       6.810  -1.305  27.035  0.00  0.00    -0.244 OA
BRANCH  14  16
ATOM     16  O   UNL     1       8.970  -0.865  27.233  0.00  0.00    -0.476 OA
ATOM     17  H   UNL     1       8.902   0.116  27.242  0.00  0.00    +0.295 HD
ENDBRANCH  14  16
ENDBRANCH   1  14
BRANCH   2  18
ATOM     18  C   UNL     1       7.543  -4.573  26.535  0.00  0.00    +0.241 C 
ATOM     19  O   UNL     1       8.204  -5.078  27.437  0.00  0.00    -0.273 OA
BRANCH  18  20
ATOM     20  C   UNL     1       6.026  -4.712  26.536  0.00  0.00    +0.087 C 
BRANCH  20  21
ATOM     21  C   UNL     1       5.518  -6.027  25.925  0.00  0.00    +0.018 C 
BRANCH  21  22
ATOM     22  C   UNL     1       4.606  -5.792  24.713  0.00  0.00    +0.036 C 
BRANCH  22  23
ATOM     23  C   UNL     1       5.313  -5.038  23.618  0.00  0.00    -0.047 A 
ATOM     24  C   UNL     1       4.934  -3.729  23.292  0.00  0.00    +0.003 A 
ATOM     25  C   UNL     1       5.617  -3.023  22.300  0.00  0.00    +0.000 A 
ATOM     26  C   UNL     1       6.684  -3.617  21.629  0.00  0.00    +0.000 A 
ATOM     27  C   UNL     1       7.064  -4.920  21.941  0.00  0.00    +0.000 A 
ATOM     28  C   UNL     1       6.383  -5.628  22.931  0.00  0.00    +0.003 A 
ENDBRANCH  22  23
ENDBRANCH  21  22
ENDBRANCH  20  21
BRANCH  20  29
ATOM     29  C   UNL     1       5.492  -4.355  27.929  0.00  0.00    +0.078 C 
BRANCH  29  30
ATOM     30  S   UNL     1       3.914  -3.448  27.940  0.00  0.00    -0.178 S 
ATOM     31  H   UNL     1       4.314  -2.428  28.715  0.00  0.00    +0.102 HD
ENDBRANCH  29  30
ENDBRANCH  20  29
ENDBRANCH  18  20
ENDBRANCH   2  18
TORSDOF 12
ENDMDL
