MODEL 1
REMARK VINA RESULT:      -7.3      0.000      0.000
REMARK  Name = 
REMARK  6 active torsions:
REMARK  status: ('A' for Active; 'I' for Inactive)
REMARK    1  A    between atoms: C_2  and  N_3
REMARK    2  A    between atoms: C_2  and  C_4
REMARK    3  A    between atoms: C_2  and  C_17
REMARK    4  A    between atoms: C_4  and  C_5
REMARK    5  A    between atoms: C_14  and  C_16
REMARK    6  A    between atoms: C_17  and  C_18
REMARK                            x       y       z     vdW  Elec       q    Type
REMARK                         _______ _______ _______ _____ _____    ______ ____
ROOT
ATOM      1  C   UNL     1       9.245  -4.230  25.061  0.00  0.00    +0.064 C 
ENDROOT
BRANCH   1   2
ATOM      2  N   UNL     1       9.851  -4.769  26.298  0.00  0.00    -0.327 NA
ATOM      3  H   UNL     1       9.199  -5.413  26.745  0.00  0.00    +0.118 HD
ATOM      4  H   UNL     1      10.665  -5.341  26.058  0.00  0.00    +0.118 HD
ENDBRANCH   1   2
BRANCH   1   5
ATOM      5  C   UNL     1       8.589  -2.848  25.303  0.00  0.00    +0.057 C 
BRANCH   5   6
ATOM      6  C   UNL     1       9.052  -1.766  24.355  0.00  0.00    -0.008 A 
ATOM      7  C   UNL     1       9.883  -0.726  24.800  0.00  0.00    +0.047 A 
ATOM      8  C   UNL     1      10.309   0.250  23.901  0.00  0.00    +0.159 A 
ATOM      9  F   UNL     1      11.117   1.231  24.329  0.00  0.00    -0.202 F 
ATOM     10  C   UNL     1       9.910   0.207  22.569  0.00  0.00    +0.161 A 
ATOM     11  F   UNL     1      10.327   1.148  21.710  0.00  0.00    -0.202 F 
ATOM     12  C   UNL     1       9.076  -0.804  22.114  0.00  0.00    +0.080 A 
ATOM     13  C   UNL     1       8.659  -1.784  23.011  0.00  0.00    +0.129 A 
ATOM     14  F   UNL     1       7.845  -2.755  22.571  0.00  0.00    -0.205 F 
ENDBRANCH   5   6
ENDBRANCH   1   5
BRANCH   1  15
ATOM     15  C   UNL     1       8.238  -5.284  24.570  0.00  0.00    +0.114 C 
BRANCH  15  16
ATOM     16  C   UNL     1       7.105  -5.570  25.547  0.00  0.00    +0.218 C 
ATOM     17  N   UNL     1       5.799  -5.465  25.054  0.00  0.00    -0.290 N 
ATOM     18  C   UNL     1       5.458  -4.708  23.827  0.00  0.00    +0.159 C 
ATOM     19  C   UNL     1       4.526  -3.524  24.088  0.00  0.00    +0.038 C 
ATOM     20  C   UNL     1       4.976  -5.597  22.667  0.00  0.00    +0.233 C 
ATOM     21  O   UNL     1       5.570  -5.616  21.588  0.00  0.00    -0.274 OA
ATOM     22  N   UNL     1       3.847  -6.347  22.798  0.00  0.00    -0.314 N 
ATOM     23  H   UNL     1       3.626  -6.882  21.966  0.00  0.00    +0.149 HD
ATOM     24  C   UNL     1       3.077  -6.583  23.995  0.00  0.00    +0.106 C 
ATOM     25  C   UNL     1       3.923  -7.124  25.134  0.00  0.00    +0.038 C 
ATOM     26  C   UNL     1       4.716  -6.038  25.858  0.00  0.00    +0.110 C 
ATOM     27  O   UNL     1       7.336  -5.913  26.706  0.00  0.00    -0.276 OA
ENDBRANCH  15  16
ENDBRANCH   1  15
TORSDOF 5
ENDMDL
MODEL 2
REMARK VINA RESULT:      -7.1      3.059      4.803
REMARK  Name = 
REMARK  6 active torsions:
REMARK  status: ('A' for Active; 'I' for Inactive)
REMARK    1  A    between atoms: C_2  and  N_3
REMARK    2  A    between atoms: C_2  and  C_4
REMARK    3  A    between atoms: C_2  and  C_17
REMARK    4  A    between atoms: C_4  and  C_5
REMARK    5  A    between atoms: C_14  and  C_16
REMARK    6  A    between atoms: C_17  and  C_18
REMARK                            x       y       z     vdW  Elec       q    Type
REMARK                         _______ _______ _______ _____ _____    ______ ____
ROOT
ATOM      1  C   UNL     1       9.318  -0.765  22.263  0.00  0.00    +0.064 C 
ENDROOT
BRANCH   1   2
ATOM      2  N   UNL     1       9.871  -1.894  21.484  0.00  0.00    -0.327 NA
ATOM      3  H   UNL     1      10.578  -1.548  20.836  0.00  0.00    +0.118 HD
ATOM      4  H   UNL     1      10.374  -2.527  22.111  0.00  0.00    +0.118 HD
ENDBRANCH   1   2
BRANCH   1   5
ATOM      5  C   UNL     1      10.092   0.549  21.991  0.00  0.00    +0.057 C 
BRANCH   5   6
ATOM      6  C   UNL     1       9.399   1.794  22.496  0.00  0.00    -0.008 A 
ATOM      7  C   UNL     1       8.199   2.236  21.916  0.00  0.00    +0.047 A 
ATOM      8  C   UNL     1       7.572   3.377  22.411  0.00  0.00    +0.159 A 
ATOM      9  F   UNL     1       6.418   3.784  21.863  0.00  0.00    -0.202 F 
ATOM     10  C   UNL     1       8.129   4.088  23.470  0.00  0.00    +0.161 A 
ATOM     11  F   UNL     1       7.517   5.182  23.942  0.00  0.00    -0.202 F 
ATOM     12  C   UNL     1       9.322   3.675  24.046  0.00  0.00    +0.080 A 
ATOM     13  C   UNL     1       9.943   2.529  23.557  0.00  0.00    +0.129 A 
ATOM     14  F   UNL     1      11.100   2.137  24.109  0.00  0.00    -0.205 F 
ENDBRANCH   5   6
ENDBRANCH   1   5
BRANCH   1  15
ATOM     15  C   UNL     1       9.370  -1.185  23.742  0.00  0.00    +0.114 C 
BRANCH  15  16
ATOM     16  C   UNL     1       8.007  -1.438  24.370  0.00  0.00    +0.218 C 
ATOM     17  N   UNL     1       7.681  -2.767  24.668  0.00  0.00    -0.290 N 
ATOM     18  C   UNL     1       8.365  -3.925  24.045  0.00  0.00    +0.159 C 
ATOM     19  C   UNL     1       7.430  -4.798  23.207  0.00  0.00    +0.038 C 
ATOM     20  C   UNL     1       9.215  -4.745  25.032  0.00  0.00    +0.233 C 
ATOM     21  O   UNL     1      10.426  -4.894  24.860  0.00  0.00    -0.274 OA
ATOM     22  N   UNL     1       8.630  -5.365  26.094  0.00  0.00    -0.314 N 
ATOM     23  H   UNL     1       9.289  -5.880  26.665  0.00  0.00    +0.149 HD
ATOM     24  C   UNL     1       7.273  -5.222  26.563  0.00  0.00    +0.106 C 
ATOM     25  C   UNL     1       6.897  -3.774  26.825  0.00  0.00    +0.038 C 
ATOM     26  C   UNL     1       6.537  -3.010  25.552  0.00  0.00    +0.110 C 
ATOM     27  O   UNL     1       7.243  -0.509  24.632  0.00  0.00    -0.276 OA
ENDBRANCH  15  16
ENDBRANCH   1  15
TORSDOF 5
ENDMDL
MODEL 3
REMARK VINA RESULT:      -7.1      3.122      4.604
REMARK  Name = 
REMARK  6 active torsions:
REMARK  status: ('A' for Active; 'I' for Inactive)
REMARK    1  A    between atoms: C_2  and  N_3
REMARK    2  A    between atoms: C_2  and  C_4
REMARK    3  A    between atoms: C_2  and  C_17
REMARK    4  A    between atoms: C_4  and  C_5
REMARK    5  A    between atoms: C_14  and  C_16
REMARK    6  A    between atoms: C_17  and  C_18
REMARK                            x       y       z     vdW  Elec       q    Type
REMARK                         _______ _______ _______ _____ _____    ______ ____
ROOT
ATOM      1  C   UNL     1       9.465  -0.642  22.434  0.00  0.00    +0.064 C 
ENDROOT
BRANCH   1   2
ATOM      2  N   UNL     1      10.149  -1.587  21.524  0.00  0.00    -0.327 NA
ATOM      3  H   UNL     1      10.082  -2.532  21.900  0.00  0.00    +0.118 HD
ATOM      4  H   UNL     1       9.651  -1.621  20.631  0.00  0.00    +0.118 HD
ENDBRANCH   1   2
BRANCH   1   5
ATOM      5  C   UNL     1      10.132   0.756  22.412  0.00  0.00    +0.057 C 
BRANCH   5   6
ATOM      6  C   UNL     1       9.215   1.887  22.813  0.00  0.00    -0.008 A 
ATOM      7  C   UNL     1       9.383   2.551  24.039  0.00  0.00    +0.047 A 
ATOM      8  C   UNL     1       8.534   3.602  24.378  0.00  0.00    +0.159 A 
ATOM      9  F   UNL     1       8.711   4.242  25.543  0.00  0.00    -0.202 F 
ATOM     10  C   UNL     1       7.514   3.994  23.516  0.00  0.00    +0.161 A 
ATOM     11  F   UNL     1       6.704   5.009  23.848  0.00  0.00    -0.202 F 
ATOM     12  C   UNL     1       7.322   3.341  22.307  0.00  0.00    +0.080 A 
ATOM     13  C   UNL     1       8.178   2.297  21.964  0.00  0.00    +0.129 A 
ATOM     14  F   UNL     1       7.984   1.660  20.800  0.00  0.00    -0.205 F 
ENDBRANCH   5   6
ENDBRANCH   1   5
BRANCH   1  15
ATOM     15  C   UNL     1       9.489  -1.284  23.832  0.00  0.00    +0.114 C 
BRANCH  15  16
ATOM     16  C   UNL     1       8.112  -1.501  24.445  0.00  0.00    +0.218 C 
ATOM     17  N   UNL     1       7.752  -2.819  24.752  0.00  0.00    -0.290 N 
ATOM     18  C   UNL     1       8.416  -3.998  24.147  0.00  0.00    +0.159 C 
ATOM     19  C   UNL     1       7.472  -4.856  23.306  0.00  0.00    +0.038 C 
ATOM     20  C   UNL     1       9.236  -4.828  25.151  0.00  0.00    +0.233 C 
ATOM     21  O   UNL     1      10.445  -5.007  24.996  0.00  0.00    -0.274 OA
ATOM     22  N   UNL     1       8.624  -5.424  26.212  0.00  0.00    -0.314 N 
ATOM     23  H   UNL     1       9.264  -5.950  26.796  0.00  0.00    +0.149 HD
ATOM     24  C   UNL     1       7.265  -5.246  26.663  0.00  0.00    +0.106 C 
ATOM     25  C   UNL     1       6.920  -3.787  26.908  0.00  0.00    +0.038 C 
ATOM     26  C   UNL     1       6.593  -3.027  25.624  0.00  0.00    +0.110 C 
ATOM     27  O   UNL     1       7.368  -0.552  24.690  0.00  0.00    -0.276 OA
ENDBRANCH  15  16
ENDBRANCH   1  15
TORSDOF 5
ENDMDL
MODEL 4
REMARK VINA RESULT:      -6.9      1.607      1.999
REMARK  Name = 
REMARK  6 active torsions:
REMARK  status: ('A' for Active; 'I' for Inactive)
REMARK    1  A    between atoms: C_2  and  N_3
REMARK    2  A    between atoms: C_2  and  C_4
REMARK    3  A    between atoms: C_2  and  C_17
REMARK    4  A    between atoms: C_4  and  C_5
REMARK    5  A    between atoms: C_14  and  C_16
REMARK    6  A    between atoms: C_17  and  C_18
REMARK                            x       y       z     vdW  Elec       q    Type
REMARK                         _______ _______ _______ _____ _____    ______ ____
ROOT
ATOM      1  C   UNL     1       9.231  -2.825  24.105  0.00  0.00    +0.064 C 
ENDROOT
BRANCH   1   2
ATOM      2  N   UNL     1       8.774  -1.971  25.222  0.00  0.00    -0.327 NA
ATOM      3  H   UNL     1       7.886  -2.322  25.579  0.00  0.00    +0.118 HD
ATOM      4  H   UNL     1       9.427  -2.054  26.005  0.00  0.00    +0.118 HD
ENDBRANCH   1   2
BRANCH   1   5
ATOM      5  C   UNL     1       8.621  -2.374  22.754  0.00  0.00    +0.057 C 
BRANCH   5   6
ATOM      6  C   UNL     1       8.526  -0.875  22.585  0.00  0.00    -0.008 A 
ATOM      7  C   UNL     1       9.637  -0.125  22.168  0.00  0.00    +0.047 A 
ATOM      8  C   UNL     1       9.518   1.253  22.004  0.00  0.00    +0.159 A 
ATOM      9  F   UNL     1      10.578   1.960  21.588  0.00  0.00    -0.202 F 
ATOM     10  C   UNL     1       8.309   1.894  22.260  0.00  0.00    +0.161 A 
ATOM     11  F   UNL     1       8.202   3.220  22.096  0.00  0.00    -0.202 F 
ATOM     12  C   UNL     1       7.205   1.173  22.688  0.00  0.00    +0.080 A 
ATOM     13  C   UNL     1       7.321  -0.207  22.842  0.00  0.00    +0.129 A 
ATOM     14  F   UNL     1       6.255  -0.901  23.265  0.00  0.00    -0.205 F 
ENDBRANCH   5   6
ENDBRANCH   1   5
BRANCH   1  15
ATOM     15  C   UNL     1       8.850  -4.269  24.471  0.00  0.00    +0.114 C 
BRANCH  15  16
ATOM     16  C   UNL     1       7.750  -4.380  25.519  0.00  0.00    +0.218 C 
ATOM     17  N   UNL     1       6.483  -4.774  25.072  0.00  0.00    -0.290 N 
ATOM     18  C   UNL     1       6.060  -4.673  23.655  0.00  0.00    +0.159 C 
ATOM     19  C   UNL     1       4.881  -3.723  23.444  0.00  0.00    +0.038 C 
ATOM     20  C   UNL     1       5.851  -6.038  22.974  0.00  0.00    +0.233 C 
ATOM     21  O   UNL     1       6.498  -6.359  21.976  0.00  0.00    -0.274 OA
ATOM     22  N   UNL     1       4.905  -6.900  23.438  0.00  0.00    -0.314 N 
ATOM     23  H   UNL     1       4.855  -7.760  22.904  0.00  0.00    +0.149 HD
ATOM     24  C   UNL     1       4.134  -6.796  24.654  0.00  0.00    +0.106 C 
ATOM     25  C   UNL     1       5.009  -6.630  25.884  0.00  0.00    +0.038 C 
ATOM     26  C   UNL     1       5.504  -5.198  26.076  0.00  0.00    +0.110 C 
ATOM     27  O   UNL     1       7.980  -4.164  26.709  0.00  0.00    -0.276 OA
ENDBRANCH  15  16
ENDBRANCH   1  15
TORSDOF 5
ENDMDL
MODEL 5
REMARK VINA RESULT:      -6.9      3.683      6.687
REMARK  Name = 
REMARK  6 active torsions:
REMARK  status: ('A' for Active; 'I' for Inactive)
REMARK    1  A    between atoms: C_2  and  N_3
REMARK    2  A    between atoms: C_2  and  C_4
REMARK    3  A    between atoms: C_2  and  C_17
REMARK    4  A    between atoms: C_4  and  C_5
REMARK    5  A    between atoms: C_14  and  C_16
REMARK    6  A    between atoms: C_17  and  C_18
REMARK                            x       y       z     vdW  Elec       q    Type
REMARK                         _______ _______ _______ _____ _____    ______ ____
ROOT
ATOM      1  C   UNL     1       8.558  -4.781  24.902  0.00  0.00    +0.064 C 
ENDROOT
BRANCH   1   2
ATOM      2  N   UNL     1       9.760  -5.642  24.943  0.00  0.00    -0.327 NA
ATOM      3  H   UNL     1      10.577  -5.077  25.175  0.00  0.00    +0.118 HD
ATOM      4  H   UNL     1       9.674  -6.312  25.712  0.00  0.00    +0.118 HD
ENDBRANCH   1   2
BRANCH   1   5
ATOM      5  C   UNL     1       7.913  -4.769  23.494  0.00  0.00    +0.057 C 
BRANCH   5   6
ATOM      6  C   UNL     1       6.404  -4.836  23.502  0.00  0.00    -0.008 A 
ATOM      7  C   UNL     1       5.644  -3.893  24.213  0.00  0.00    +0.047 A 
ATOM      8  C   UNL     1       4.253  -3.967  24.190  0.00  0.00    +0.159 A 
ATOM      9  F   UNL     1       3.535  -3.054  24.858  0.00  0.00    -0.202 F 
ATOM     10  C   UNL     1       3.610  -4.974  23.476  0.00  0.00    +0.161 A 
ATOM     11  F   UNL     1       2.272  -5.036  23.456  0.00  0.00    -0.202 F 
ATOM     12  C   UNL     1       4.344  -5.923  22.779  0.00  0.00    +0.080 A 
ATOM     13  C   UNL     1       5.734  -5.843  22.794  0.00  0.00    +0.129 A 
ATOM     14  F   UNL     1       6.441  -6.767  22.129  0.00  0.00    -0.205 F 
ENDBRANCH   5   6
ENDBRANCH   1   5
BRANCH   1  15
ATOM     15  C   UNL     1       9.005  -3.382  25.359  0.00  0.00    +0.114 C 
BRANCH  15  16
ATOM     16  C   UNL     1       9.665  -2.549  24.270  0.00  0.00    +0.218 C 
ATOM     17  N   UNL     1       9.227  -1.226  24.126  0.00  0.00    -0.290 N 
ATOM     18  C   UNL     1       7.927  -0.746  24.650  0.00  0.00    +0.159 C 
ATOM     19  C   UNL     1       6.977  -0.262  23.554  0.00  0.00    +0.038 C 
ATOM     20  C   UNL     1       8.060   0.261  25.806  0.00  0.00    +0.233 C 
ATOM     21  O   UNL     1       7.569   0.031  26.913  0.00  0.00    -0.274 OA
ATOM     22  N   UNL     1       8.687   1.454  25.611  0.00  0.00    -0.314 N 
ATOM     23  H   UNL     1       8.704   2.035  26.441  0.00  0.00    +0.149 HD
ATOM     24  C   UNL     1       9.443   1.876  24.457  0.00  0.00    +0.106 C 
ATOM     25  C   UNL     1      10.551   0.901  24.098  0.00  0.00    +0.038 C 
ATOM     26  C   UNL     1      10.049  -0.316  23.324  0.00  0.00    +0.110 C 
ATOM     27  O   UNL     1      10.568  -3.012  23.573  0.00  0.00    -0.276 OA
ENDBRANCH  15  16
ENDBRANCH   1  15
TORSDOF 5
ENDMDL
MODEL 6
REMARK VINA RESULT:      -6.9      1.712      3.368
REMARK  Name = 
REMARK  6 active torsions:
REMARK  status: ('A' for Active; 'I' for Inactive)
REMARK    1  A    between atoms: C_2  and  N_3
REMARK    2  A    between atoms: C_2  and  C_4
REMARK    3  A    between atoms: C_2  and  C_17
REMARK    4  A    between atoms: C_4  and  C_5
REMARK    5  A    between atoms: C_14  and  C_16
REMARK    6  A    between atoms: C_17  and  C_18
REMARK                            x       y       z     vdW  Elec       q    Type
REMARK                         _______ _______ _______ _____ _____    ______ ____
ROOT
ATOM      1  C   UNL     1       8.962  -3.806  24.076  0.00  0.00    +0.064 C 
ENDROOT
BRANCH   1   2
ATOM      2  N   UNL     1       9.626  -4.635  25.105  0.00  0.00    -0.327 NA
ATOM      3  H   UNL     1      10.370  -4.097  25.550  0.00  0.00    +0.118 HD
ATOM      4  H   UNL     1       8.963  -4.842  25.857  0.00  0.00    +0.118 HD
ENDBRANCH   1   2
BRANCH   1   5
ATOM      5  C   UNL     1       8.532  -2.430  24.642  0.00  0.00    +0.057 C 
BRANCH   5   6
ATOM      6  C   UNL     1       9.056  -1.246  23.863  0.00  0.00    -0.008 A 
ATOM      7  C   UNL     1       8.891  -1.170  22.470  0.00  0.00    +0.047 A 
ATOM      8  C   UNL     1       9.369  -0.059  21.778  0.00  0.00    +0.159 A 
ATOM      9  F   UNL     1       9.192   0.015  20.451  0.00  0.00    -0.202 F 
ATOM     10  C   UNL     1      10.019   0.970  22.453  0.00  0.00    +0.161 A 
ATOM     11  F   UNL     1      10.473   2.036  21.780  0.00  0.00    -0.202 F 
ATOM     12  C   UNL     1      10.206   0.905  23.826  0.00  0.00    +0.080 A 
ATOM     13  C   UNL     1       9.718  -0.201  24.519  0.00  0.00    +0.129 A 
ATOM     14  F   UNL     1       9.909  -0.266  25.845  0.00  0.00    -0.205 F 
ENDBRANCH   5   6
ENDBRANCH   1   5
BRANCH   1  15
ATOM     15  C   UNL     1       7.771  -4.627  23.552  0.00  0.00    +0.114 C 
BRANCH  15  16
ATOM     16  C   UNL     1       6.413  -3.985  23.795  0.00  0.00    +0.218 C 
ATOM     17  N   UNL     1       5.746  -4.333  24.976  0.00  0.00    -0.290 N 
ATOM     18  C   UNL     1       6.065  -5.555  25.752  0.00  0.00    +0.159 C 
ATOM     19  C   UNL     1       4.899  -6.541  25.830  0.00  0.00    +0.038 C 
ATOM     20  C   UNL     1       6.691  -5.267  27.127  0.00  0.00    +0.233 C 
ATOM     21  O   UNL     1       7.808  -5.695  27.423  0.00  0.00    -0.274 OA
ATOM     22  N   UNL     1       5.996  -4.570  28.068  0.00  0.00    -0.314 N 
ATOM     23  H   UNL     1       6.507  -4.451  28.935  0.00  0.00    +0.149 HD
ATOM     24  C   UNL     1       4.746  -3.867  27.902  0.00  0.00    +0.106 C 
ATOM     25  C   UNL     1       4.791  -2.862  26.764  0.00  0.00    +0.038 C 
ATOM     26  C   UNL     1       4.610  -3.505  25.391  0.00  0.00    +0.110 C 
ATOM     27  O   UNL     1       5.943  -3.170  23.001  0.00  0.00    -0.276 OA
ENDBRANCH  15  16
ENDBRANCH   1  15
TORSDOF 5
ENDMDL
MODEL 7
REMARK VINA RESULT:      -6.9      3.904      6.790
REMARK  Name = 
REMARK  6 active torsions:
REMARK  status: ('A' for Active; 'I' for Inactive)
REMARK    1  A    between atoms: C_2  and  N_3
REMARK    2  A    between atoms: C_2  and  C_4
REMARK    3  A    between atoms: C_2  and  C_17
REMARK    4  A    between atoms: C_4  and  C_5
REMARK    5  A    between atoms: C_14  and  C_16
REMARK    6  A    between atoms: C_17  and  C_18
REMARK                            x       y       z     vdW  Elec       q    Type
REMARK                         _______ _______ _______ _____ _____    ______ ____
ROOT
ATOM      1  C   UNL     1       6.772  -2.020  25.447  0.00  0.00    +0.064 C 
ENDROOT
BRANCH   1   2
ATOM      2  N   UNL     1       6.588  -2.196  26.904  0.00  0.00    -0.327 NA
ATOM      3  H   UNL     1       5.887  -2.917  27.075  0.00  0.00    +0.118 HD
ATOM      4  H   UNL     1       7.450  -2.561  27.315  0.00  0.00    +0.118 HD
ENDBRANCH   1   2
BRANCH   1   5
ATOM      5  C   UNL     1       7.831  -3.000  24.884  0.00  0.00    +0.057 C 
BRANCH   5   6
ATOM      6  C   UNL     1       7.379  -3.770  23.665  0.00  0.00    -0.008 A 
ATOM      7  C   UNL     1       6.574  -3.164  22.687  0.00  0.00    +0.047 A 
ATOM      8  C   UNL     1       6.185  -3.892  21.565  0.00  0.00    +0.159 A 
ATOM      9  F   UNL     1       5.431  -3.301  20.627  0.00  0.00    -0.202 F 
ATOM     10  C   UNL     1       6.579  -5.218  21.409  0.00  0.00    +0.161 A 
ATOM     11  F   UNL     1       6.202  -5.909  20.325  0.00  0.00    -0.202 F 
ATOM     12  C   UNL     1       7.361  -5.839  22.372  0.00  0.00    +0.080 A 
ATOM     13  C   UNL     1       7.758  -5.108  23.489  0.00  0.00    +0.129 A 
ATOM     14  F   UNL     1       8.505  -5.713  24.423  0.00  0.00    -0.205 F 
ENDBRANCH   5   6
ENDBRANCH   1   5
BRANCH   1  15
ATOM     15  C   UNL     1       7.156  -0.547  25.227  0.00  0.00    +0.114 C 
BRANCH  15  16
ATOM     16  C   UNL     1       8.653  -0.276  25.273  0.00  0.00    +0.218 C 
ATOM     17  N   UNL     1       9.250   0.197  24.097  0.00  0.00    -0.290 N 
ATOM     18  C   UNL     1       8.631   0.043  22.760  0.00  0.00    +0.159 C 
ATOM     19  C   UNL     1       9.463  -0.813  21.805  0.00  0.00    +0.038 C 
ATOM     20  C   UNL     1       8.187   1.375  22.128  0.00  0.00    +0.233 C 
ATOM     21  O   UNL     1       7.011   1.576  21.822  0.00  0.00    -0.274 OA
ATOM     22  N   UNL     1       9.103   2.343  21.850  0.00  0.00    -0.314 N 
ATOM     23  H   UNL     1       8.694   3.169  21.429  0.00  0.00    +0.149 HD
ATOM     24  C   UNL     1      10.493   2.383  22.238  0.00  0.00    +0.106 C 
ATOM     25  C   UNL     1      10.683   2.220  23.736  0.00  0.00    +0.038 C 
ATOM     26  C   UNL     1      10.597   0.766  24.194  0.00  0.00    +0.110 C 
ATOM     27  O   UNL     1       9.298  -0.435  26.309  0.00  0.00    -0.276 OA
ENDBRANCH  15  16
ENDBRANCH   1  15
TORSDOF 5
ENDMDL
MODEL 8
REMARK VINA RESULT:      -6.7      2.448      4.233
REMARK  Name = 
REMARK  6 active torsions:
REMARK  status: ('A' for Active; 'I' for Inactive)
REMARK    1  A    between atoms: C_2  and  N_3
REMARK    2  A    between atoms: C_2  and  C_4
REMARK    3  A    between atoms: C_2  and  C_17
REMARK    4  A    between atoms: C_4  and  C_5
REMARK    5  A    between atoms: C_14  and  C_16
REMARK    6  A    between atoms: C_17  and  C_18
REMARK                            x       y       z     vdW  Elec       q    Type
REMARK                         _______ _______ _______ _____ _____    ______ ____
ROOT
ATOM      1  C   UNL     1       7.215  -0.922  23.398  0.00  0.00    +0.064 C 
ENDROOT
BRANCH   1   2
ATOM      2  N   UNL     1       5.875  -1.517  23.587  0.00  0.00    -0.327 NA
ATOM      3  H   UNL     1       5.235  -1.149  22.884  0.00  0.00    +0.118 HD
ATOM      4  H   UNL     1       5.919  -2.523  23.403  0.00  0.00    +0.118 HD
ENDBRANCH   1   2
BRANCH   1   5
ATOM      5  C   UNL     1       7.148   0.380  22.562  0.00  0.00    +0.057 C 
BRANCH   5   6
ATOM      6  C   UNL     1       8.264   1.359  22.846  0.00  0.00    -0.008 A 
ATOM      7  C   UNL     1       8.150   2.301  23.881  0.00  0.00    +0.047 A 
ATOM      8  C   UNL     1       9.200   3.181  24.132  0.00  0.00    +0.159 A 
ATOM      9  F   UNL     1       9.091   4.067  25.133  0.00  0.00    -0.202 F 
ATOM     10  C   UNL     1      10.357   3.140  23.361  0.00  0.00    +0.161 A 
ATOM     11  F   UNL     1      11.364   3.989  23.613  0.00  0.00    -0.202 F 
ATOM     12  C   UNL     1      10.483   2.227  22.324  0.00  0.00    +0.080 A 
ATOM     13  C   UNL     1       9.437   1.341  22.079  0.00  0.00    +0.129 A 
ATOM     14  F   UNL     1       9.556   0.466  21.071  0.00  0.00    -0.205 F 
ENDBRANCH   5   6
ENDBRANCH   1   5
BRANCH   1  15
ATOM     15  C   UNL     1       8.087  -2.003  22.738  0.00  0.00    +0.114 C 
BRANCH  15  16
ATOM     16  C   UNL     1       7.484  -3.401  22.771  0.00  0.00    +0.218 C 
ATOM     17  N   UNL     1       7.636  -4.131  23.956  0.00  0.00    -0.290 N 
ATOM     18  C   UNL     1       8.668  -3.815  24.972  0.00  0.00    +0.159 C 
ATOM     19  C   UNL     1       9.682  -4.942  25.171  0.00  0.00    +0.038 C 
ATOM     20  C   UNL     1       8.090  -3.296  26.300  0.00  0.00    +0.233 C 
ATOM     21  O   UNL     1       8.393  -2.185  26.737  0.00  0.00    -0.274 OA
ATOM     22  N   UNL     1       7.264  -4.082  27.045  0.00  0.00    -0.314 N 
ATOM     23  H   UNL     1       6.955  -3.636  27.900  0.00  0.00    +0.149 HD
ATOM     24  C   UNL     1       6.674  -5.346  26.673  0.00  0.00    +0.106 C 
ATOM     25  C   UNL     1       5.904  -5.266  25.366  0.00  0.00    +0.038 C 
ATOM     26  C   UNL     1       6.806  -5.326  24.136  0.00  0.00    +0.110 C 
ATOM     27  O   UNL     1       6.862  -3.849  21.808  0.00  0.00    -0.276 OA
ENDBRANCH  15  16
ENDBRANCH   1  15
TORSDOF 5
ENDMDL
MODEL 9
REMARK VINA RESULT:      -6.6      2.712      3.309
REMARK  Name = 
REMARK  6 active torsions:
REMARK  status: ('A' for Active; 'I' for Inactive)
REMARK    1  A    between atoms: C_2  and  N_3
REMARK    2  A    between atoms: C_2  and  C_4
REMARK    3  A    between atoms: C_2  and  C_17
REMARK    4  A    between atoms: C_4  and  C_5
REMARK    5  A    between atoms: C_14  and  C_16
REMARK    6  A    between atoms: C_17  and  C_18
REMARK                            x       y       z     vdW  Elec       q    Type
REMARK                         _______ _______ _______ _____ _____    ______ ____
ROOT
ATOM      1  C   UNL     1       8.491  -2.456  22.619  0.00  0.00    +0.064 C 
ENDROOT
BRANCH   1   2
ATOM      2  N   UNL     1       9.660  -2.341  23.516  0.00  0.00    -0.327 NA
ATOM      3  H   UNL     1      10.498  -2.156  22.964  0.00  0.00    +0.118 HD
ATOM      4  H   UNL     1       9.552  -1.518  24.115  0.00  0.00    +0.118 HD
ENDBRANCH   1   2
BRANCH   1   5
ATOM      5  C   UNL     1       7.624  -1.172  22.643  0.00  0.00    +0.057 C 
BRANCH   5   6
ATOM      6  C   UNL     1       8.411   0.105  22.827  0.00  0.00    -0.008 A 
ATOM      7  C   UNL     1       8.295   0.859  24.006  0.00  0.00    +0.047 A 
ATOM      8  C   UNL     1       9.044   2.024  24.157  0.00  0.00    +0.159 A 
ATOM      9  F   UNL     1       8.942   2.729  25.293  0.00  0.00    -0.202 F 
ATOM     10  C   UNL     1       9.899   2.451  23.145  0.00  0.00    +0.161 A 
ATOM     11  F   UNL     1      10.618   3.572  23.301  0.00  0.00    -0.202 F 
ATOM     12  C   UNL     1      10.015   1.729  21.967  0.00  0.00    +0.080 A 
ATOM     13  C   UNL     1       9.273   0.559  21.821  0.00  0.00    +0.129 A 
ATOM     14  F   UNL     1       9.379  -0.133  20.677  0.00  0.00    -0.205 F 
ENDBRANCH   5   6
ENDBRANCH   1   5
BRANCH   1  15
ATOM     15  C   UNL     1       7.712  -3.703  23.071  0.00  0.00    +0.114 C 
BRANCH  15  16
ATOM     16  C   UNL     1       8.204  -4.309  24.378  0.00  0.00    +0.218 C 
ATOM     17  N   UNL     1       7.513  -3.954  25.543  0.00  0.00    -0.290 N 
ATOM     18  C   UNL     1       6.654  -2.751  25.638  0.00  0.00    +0.159 C 
ATOM     19  C   UNL     1       7.152  -1.733  26.664  0.00  0.00    +0.038 C 
ATOM     20  C   UNL     1       5.158  -3.071  25.798  0.00  0.00    +0.233 C 
ATOM     21  O   UNL     1       4.329  -2.678  24.976  0.00  0.00    -0.274 OA
ATOM     22  N   UNL     1       4.714  -3.758  26.887  0.00  0.00    -0.314 N 
ATOM     23  H   UNL     1       3.711  -3.900  26.886  0.00  0.00    +0.149 HD
ATOM     24  C   UNL     1       5.504  -4.424  27.894  0.00  0.00    +0.106 C 
ATOM     25  C   UNL     1       6.487  -5.418  27.300  0.00  0.00    +0.038 C 
ATOM     26  C   UNL     1       7.748  -4.755  26.749  0.00  0.00    +0.110 C 
ATOM     27  O   UNL     1       9.145  -5.102  24.397  0.00  0.00    -0.276 OA
ENDBRANCH  15  16
ENDBRANCH   1  15
TORSDOF 5
ENDMDL
