MODEL 1
REMARK VINA RESULT:      -6.8      0.000      0.000
REMARK  Name = 
REMARK  4 active torsions:
REMARK  status: ('A' for Active; 'I' for Inactive)
REMARK    1  A    between atoms: C_1  and  C_2
REMARK    2  A    between atoms: C_2  and  C_3
REMARK    3  A    between atoms: C_9  and  C_10
REMARK    4  A    between atoms: C_16  and  C_17
REMARK                            x       y       z     vdW  Elec       q    Type
REMARK                         _______ _______ _______ _____ _____    ______ ____
ROOT
ATOM      1  C   UNL     1       6.501  -4.506  22.407  0.00  0.00    -0.008 A 
ATOM      2  S   UNL     1       5.737  -5.534  23.535  0.00  0.00    -0.075 S 
ATOM      3  C   UNL     1       6.601  -4.867  24.835  0.00  0.00    +0.097 A 
ATOM      4  N   UNL     1       6.473  -5.421  26.111  0.00  0.00    -0.275 N 
ATOM      5  C   UNL     1       7.492  -5.415  27.046  0.00  0.00    +0.160 A 
ATOM      6  C   UNL     1       8.827  -4.854  26.748  0.00  0.00    +0.218 C 
ATOM      7  N   UNL     1       8.774  -3.430  26.454  0.00  0.00    -0.275 NA
ATOM      8  C   UNL     1       8.225  -2.979  25.381  0.00  0.00    +0.077 C 
ATOM      9  N   UNL     1       7.143  -6.087  28.118  0.00  0.00    -0.132 NA
ATOM     10  N   UNL     1       5.867  -6.525  27.933  0.00  0.00    -0.134 NA
ATOM     11  C   UNL     1       5.448  -6.111  26.752  0.00  0.00    +0.135 A 
ATOM     12  C   UNL     1       4.047  -6.281  26.301  0.00  0.00    +0.088 C 
ATOM     13  C   UNL     1       7.453  -3.835  24.459  0.00  0.00    +0.032 A 
ATOM     14  C   UNL     1       7.411  -3.677  23.026  0.00  0.00    +0.023 A 
ENDROOT
BRANCH   8  15
ATOM     15  C   UNL     1       8.346  -1.515  25.054  0.00  0.00    +0.019 A 
ATOM     16  C   UNL     1       7.272  -0.619  25.190  0.00  0.00    +0.050 A 
ATOM     17 CL   UNL     1       5.691  -1.068  25.730  0.00  0.00    -0.083 Cl
ATOM     18  C   UNL     1       7.461   0.748  24.934  0.00  0.00    +0.020 A 
ATOM     19  C   UNL     1       8.711   1.237  24.557  0.00  0.00    +0.001 A 
ATOM     20  C   UNL     1       9.772   0.357  24.393  0.00  0.00    +0.001 A 
ATOM     21  C   UNL     1       9.588  -1.011  24.617  0.00  0.00    +0.011 A 
ENDBRANCH   8  15
BRANCH   1  23
ATOM     22  C   UNL     1       6.171  -5.997  20.429  0.00  0.00    +0.009 C 
ATOM     23  C   UNL     1       6.160  -4.568  20.949  0.00  0.00    +0.039 C 
ENDBRANCH   1  23
TORSDOF 2
ENDMDL
MODEL 2
REMARK VINA RESULT:      -6.4      2.995      6.447
REMARK  Name = 
REMARK  4 active torsions:
REMARK  status: ('A' for Active; 'I' for Inactive)
REMARK    1  A    between atoms: C_1  and  C_2
REMARK    2  A    between atoms: C_2  and  C_3
REMARK    3  A    between atoms: C_9  and  C_10
REMARK    4  A    between atoms: C_16  and  C_17
REMARK                            x       y       z     vdW  Elec       q    Type
REMARK                         _______ _______ _______ _____ _____    ______ ____
ROOT
ATOM      1  C   UNL     1       5.774  -0.624  25.803  0.00  0.00    -0.008 A 
ATOM      2  S   UNL     1       6.779   0.281  24.762  0.00  0.00    -0.075 S 
ATOM      3  C   UNL     1       7.531  -1.116  24.158  0.00  0.00    +0.097 A 
ATOM      4  N   UNL     1       8.609  -0.998  23.277  0.00  0.00    -0.275 N 
ATOM      5  C   UNL     1       9.639  -1.918  23.212  0.00  0.00    +0.160 A 
ATOM      6  C   UNL     1       9.702  -3.089  24.111  0.00  0.00    +0.218 C 
ATOM      7  N   UNL     1       8.575  -3.991  23.925  0.00  0.00    -0.275 NA
ATOM      8  C   UNL     1       7.379  -3.658  24.264  0.00  0.00    +0.077 C 
ATOM      9  N   UNL     1      10.568  -1.517  22.375  0.00  0.00    -0.132 NA
ATOM     10  N   UNL     1      10.157  -0.335  21.838  0.00  0.00    -0.134 NA
ATOM     11  C   UNL     1       8.979  -0.029  22.348  0.00  0.00    +0.135 A 
ATOM     12  C   UNL     1       8.175   1.116  21.861  0.00  0.00    +0.088 C 
ATOM     13  C   UNL     1       7.021  -2.293  24.695  0.00  0.00    +0.032 A 
ATOM     14  C   UNL     1       6.028  -1.974  25.691  0.00  0.00    +0.023 A 
ENDROOT
BRANCH   8  15
ATOM     15  C   UNL     1       6.285  -4.690  24.200  0.00  0.00    +0.019 A 
ATOM     16  C   UNL     1       6.021  -5.577  25.259  0.00  0.00    +0.050 A 
ATOM     17 CL   UNL     1       6.907  -5.612  26.744  0.00  0.00    -0.083 Cl
ATOM     18  C   UNL     1       4.945  -6.474  25.171  0.00  0.00    +0.020 A 
ATOM     19  C   UNL     1       4.119  -6.490  24.048  0.00  0.00    +0.001 A 
ATOM     20  C   UNL     1       4.387  -5.636  22.986  0.00  0.00    +0.001 A 
ATOM     21  C   UNL     1       5.473  -4.759  23.051  0.00  0.00    +0.011 A 
ENDBRANCH   8  15
BRANCH   1  23
ATOM     22  C   UNL     1       5.305   0.236  28.102  0.00  0.00    +0.009 C 
ATOM     23  C   UNL     1       4.772   0.050  26.690  0.00  0.00    +0.039 C 
ENDBRANCH   1  23
TORSDOF 2
ENDMDL
MODEL 3
REMARK VINA RESULT:      -6.2      3.941      7.173
REMARK  Name = 
REMARK  4 active torsions:
REMARK  status: ('A' for Active; 'I' for Inactive)
REMARK    1  A    between atoms: C_1  and  C_2
REMARK    2  A    between atoms: C_2  and  C_3
REMARK    3  A    between atoms: C_9  and  C_10
REMARK    4  A    between atoms: C_16  and  C_17
REMARK                            x       y       z     vdW  Elec       q    Type
REMARK                         _______ _______ _______ _____ _____    ______ ____
ROOT
ATOM      1  C   UNL     1       6.585   0.074  26.932  0.00  0.00    -0.008 A 
ATOM      2  S   UNL     1       7.100   1.645  26.508  0.00  0.00    -0.075 S 
ATOM      3  C   UNL     1       8.129   1.056  25.292  0.00  0.00    +0.097 A 
ATOM      4  N   UNL     1       8.972   1.936  24.609  0.00  0.00    -0.275 N 
ATOM      5  C   UNL     1      10.205   1.567  24.105  0.00  0.00    +0.160 A 
ATOM      6  C   UNL     1      10.753   0.207  24.290  0.00  0.00    +0.218 C 
ATOM      7  N   UNL     1       9.930  -0.812  23.656  0.00  0.00    -0.275 NA
ATOM      8  C   UNL     1       8.757  -1.106  24.097  0.00  0.00    +0.077 C 
ATOM      9  N   UNL     1      10.830   2.606  23.600  0.00  0.00    -0.132 NA
ATOM     10  N   UNL     1      10.009   3.684  23.727  0.00  0.00    -0.134 NA
ATOM     11  C   UNL     1       8.887   3.292  24.303  0.00  0.00    +0.135 A 
ATOM     12  C   UNL     1       7.714   4.185  24.448  0.00  0.00    +0.088 C 
ATOM     13  C   UNL     1       8.082  -0.326  25.153  0.00  0.00    +0.032 A 
ATOM     14  C   UNL     1       7.208  -0.880  26.157  0.00  0.00    +0.023 A 
ENDROOT
BRANCH   8  15
ATOM     15  C   UNL     1       8.023  -2.278  23.503  0.00  0.00    +0.019 A 
ATOM     16  C   UNL     1       8.358  -3.610  23.805  0.00  0.00    +0.050 A 
ATOM     17 CL   UNL     1       9.640  -4.076  24.869  0.00  0.00    -0.083 Cl
ATOM     18  C   UNL     1       7.596  -4.662  23.274  0.00  0.00    +0.020 A 
ATOM     19  C   UNL     1       6.496  -4.406  22.457  0.00  0.00    +0.001 A 
ATOM     20  C   UNL     1       6.173  -3.095  22.131  0.00  0.00    +0.001 A 
ATOM     21  C   UNL     1       6.943  -2.040  22.631  0.00  0.00    +0.011 A 
ENDBRANCH   8  15
BRANCH   1  23
ATOM     22  C   UNL     1       5.155   1.169  28.664  0.00  0.00    +0.009 C 
ATOM     23  C   UNL     1       5.579  -0.142  28.022  0.00  0.00    +0.039 C 
ENDBRANCH   1  23
TORSDOF 2
ENDMDL
MODEL 4
REMARK VINA RESULT:      -6.1      2.775      4.249
REMARK  Name = 
REMARK  4 active torsions:
REMARK  status: ('A' for Active; 'I' for Inactive)
REMARK    1  A    between atoms: C_1  and  C_2
REMARK    2  A    between atoms: C_2  and  C_3
REMARK    3  A    between atoms: C_9  and  C_10
REMARK    4  A    between atoms: C_16  and  C_17
REMARK                            x       y       z     vdW  Elec       q    Type
REMARK                         _______ _______ _______ _____ _____    ______ ____
ROOT
ATOM      1  C   UNL     1       4.793  -1.738  26.161  0.00  0.00    -0.008 A 
ATOM      2  S   UNL     1       4.227  -3.257  26.693  0.00  0.00    -0.075 S 
ATOM      3  C   UNL     1       4.971  -4.067  25.400  0.00  0.00    +0.097 A 
ATOM      4  N   UNL     1       4.756  -5.436  25.220  0.00  0.00    -0.275 N 
ATOM      5  C   UNL     1       4.756  -6.047  23.981  0.00  0.00    +0.160 A 
ATOM      6  C   UNL     1       4.944  -5.284  22.729  0.00  0.00    +0.218 C 
ATOM      7  N   UNL     1       6.245  -4.635  22.668  0.00  0.00    -0.275 NA
ATOM      8  C   UNL     1       6.549  -3.653  23.441  0.00  0.00    +0.077 C 
ATOM      9  N   UNL     1       4.430  -7.314  24.088  0.00  0.00    -0.132 NA
ATOM     10  N   UNL     1       4.239  -7.582  25.409  0.00  0.00    -0.134 NA
ATOM     11  C   UNL     1       4.457  -6.476  26.096  0.00  0.00    +0.135 A 
ATOM     12  C   UNL     1       4.488  -6.454  27.577  0.00  0.00    +0.088 C 
ATOM     13  C   UNL     1       5.691  -3.223  24.561  0.00  0.00    +0.032 A 
ATOM     14  C   UNL     1       5.529  -1.859  25.002  0.00  0.00    +0.023 A 
ENDROOT
BRANCH   8  15
ATOM     15  C   UNL     1       7.845  -2.918  23.220  0.00  0.00    +0.019 A 
ATOM     16  C   UNL     1       8.971  -3.110  24.038  0.00  0.00    +0.050 A 
ATOM     17 CL   UNL     1       9.020  -4.185  25.393  0.00  0.00    -0.083 Cl
ATOM     18  C   UNL     1      10.173  -2.448  23.745  0.00  0.00    +0.020 A 
ATOM     19  C   UNL     1      10.273  -1.607  22.637  0.00  0.00    +0.001 A 
ATOM     20  C   UNL     1       9.159  -1.390  21.837  0.00  0.00    +0.001 A 
ATOM     21  C   UNL     1       7.948  -2.022  22.138  0.00  0.00    +0.011 A 
ENDBRANCH   8  15
BRANCH   1  23
ATOM     22  C   UNL     1       5.649  -0.046  27.788  0.00  0.00    +0.009 C 
ATOM     23  C   UNL     1       4.479  -0.486  26.922  0.00  0.00    +0.039 C 
ENDBRANCH   1  23
TORSDOF 2
ENDMDL
MODEL 5
REMARK VINA RESULT:      -6.1      2.609      4.513
REMARK  Name = 
REMARK  4 active torsions:
REMARK  status: ('A' for Active; 'I' for Inactive)
REMARK    1  A    between atoms: C_1  and  C_2
REMARK    2  A    between atoms: C_2  and  C_3
REMARK    3  A    between atoms: C_9  and  C_10
REMARK    4  A    between atoms: C_16  and  C_17
REMARK                            x       y       z     vdW  Elec       q    Type
REMARK                         _______ _______ _______ _____ _____    ______ ____
ROOT
ATOM      1  C   UNL     1       5.328   0.078  25.644  0.00  0.00    -0.008 A 
ATOM      2  S   UNL     1       5.073  -1.586  25.928  0.00  0.00    -0.075 S 
ATOM      3  C   UNL     1       6.234  -2.034  24.773  0.00  0.00    +0.097 A 
ATOM      4  N   UNL     1       6.411  -3.382  24.453  0.00  0.00    -0.275 N 
ATOM      5  C   UNL     1       6.807  -3.818  23.202  0.00  0.00    +0.160 A 
ATOM      6  C   UNL     1       7.034  -2.883  22.081  0.00  0.00    +0.218 C 
ATOM      7  N   UNL     1       8.114  -1.947  22.351  0.00  0.00    -0.275 NA
ATOM      8  C   UNL     1       8.004  -1.025  23.242  0.00  0.00    +0.077 C 
ATOM      9  N   UNL     1       6.798  -5.130  23.144  0.00  0.00    -0.132 NA
ATOM     10  N   UNL     1       6.429  -5.595  24.369  0.00  0.00    -0.134 NA
ATOM     11  C   UNL     1       6.222  -4.563  25.165  0.00  0.00    +0.135 A 
ATOM     12  C   UNL     1       5.960  -4.718  26.615  0.00  0.00    +0.088 C 
ATOM     13  C   UNL     1       6.864  -0.948  24.175  0.00  0.00    +0.032 A 
ATOM     14  C   UNL     1       6.281   0.276  24.668  0.00  0.00    +0.023 A 
ENDROOT
BRANCH   8  15
ATOM     15  C   UNL     1       9.088   0.013  23.361  0.00  0.00    +0.019 A 
ATOM     16  C   UNL     1       9.126   1.163  22.553  0.00  0.00    +0.050 A 
ATOM     17 CL   UNL     1       7.961   1.531  21.328  0.00  0.00    -0.083 Cl
ATOM     18  C   UNL     1      10.123   2.130  22.754  0.00  0.00    +0.020 A 
ATOM     19  C   UNL     1      11.077   1.973  23.758  0.00  0.00    +0.001 A 
ATOM     20  C   UNL     1      11.066   0.828  24.544  0.00  0.00    +0.001 A 
ATOM     21  C   UNL     1      10.094  -0.155  24.334  0.00  0.00    +0.011 A 
ENDBRANCH   8  15
BRANCH   1  23
ATOM     22  C   UNL     1       4.641   0.883  27.907  0.00  0.00    +0.009 C 
ATOM     23  C   UNL     1       4.566   1.118  26.407  0.00  0.00    +0.039 C 
ENDBRANCH   1  23
TORSDOF 2
ENDMDL
MODEL 6
REMARK VINA RESULT:      -6.1      2.641      4.591
REMARK  Name = 
REMARK  4 active torsions:
REMARK  status: ('A' for Active; 'I' for Inactive)
REMARK    1  A    between atoms: C_1  and  C_2
REMARK    2  A    between atoms: C_2  and  C_3
REMARK    3  A    between atoms: C_9  and  C_10
REMARK    4  A    between atoms: C_16  and  C_17
REMARK                            x       y       z     vdW  Elec       q    Type
REMARK                         _______ _______ _______ _____ _____    ______ ____
ROOT
ATOM      1  C   UNL     1       5.166  -1.027  26.330  0.00  0.00    -0.008 A 
ATOM      2  S   UNL     1       5.806  -2.598  26.514  0.00  0.00    -0.075 S 
ATOM      3  C   UNL     1       6.781  -2.440  25.134  0.00  0.00    +0.097 A 
ATOM      4  N   UNL     1       7.517  -3.536  24.674  0.00  0.00    -0.275 N 
ATOM      5  C   UNL     1       7.815  -3.743  23.340  0.00  0.00    +0.160 A 
ATOM      6  C   UNL     1       7.334  -2.834  22.279  0.00  0.00    +0.218 C 
ATOM      7  N   UNL     1       7.860  -1.485  22.426  0.00  0.00    -0.275 NA
ATOM      8  C   UNL     1       7.500  -0.720  23.396  0.00  0.00    +0.077 C 
ATOM      9  N   UNL     1       8.426  -4.892  23.174  0.00  0.00    -0.132 NA
ATOM     10  N   UNL     1       8.581  -5.459  24.402  0.00  0.00    -0.134 NA
ATOM     11  C   UNL     1       8.067  -4.647  25.307  0.00  0.00    +0.135 A 
ATOM     12  C   UNL     1       8.207  -4.888  26.762  0.00  0.00    +0.088 C 
ATOM     13  C   UNL     1       6.677  -1.195  24.525  0.00  0.00    +0.032 A 
ATOM     14  C   UNL     1       5.688  -0.404  25.217  0.00  0.00    +0.023 A 
ENDROOT
BRANCH   8  15
ATOM     15  C   UNL     1       7.950   0.717  23.404  0.00  0.00    +0.019 A 
ATOM     16  C   UNL     1       9.037   1.163  24.175  0.00  0.00    +0.050 A 
ATOM     17 CL   UNL     1       9.981   0.147  25.210  0.00  0.00    -0.083 Cl
ATOM     18  C   UNL     1       9.455   2.501  24.092  0.00  0.00    +0.020 A 
ATOM     19  C   UNL     1       8.812   3.397  23.239  0.00  0.00    +0.001 A 
ATOM     20  C   UNL     1       7.720   2.973  22.493  0.00  0.00    +0.001 A 
ATOM     21  C   UNL     1       7.278   1.651  22.590  0.00  0.00    +0.011 A 
ENDBRANCH   8  15
BRANCH   1  23
ATOM     22  C   UNL     1       4.846   0.218  28.472  0.00  0.00    +0.009 C 
ATOM     23  C   UNL     1       4.167  -0.479  27.304  0.00  0.00    +0.039 C 
ENDBRANCH   1  23
TORSDOF 2
ENDMDL
MODEL 7
REMARK VINA RESULT:      -6.0      2.559      2.932
REMARK  Name = 
REMARK  4 active torsions:
REMARK  status: ('A' for Active; 'I' for Inactive)
REMARK    1  A    between atoms: C_1  and  C_2
REMARK    2  A    between atoms: C_2  and  C_3
REMARK    3  A    between atoms: C_9  and  C_10
REMARK    4  A    between atoms: C_16  and  C_17
REMARK                            x       y       z     vdW  Elec       q    Type
REMARK                         _______ _______ _______ _____ _____    ______ ____
ROOT
ATOM      1  C   UNL     1       6.974  -4.692  22.605  0.00  0.00    -0.008 A 
ATOM      2  S   UNL     1       5.638  -4.893  23.647  0.00  0.00    -0.075 S 
ATOM      3  C   UNL     1       5.987  -3.461  24.488  0.00  0.00    +0.097 A 
ATOM      4  N   UNL     1       5.242  -3.120  25.620  0.00  0.00    -0.275 N 
ATOM      5  C   UNL     1       5.762  -2.406  26.683  0.00  0.00    +0.160 A 
ATOM      6  C   UNL     1       7.177  -1.980  26.725  0.00  0.00    +0.218 C 
ATOM      7  N   UNL     1       7.510  -1.063  25.646  0.00  0.00    -0.275 NA
ATOM      8  C   UNL     1       7.548  -1.447  24.418  0.00  0.00    +0.077 C 
ATOM      9  N   UNL     1       4.883  -2.312  27.653  0.00  0.00    -0.132 NA
ATOM     10  N   UNL     1       3.744  -2.932  27.240  0.00  0.00    -0.134 NA
ATOM     11  C   UNL     1       3.937  -3.395  26.019  0.00  0.00    +0.135 A 
ATOM     12  C   UNL     1       2.846  -3.987  25.211  0.00  0.00    +0.088 C 
ATOM     13  C   UNL     1       7.090  -2.780  23.984  0.00  0.00    +0.032 A 
ATOM     14  C   UNL     1       7.678  -3.548  22.913  0.00  0.00    +0.023 A 
ENDROOT
BRANCH   8  15
ATOM     15  C   UNL     1       8.058  -0.496  23.368  0.00  0.00    +0.019 A 
ATOM     16  C   UNL     1       9.347  -0.602  22.816  0.00  0.00    +0.050 A 
ATOM     17 CL   UNL     1      10.504  -1.806  23.266  0.00  0.00    -0.083 Cl
ATOM     18  C   UNL     1       9.745   0.271  21.791  0.00  0.00    +0.020 A 
ATOM     19  C   UNL     1       8.871   1.240  21.300  0.00  0.00    +0.001 A 
ATOM     20  C   UNL     1       7.606   1.370  21.857  0.00  0.00    +0.001 A 
ATOM     21  C   UNL     1       7.209   0.525  22.897  0.00  0.00    +0.011 A 
ENDBRANCH   8  15
BRANCH   1  23
ATOM     22  C   UNL     1       6.028  -5.997  20.696  0.00  0.00    +0.009 C 
ATOM     23  C   UNL     1       7.266  -5.684  21.520  0.00  0.00    +0.039 C 
ENDBRANCH   1  23
TORSDOF 2
ENDMDL
MODEL 8
REMARK VINA RESULT:      -6.0      1.562      1.934
REMARK  Name = 
REMARK  4 active torsions:
REMARK  status: ('A' for Active; 'I' for Inactive)
REMARK    1  A    between atoms: C_1  and  C_2
REMARK    2  A    between atoms: C_2  and  C_3
REMARK    3  A    between atoms: C_9  and  C_10
REMARK    4  A    between atoms: C_16  and  C_17
REMARK                            x       y       z     vdW  Elec       q    Type
REMARK                         _______ _______ _______ _____ _____    ______ ____
ROOT
ATOM      1  C   UNL     1       5.707  -5.812  22.946  0.00  0.00    -0.008 A 
ATOM      2  S   UNL     1       5.003  -6.569  24.303  0.00  0.00    -0.075 S 
ATOM      3  C   UNL     1       5.847  -5.571  25.387  0.00  0.00    +0.097 A 
ATOM      4  N   UNL     1       5.758  -5.806  26.761  0.00  0.00    -0.275 N 
ATOM      5  C   UNL     1       6.784  -5.530  27.645  0.00  0.00    +0.160 A 
ATOM      6  C   UNL     1       8.087  -4.999  27.193  0.00  0.00    +0.218 C 
ATOM      7  N   UNL     1       7.964  -3.691  26.566  0.00  0.00    -0.275 NA
ATOM      8  C   UNL     1       7.384  -3.538  25.428  0.00  0.00    +0.077 C 
ATOM      9  N   UNL     1       6.477  -5.937  28.855  0.00  0.00    -0.132 NA
ATOM     10  N   UNL     1       5.222  -6.462  28.807  0.00  0.00    -0.134 NA
ATOM     11  C   UNL     1       4.772  -6.365  27.570  0.00  0.00    +0.135 A 
ATOM     12  C   UNL     1       3.377  -6.700  27.202  0.00  0.00    +0.088 C 
ATOM     13  C   UNL     1       6.646  -4.624  24.755  0.00  0.00    +0.032 A 
ATOM     14  C   UNL     1       6.583  -4.819  23.328  0.00  0.00    +0.023 A 
ENDROOT
BRANCH   8  15
ATOM     15  C   UNL     1       7.433  -2.192  24.756  0.00  0.00    +0.019 A 
ATOM     16  C   UNL     1       8.556  -1.748  24.035  0.00  0.00    +0.050 A 
ATOM     17 CL   UNL     1      10.011  -2.664  23.838  0.00  0.00    -0.083 Cl
ATOM     18  C   UNL     1       8.521  -0.512  23.372  0.00  0.00    +0.020 A 
ATOM     19  C   UNL     1       7.376   0.283  23.405  0.00  0.00    +0.001 A 
ATOM     20  C   UNL     1       6.271  -0.133  24.136  0.00  0.00    +0.001 A 
ATOM     21  C   UNL     1       6.306  -1.350  24.824  0.00  0.00    +0.011 A 
ENDBRANCH   8  15
BRANCH   1  23
ATOM     22  C   UNL     1       6.269  -5.599  20.520  0.00  0.00    +0.009 C 
ATOM     23  C   UNL     1       5.355  -6.239  21.553  0.00  0.00    +0.039 C 
ENDBRANCH   1  23
TORSDOF 2
ENDMDL
MODEL 9
REMARK VINA RESULT:      -6.0      3.935      6.887
REMARK  Name = 
REMARK  4 active torsions:
REMARK  status: ('A' for Active; 'I' for Inactive)
REMARK    1  A    between atoms: C_1  and  C_2
REMARK    2  A    between atoms: C_2  and  C_3
REMARK    3  A    between atoms: C_9  and  C_10
REMARK    4  A    between atoms: C_16  and  C_17
REMARK                            x       y       z     vdW  Elec       q    Type
REMARK                         _______ _______ _______ _____ _____    ______ ____
ROOT
ATOM      1  C   UNL     1       5.502  -0.736  26.065  0.00  0.00    -0.008 A 
ATOM      2  S   UNL     1       5.373   0.811  25.356  0.00  0.00    -0.075 S 
ATOM      3  C   UNL     1       6.423   0.396  24.088  0.00  0.00    +0.097 A 
ATOM      4  N   UNL     1       6.822   1.370  23.170  0.00  0.00    -0.275 N 
ATOM      5  C   UNL     1       8.051   1.357  22.536  0.00  0.00    +0.160 A 
ATOM      6  C   UNL     1       9.068   0.321  22.818  0.00  0.00    +0.218 C 
ATOM      7  N   UNL     1       8.609  -1.014  22.463  0.00  0.00    -0.275 NA
ATOM      8  C   UNL     1       7.670  -1.603  23.116  0.00  0.00    +0.077 C 
ATOM      9  N   UNL     1       8.209   2.435  21.805  0.00  0.00    -0.132 NA
ATOM     10  N   UNL     1       7.070   3.175  21.910  0.00  0.00    -0.134 NA
ATOM     11  C   UNL     1       6.226   2.537  22.699  0.00  0.00    +0.135 A 
ATOM     12  C   UNL     1       4.830   2.989  22.901  0.00  0.00    +0.088 C 
ATOM     13  C   UNL     1       6.864  -0.921  24.147  0.00  0.00    +0.032 A 
ATOM     14  C   UNL     1       6.349  -1.547  25.340  0.00  0.00    +0.023 A 
ENDROOT
BRANCH   8  15
ATOM     15  C   UNL     1       7.354  -3.042  22.807  0.00  0.00    +0.019 A 
ATOM     16  C   UNL     1       8.021  -4.112  23.429  0.00  0.00    +0.050 A 
ATOM     17 CL   UNL     1       9.280  -3.926  24.601  0.00  0.00    -0.083 Cl
ATOM     18  C   UNL     1       7.639  -5.434  23.152  0.00  0.00    +0.020 A 
ATOM     19  C   UNL     1       6.591  -5.704  22.273  0.00  0.00    +0.001 A 
ATOM     20  C   UNL     1       5.943  -4.656  21.634  0.00  0.00    +0.001 A 
ATOM     21  C   UNL     1       6.335  -3.337  21.880  0.00  0.00    +0.011 A 
ENDBRANCH   8  15
BRANCH   1  23
ATOM     22  C   UNL     1       3.353  -1.593  27.010  0.00  0.00    +0.009 C 
ATOM     23  C   UNL     1       4.751  -1.079  27.316  0.00  0.00    +0.039 C 
ENDBRANCH   1  23
TORSDOF 2
ENDMDL
