MODEL 1
REMARK VINA RESULT:      -5.2      0.000      0.000
REMARK  Name = 
REMARK  3 active torsions:
REMARK  status: ('A' for Active; 'I' for Inactive)
REMARK    1  A    between atoms: N_1  and  C_2
REMARK    2  A    between atoms: C_2  and  C_3
REMARK    3  A    between atoms: C_3  and  C_4
REMARK                            x       y       z     vdW  Elec       q    Type
REMARK                         _______ _______ _______ _____ _____    ______ ____
ROOT
ATOM      1  C   UNL     1       9.687  -1.710  23.128  0.00  0.00    -0.021 A 
ATOM      2  C   UNL     1       9.994  -0.322  23.305  0.00  0.00    +0.003 A 
ATOM      3  C   UNL     1       9.775   0.315  22.083  0.00  0.00    +0.047 A 
ATOM      4  C   UNL     1       9.981   1.687  21.895  0.00  0.00    +0.026 A 
ATOM      5  C   UNL     1      10.424   2.432  22.991  0.00  0.00    +0.002 A 
ATOM      6  C   UNL     1      10.652   1.827  24.225  0.00  0.00    +0.001 A 
ATOM      7  N   UNL     1       9.350  -0.647  21.197  0.00  0.00    -0.360 N 
ATOM      8  H   UNL     1       9.118  -0.471  20.229  0.00  0.00    +0.165 HD
ATOM      9  C   UNL     1      10.441   0.454  24.395  0.00  0.00    +0.010 A 
ATOM     10  C   UNL     1       9.294  -1.868  21.812  0.00  0.00    +0.087 A 
ENDROOT
BRANCH   1  11
ATOM     11  C   UNL     1       9.774  -2.791  24.160  0.00  0.00    +0.052 C 
BRANCH  11  12
ATOM     12  C   UNL     1       8.605  -3.779  24.060  0.00  0.00    +0.082 C 
BRANCH  12  13
ATOM     13  N   UNL     1       9.028  -5.147  24.366  0.00  0.00    -0.330 NA
ATOM     14  H   UNL     1       8.506  -5.493  25.170  0.00  0.00    +0.118 HD
ATOM     15  H   UNL     1       8.779  -5.753  23.584  0.00  0.00    +0.118 HD
ENDBRANCH  12  13
ENDBRANCH  11  12
ENDBRANCH   1  11
TORSDOF 3
ENDMDL
MODEL 2
REMARK VINA RESULT:      -5.0      1.086      1.158
REMARK  Name = 
REMARK  3 active torsions:
REMARK  status: ('A' for Active; 'I' for Inactive)
REMARK    1  A    between atoms: N_1  and  C_2
REMARK    2  A    between atoms: C_2  and  C_3
REMARK    3  A    between atoms: C_3  and  C_4
REMARK                            x       y       z     vdW  Elec       q    Type
REMARK                         _______ _______ _______ _____ _____    ______ ____
ROOT
ATOM      1  C   UNL     1       9.070  -2.343  23.975  0.00  0.00    -0.021 A 
ATOM      2  C   UNL     1       9.581  -1.008  23.870  0.00  0.00    +0.003 A 
ATOM      3  C   UNL     1       9.392  -0.589  22.553  0.00  0.00    +0.047 A 
ATOM      4  C   UNL     1       9.781   0.675  22.095  0.00  0.00    +0.026 A 
ATOM      5  C   UNL     1      10.383   1.540  23.014  0.00  0.00    +0.002 A 
ATOM      6  C   UNL     1      10.587   1.153  24.336  0.00  0.00    +0.001 A 
ATOM      7  N   UNL     1       8.788  -1.627  21.882  0.00  0.00    -0.360 N 
ATOM      8  H   UNL     1       8.533  -1.605  20.905  0.00  0.00    +0.165 HD
ATOM      9  C   UNL     1      10.191  -0.116  24.777  0.00  0.00    +0.010 A 
ATOM     10  C   UNL     1       8.590  -2.686  22.726  0.00  0.00    +0.087 A 
ENDROOT
BRANCH   1  11
ATOM     11  C   UNL     1       9.056  -3.208  25.197  0.00  0.00    +0.052 C 
BRANCH  11  12
ATOM     12  C   UNL     1       9.016  -4.700  24.845  0.00  0.00    +0.082 C 
BRANCH  12  13
ATOM     13  N   UNL     1      10.199  -5.404  25.344  0.00  0.00    -0.330 NA
ATOM     14  H   UNL     1      10.143  -6.388  25.087  0.00  0.00    +0.118 HD
ATOM     15  H   UNL     1      11.026  -5.035  24.875  0.00  0.00    +0.118 HD
ENDBRANCH  12  13
ENDBRANCH  11  12
ENDBRANCH   1  11
TORSDOF 3
ENDMDL
MODEL 3
REMARK VINA RESULT:      -5.0      1.779      2.373
REMARK  Name = 
REMARK  3 active torsions:
REMARK  status: ('A' for Active; 'I' for Inactive)
REMARK    1  A    between atoms: N_1  and  C_2
REMARK    2  A    between atoms: C_2  and  C_3
REMARK    3  A    between atoms: C_3  and  C_4
REMARK                            x       y       z     vdW  Elec       q    Type
REMARK                         _______ _______ _______ _____ _____    ______ ____
ROOT
ATOM      1  C   UNL     1       9.510  -1.341  24.471  0.00  0.00    -0.021 A 
ATOM      2  C   UNL     1       9.650  -0.094  23.779  0.00  0.00    +0.003 A 
ATOM      3  C   UNL     1       9.333   0.923  24.680  0.00  0.00    +0.047 A 
ATOM      4  C   UNL     1       9.363   2.280  24.335  0.00  0.00    +0.026 A 
ATOM      5  C   UNL     1       9.730   2.607  23.027  0.00  0.00    +0.002 A 
ATOM      6  C   UNL     1      10.052   1.616  22.103  0.00  0.00    +0.001 A 
ATOM      7  N   UNL     1       9.014   0.320  25.874  0.00  0.00    -0.360 N 
ATOM      8  H   UNL     1       8.740   0.816  26.711  0.00  0.00    +0.165 HD
ATOM      9  C   UNL     1      10.017   0.264  22.465  0.00  0.00    +0.010 A 
ATOM     10  C   UNL     1       9.116  -1.040  25.761  0.00  0.00    +0.087 A 
ENDROOT
BRANCH   1  11
ATOM     11  C   UNL     1       9.741  -2.711  23.914  0.00  0.00    +0.052 C 
BRANCH  11  12
ATOM     12  C   UNL     1       9.231  -3.810  24.854  0.00  0.00    +0.082 C 
BRANCH  12  13
ATOM     13  N   UNL     1      10.139  -4.957  24.886  0.00  0.00    -0.330 NA
ATOM     14  H   UNL     1       9.823  -5.660  24.218  0.00  0.00    +0.118 HD
ATOM     15  H   UNL     1      11.061  -4.659  24.569  0.00  0.00    +0.118 HD
ENDBRANCH  12  13
ENDBRANCH  11  12
ENDBRANCH   1  11
TORSDOF 3
ENDMDL
MODEL 4
REMARK VINA RESULT:      -4.8      1.809      5.340
REMARK  Name = 
REMARK  3 active torsions:
REMARK  status: ('A' for Active; 'I' for Inactive)
REMARK    1  A    between atoms: N_1  and  C_2
REMARK    2  A    between atoms: C_2  and  C_3
REMARK    3  A    between atoms: C_3  and  C_4
REMARK                            x       y       z     vdW  Elec       q    Type
REMARK                         _______ _______ _______ _____ _____    ______ ____
ROOT
ATOM      1  C   UNL     1       9.196  -1.621  22.474  0.00  0.00    -0.021 A 
ATOM      2  C   UNL     1       8.147  -2.571  22.698  0.00  0.00    +0.003 A 
ATOM      3  C   UNL     1       8.569  -3.430  23.712  0.00  0.00    +0.047 A 
ATOM      4  C   UNL     1       7.785  -4.489  24.186  0.00  0.00    +0.026 A 
ATOM      5  C   UNL     1       6.528  -4.675  23.604  0.00  0.00    +0.002 A 
ATOM      6  C   UNL     1       6.076  -3.835  22.589  0.00  0.00    +0.001 A 
ATOM      7  N   UNL     1       9.825  -3.019  24.093  0.00  0.00    -0.360 N 
ATOM      8  H   UNL     1      10.379  -3.462  24.813  0.00  0.00    +0.165 HD
ATOM      9  C   UNL     1       6.874  -2.781  22.127  0.00  0.00    +0.010 A 
ATOM     10  C   UNL     1      10.213  -1.933  23.356  0.00  0.00    +0.087 A 
ENDROOT
BRANCH   1  11
ATOM     11  C   UNL     1       9.201  -0.502  21.478  0.00  0.00    +0.052 C 
BRANCH  11  12
ATOM     12  C   UNL     1       9.906   0.748  22.019  0.00  0.00    +0.082 C 
BRANCH  12  13
ATOM     13  N   UNL     1       9.408   1.967  21.379  0.00  0.00    -0.330 NA
ATOM     14  H   UNL     1       8.864   1.719  20.553  0.00  0.00    +0.118 HD
ATOM     15  H   UNL     1       8.761   2.434  22.014  0.00  0.00    +0.118 HD
ENDBRANCH  12  13
ENDBRANCH  11  12
ENDBRANCH   1  11
TORSDOF 3
ENDMDL
MODEL 5
REMARK VINA RESULT:      -4.8      3.146      5.802
REMARK  Name = 
REMARK  3 active torsions:
REMARK  status: ('A' for Active; 'I' for Inactive)
REMARK    1  A    between atoms: N_1  and  C_2
REMARK    2  A    between atoms: C_2  and  C_3
REMARK    3  A    between atoms: C_3  and  C_4
REMARK                            x       y       z     vdW  Elec       q    Type
REMARK                         _______ _______ _______ _____ _____    ______ ____
ROOT
ATOM      1  C   UNL     1       8.174   2.922  23.092  0.00  0.00    -0.021 A 
ATOM      2  C   UNL     1       8.831   1.694  22.757  0.00  0.00    +0.003 A 
ATOM      3  C   UNL     1       9.486   1.242  23.903  0.00  0.00    +0.047 A 
ATOM      4  C   UNL     1      10.237   0.061  23.932  0.00  0.00    +0.026 A 
ATOM      5  C   UNL     1      10.320  -0.683  22.752  0.00  0.00    +0.002 A 
ATOM      6  C   UNL     1       9.679  -0.260  21.591  0.00  0.00    +0.001 A 
ATOM      7  N   UNL     1       9.236   2.158  24.898  0.00  0.00    -0.360 N 
ATOM      8  H   UNL     1       9.589   2.087  25.842  0.00  0.00    +0.165 HD
ATOM      9  C   UNL     1       8.933   0.924  21.579  0.00  0.00    +0.010 A 
ATOM     10  C   UNL     1       8.449   3.172  24.423  0.00  0.00    +0.087 A 
ENDROOT
BRANCH   1  11
ATOM     11  C   UNL     1       7.347   3.779  22.185  0.00  0.00    +0.052 C 
BRANCH  11  12
ATOM     12  C   UNL     1       7.347   5.249  22.621  0.00  0.00    +0.082 C 
BRANCH  12  13
ATOM     13  N   UNL     1       7.504   6.151  21.479  0.00  0.00    -0.330 NA
ATOM     14  H   UNL     1       7.177   5.687  20.632  0.00  0.00    +0.118 HD
ATOM     15  H   UNL     1       6.899   6.961  21.610  0.00  0.00    +0.118 HD
ENDBRANCH  12  13
ENDBRANCH  11  12
ENDBRANCH   1  11
TORSDOF 3
ENDMDL
MODEL 6
REMARK VINA RESULT:      -4.6      2.080      3.042
REMARK  Name = 
REMARK  3 active torsions:
REMARK  status: ('A' for Active; 'I' for Inactive)
REMARK    1  A    between atoms: N_1  and  C_2
REMARK    2  A    between atoms: C_2  and  C_3
REMARK    3  A    between atoms: C_3  and  C_4
REMARK                            x       y       z     vdW  Elec       q    Type
REMARK                         _______ _______ _______ _____ _____    ______ ____
ROOT
ATOM      1  C   UNL     1       7.591  -3.552  24.410  0.00  0.00    -0.021 A 
ATOM      2  C   UNL     1       8.488  -2.505  24.019  0.00  0.00    +0.003 A 
ATOM      3  C   UNL     1       8.459  -2.425  22.627  0.00  0.00    +0.047 A 
ATOM      4  C   UNL     1       9.225  -1.504  21.902  0.00  0.00    +0.026 A 
ATOM      5  C   UNL     1      10.047  -0.635  22.625  0.00  0.00    +0.002 A 
ATOM      6  C   UNL     1      10.099  -0.688  24.016  0.00  0.00    +0.001 A 
ATOM      7  N   UNL     1       7.578  -3.385  22.186  0.00  0.00    -0.360 N 
ATOM      8  H   UNL     1       7.358  -3.558  21.215  0.00  0.00    +0.165 HD
ATOM      9  C   UNL     1       9.326  -1.616  24.724  0.00  0.00    +0.010 A 
ATOM     10  C   UNL     1       7.050  -4.068  23.248  0.00  0.00    +0.087 A 
ENDROOT
BRANCH   1  11
ATOM     11  C   UNL     1       7.290  -4.007  25.804  0.00  0.00    +0.052 C 
BRANCH  11  12
ATOM     12  C   UNL     1       8.365  -4.958  26.343  0.00  0.00    +0.082 C 
BRANCH  12  13
ATOM     13  N   UNL     1       7.850  -5.793  27.430  0.00  0.00    -0.330 NA
ATOM     14  H   UNL     1       7.179  -5.259  27.981  0.00  0.00    +0.118 HD
ATOM     15  H   UNL     1       7.332  -6.575  27.031  0.00  0.00    +0.118 HD
ENDBRANCH  12  13
ENDBRANCH  11  12
ENDBRANCH   1  11
TORSDOF 3
ENDMDL
MODEL 7
REMARK VINA RESULT:      -4.5      2.221      2.778
REMARK  Name = 
REMARK  3 active torsions:
REMARK  status: ('A' for Active; 'I' for Inactive)
REMARK    1  A    between atoms: N_1  and  C_2
REMARK    2  A    between atoms: C_2  and  C_3
REMARK    3  A    between atoms: C_3  and  C_4
REMARK                            x       y       z     vdW  Elec       q    Type
REMARK                         _______ _______ _______ _____ _____    ______ ____
ROOT
ATOM      1  C   UNL     1       9.692   0.665  23.152  0.00  0.00    -0.021 A 
ATOM      2  C   UNL     1       8.961   1.758  23.721  0.00  0.00    +0.003 A 
ATOM      3  C   UNL     1       8.676   2.655  22.691  0.00  0.00    +0.047 A 
ATOM      4  C   UNL     1       7.970   3.847  22.894  0.00  0.00    +0.026 A 
ATOM      5  C   UNL     1       7.541   4.131  24.193  0.00  0.00    +0.002 A 
ATOM      6  C   UNL     1       7.808   3.258  25.245  0.00  0.00    +0.001 A 
ATOM      7  N   UNL     1       9.211   2.128  21.539  0.00  0.00    -0.360 N 
ATOM      8  H   UNL     1       9.159   2.568  20.630  0.00  0.00    +0.165 HD
ATOM      9  C   UNL     1       8.515   2.070  25.023  0.00  0.00    +0.010 A 
ATOM     10  C   UNL     1       9.824   0.933  21.803  0.00  0.00    +0.087 A 
ENDROOT
BRANCH   1  11
ATOM     11  C   UNL     1      10.217  -0.539  23.870  0.00  0.00    +0.052 C 
BRANCH  11  12
ATOM     12  C   UNL     1      10.052  -1.820  23.045  0.00  0.00    +0.082 C 
BRANCH  12  13
ATOM     13  N   UNL     1      10.045  -3.012  23.895  0.00  0.00    -0.330 NA
ATOM     14  H   UNL     1       9.429  -2.858  24.692  0.00  0.00    +0.118 HD
ATOM     15  H   UNL     1       9.643  -3.790  23.372  0.00  0.00    +0.118 HD
ENDBRANCH  12  13
ENDBRANCH  11  12
ENDBRANCH   1  11
TORSDOF 3
ENDMDL
MODEL 8
REMARK VINA RESULT:      -4.4      4.022      5.446
REMARK  Name = 
REMARK  3 active torsions:
REMARK  status: ('A' for Active; 'I' for Inactive)
REMARK    1  A    between atoms: N_1  and  C_2
REMARK    2  A    between atoms: C_2  and  C_3
REMARK    3  A    between atoms: C_3  and  C_4
REMARK                            x       y       z     vdW  Elec       q    Type
REMARK                         _______ _______ _______ _____ _____    ______ ____
ROOT
ATOM      1  C   UNL     1       7.484  -3.133  24.528  0.00  0.00    -0.021 A 
ATOM      2  C   UNL     1       7.196  -4.035  23.453  0.00  0.00    +0.003 A 
ATOM      3  C   UNL     1       6.339  -3.376  22.571  0.00  0.00    +0.047 A 
ATOM      4  C   UNL     1       5.850  -3.970  21.401  0.00  0.00    +0.026 A 
ATOM      5  C   UNL     1       6.250  -5.280  21.124  0.00  0.00    +0.002 A 
ATOM      6  C   UNL     1       7.105  -5.966  21.983  0.00  0.00    +0.001 A 
ATOM      7  N   UNL     1       6.115  -2.121  23.088  0.00  0.00    -0.360 N 
ATOM      8  H   UNL     1       5.527  -1.422  22.657  0.00  0.00    +0.165 HD
ATOM      9  C   UNL     1       7.584  -5.357  23.149  0.00  0.00    +0.010 A 
ATOM     10  C   UNL     1       6.797  -1.964  24.264  0.00  0.00    +0.087 A 
ENDROOT
BRANCH   1  11
ATOM     11  C   UNL     1       8.358  -3.396  25.715  0.00  0.00    +0.052 C 
BRANCH  11  12
ATOM     12  C   UNL     1       7.668  -4.293  26.751  0.00  0.00    +0.082 C 
BRANCH  12  13
ATOM     13  N   UNL     1       8.237  -5.642  26.760  0.00  0.00    -0.330 NA
ATOM     14  H   UNL     1       8.174  -6.044  25.825  0.00  0.00    +0.118 HD
ATOM     15  H   UNL     1       9.231  -5.582  26.976  0.00  0.00    +0.118 HD
ENDBRANCH  12  13
ENDBRANCH  11  12
ENDBRANCH   1  11
TORSDOF 3
ENDMDL
MODEL 9
REMARK VINA RESULT:      -4.4      2.336      6.024
REMARK  Name = 
REMARK  3 active torsions:
REMARK  status: ('A' for Active; 'I' for Inactive)
REMARK    1  A    between atoms: N_1  and  C_2
REMARK    2  A    between atoms: C_2  and  C_3
REMARK    3  A    between atoms: C_3  and  C_4
REMARK                            x       y       z     vdW  Elec       q    Type
REMARK                         _______ _______ _______ _____ _____    ______ ____
ROOT
ATOM      1  C   UNL     1       8.644  -3.420  24.387  0.00  0.00    -0.021 A 
ATOM      2  C   UNL     1       7.734  -4.250  23.653  0.00  0.00    +0.003 A 
ATOM      3  C   UNL     1       6.787  -4.734  24.556  0.00  0.00    +0.047 A 
ATOM      4  C   UNL     1       5.742  -5.585  24.178  0.00  0.00    +0.026 A 
ATOM      5  C   UNL     1       5.662  -5.952  22.832  0.00  0.00    +0.002 A 
ATOM      6  C   UNL     1       6.590  -5.486  21.904  0.00  0.00    +0.001 A 
ATOM      7  N   UNL     1       7.106  -4.219  25.791  0.00  0.00    -0.360 N 
ATOM      8  H   UNL     1       6.590  -4.404  26.639  0.00  0.00    +0.165 HD
ATOM      9  C   UNL     1       7.629  -4.636  22.301  0.00  0.00    +0.010 A 
ATOM     10  C   UNL     1       8.220  -3.428  25.702  0.00  0.00    +0.087 A 
ENDROOT
BRANCH   1  11
ATOM     11  C   UNL     1       9.829  -2.684  23.844  0.00  0.00    +0.052 C 
BRANCH  11  12
ATOM     12  C   UNL     1       9.417  -1.504  22.955  0.00  0.00    +0.082 C 
BRANCH  12  13
ATOM     13  N   UNL     1      10.064  -1.565  21.643  0.00  0.00    -0.330 NA
ATOM     14  H   UNL     1       9.671  -0.848  21.036  0.00  0.00    +0.118 HD
ATOM     15  H   UNL     1      11.052  -1.336  21.750  0.00  0.00    +0.118 HD
ENDBRANCH  12  13
ENDBRANCH  11  12
ENDBRANCH   1  11
TORSDOF 3
ENDMDL
