MODEL 1
REMARK VINA RESULT:      -5.0      0.000      0.000
REMARK  Name = 
REMARK  2 active torsions:
REMARK  status: ('A' for Active; 'I' for Inactive)
REMARK    1  A    between atoms: O_1  and  C_2
REMARK    2  A    between atoms: C_5  and  C_8
REMARK                            x       y       z     vdW  Elec       q    Type
REMARK                         _______ _______ _______ _____ _____    ______ ____
ROOT
ATOM      1  C   UNL     1      10.020   1.127  22.204  0.00  0.00    +0.117 A 
ATOM      2  C   UNL     1       9.495   0.076  21.464  0.00  0.00    +0.046 A 
ATOM      3  C   UNL     1       9.272  -1.159  22.077  0.00  0.00    +0.016 A 
ATOM      4  C   UNL     1       9.574  -1.344  23.436  0.00  0.00    +0.055 A 
ATOM      5  C   UNL     1      10.096  -0.265  24.168  0.00  0.00    +0.016 A 
ATOM      6  C   UNL     1      10.319   0.970  23.553  0.00  0.00    +0.046 A 
ENDROOT
BRANCH   4   7
ATOM      7  C   UNL     1       9.340  -2.688  24.082  0.00  0.00    +0.417 C 
ATOM      8  F   UNL     1      10.477  -3.435  24.156  0.00  0.00    -0.166 F 
ATOM      9  F   UNL     1       8.438  -3.446  23.399  0.00  0.00    -0.166 F 
ATOM     10  F   UNL     1       8.866  -2.604  25.357  0.00  0.00    -0.166 F 
ENDBRANCH   4   7
BRANCH   1  11
ATOM     11  O   UNL     1      10.232   2.311  21.562  0.00  0.00    -0.507 OA
ATOM     12  H   UNL     1       9.421   2.558  21.088  0.00  0.00    +0.292 HD
ENDBRANCH   1  11
TORSDOF 2
ENDMDL
MODEL 2
REMARK VINA RESULT:      -5.0      0.089      1.832
REMARK  Name = 
REMARK  2 active torsions:
REMARK  status: ('A' for Active; 'I' for Inactive)
REMARK    1  A    between atoms: O_1  and  C_2
REMARK    2  A    between atoms: C_5  and  C_8
REMARK                            x       y       z     vdW  Elec       q    Type
REMARK                         _______ _______ _______ _____ _____    ______ ____
ROOT
ATOM      1  C   UNL     1      10.006   1.097  22.167  0.00  0.00    +0.117 A 
ATOM      2  C   UNL     1      10.339   0.952  23.507  0.00  0.00    +0.046 A 
ATOM      3  C   UNL     1      10.126  -0.271  24.146  0.00  0.00    +0.016 A 
ATOM      4  C   UNL     1       9.578  -1.356  23.441  0.00  0.00    +0.055 A 
ATOM      5  C   UNL     1       9.257  -1.191  22.084  0.00  0.00    +0.016 A 
ATOM      6  C   UNL     1       9.470   0.034  21.447  0.00  0.00    +0.046 A 
ENDROOT
BRANCH   4   7
ATOM      7  C   UNL     1       9.341  -2.669  24.147  0.00  0.00    +0.417 C 
ATOM      8  F   UNL     1       8.975  -2.501  25.448  0.00  0.00    -0.166 F 
ATOM      9  F   UNL     1      10.451  -3.458  24.170  0.00  0.00    -0.166 F 
ATOM     10  F   UNL     1       8.360  -3.424  23.579  0.00  0.00    -0.166 F 
ENDBRANCH   4   7
BRANCH   1  11
ATOM     11  O   UNL     1      10.220   2.312  21.588  0.00  0.00    -0.507 OA
ATOM     12  H   UNL     1      10.459   2.950  22.280  0.00  0.00    +0.292 HD
ENDBRANCH   1  11
TORSDOF 2
ENDMDL
MODEL 3
REMARK VINA RESULT:      -4.9      1.233      2.207
REMARK  Name = 
REMARK  2 active torsions:
REMARK  status: ('A' for Active; 'I' for Inactive)
REMARK    1  A    between atoms: O_1  and  C_2
REMARK    2  A    between atoms: C_5  and  C_8
REMARK                            x       y       z     vdW  Elec       q    Type
REMARK                         _______ _______ _______ _____ _____    ______ ____
ROOT
ATOM      1  C   UNL     1      10.413   2.336  22.998  0.00  0.00    +0.117 A 
ATOM      2  C   UNL     1      10.672   1.604  24.150  0.00  0.00    +0.046 A 
ATOM      3  C   UNL     1      10.368   0.242  24.187  0.00  0.00    +0.016 A 
ATOM      4  C   UNL     1       9.804  -0.393  23.068  0.00  0.00    +0.055 A 
ATOM      5  C   UNL     1       9.560   0.364  21.910  0.00  0.00    +0.016 A 
ATOM      6  C   UNL     1       9.864   1.728  21.875  0.00  0.00    +0.046 A 
ENDROOT
BRANCH   4   7
ATOM      7  C   UNL     1       9.469  -1.863  23.127  0.00  0.00    +0.417 C 
ATOM      8  F   UNL     1       9.042  -2.348  21.928  0.00  0.00    -0.166 F 
ATOM      9  F   UNL     1       8.475  -2.137  24.017  0.00  0.00    -0.166 F 
ATOM     10  F   UNL     1      10.522  -2.648  23.491  0.00  0.00    -0.166 F 
ENDBRANCH   4   7
BRANCH   1  11
ATOM     11  O   UNL     1      10.715   3.666  23.010  0.00  0.00    -0.507 OA
ATOM     12  H   UNL     1      11.640   3.778  22.736  0.00  0.00    +0.292 HD
ENDBRANCH   1  11
TORSDOF 2
ENDMDL
MODEL 4
REMARK VINA RESULT:      -4.8      1.231      1.880
REMARK  Name = 
REMARK  2 active torsions:
REMARK  status: ('A' for Active; 'I' for Inactive)
REMARK    1  A    between atoms: O_1  and  C_2
REMARK    2  A    between atoms: C_5  and  C_8
REMARK                            x       y       z     vdW  Elec       q    Type
REMARK                         _______ _______ _______ _____ _____    ______ ____
ROOT
ATOM      1  C   UNL     1      10.455   2.321  23.063  0.00  0.00    +0.117 A 
ATOM      2  C   UNL     1       9.954   1.721  21.915  0.00  0.00    +0.046 A 
ATOM      3  C   UNL     1       9.630   0.363  21.929  0.00  0.00    +0.016 A 
ATOM      4  C   UNL     1       9.805  -0.400  23.096  0.00  0.00    +0.055 A 
ATOM      5  C   UNL     1      10.305   0.229  24.248  0.00  0.00    +0.016 A 
ATOM      6  C   UNL     1      10.630   1.588  24.232  0.00  0.00    +0.046 A 
ENDROOT
BRANCH   4   7
ATOM      7  C   UNL     1       9.462  -1.869  23.092  0.00  0.00    +0.417 C 
ATOM      8  F   UNL     1       8.462  -2.173  23.965  0.00  0.00    -0.166 F 
ATOM      9  F   UNL     1      10.518  -2.653  23.446  0.00  0.00    -0.166 F 
ATOM     10  F   UNL     1       9.048  -2.329  21.878  0.00  0.00    -0.166 F 
ENDBRANCH   4   7
BRANCH   1  11
ATOM     11  O   UNL     1      10.770   3.646  23.001  0.00  0.00    -0.507 OA
ATOM     12  H   UNL     1      10.891   3.894  22.069  0.00  0.00    +0.292 HD
ENDBRANCH   1  11
TORSDOF 2
ENDMDL
MODEL 5
REMARK VINA RESULT:      -4.8      3.989      4.941
REMARK  Name = 
REMARK  2 active torsions:
REMARK  status: ('A' for Active; 'I' for Inactive)
REMARK    1  A    between atoms: O_1  and  C_2
REMARK    2  A    between atoms: C_5  and  C_8
REMARK                            x       y       z     vdW  Elec       q    Type
REMARK                         _______ _______ _______ _____ _____    ______ ____
ROOT
ATOM      1  C   UNL     1      10.057  -0.381  22.239  0.00  0.00    +0.117 A 
ATOM      2  C   UNL     1      10.557  -0.038  23.489  0.00  0.00    +0.046 A 
ATOM      3  C   UNL     1      10.360   1.253  23.982  0.00  0.00    +0.016 A 
ATOM      4  C   UNL     1       9.659   2.206  23.225  0.00  0.00    +0.055 A 
ATOM      5  C   UNL     1       9.154   1.835  21.968  0.00  0.00    +0.016 A 
ATOM      6  C   UNL     1       9.353   0.543  21.475  0.00  0.00    +0.046 A 
ENDROOT
BRANCH   4   7
ATOM      7  C   UNL     1       9.464   3.601  23.766  0.00  0.00    +0.417 C 
ATOM      8  F   UNL     1       8.995   3.604  25.044  0.00  0.00    -0.166 F 
ATOM      9  F   UNL     1       8.569   4.325  23.037  0.00  0.00    -0.166 F 
ATOM     10  F   UNL     1      10.609   4.341  23.789  0.00  0.00    -0.166 F 
ENDBRANCH   4   7
BRANCH   1  11
ATOM     11  O   UNL     1      10.283  -1.649  21.792  0.00  0.00    -0.507 OA
ATOM     12  H   UNL     1      10.208  -1.656  20.823  0.00  0.00    +0.292 HD
ENDBRANCH   1  11
TORSDOF 2
ENDMDL
MODEL 6
REMARK VINA RESULT:      -4.7      3.767      4.405
REMARK  Name = 
REMARK  2 active torsions:
REMARK  status: ('A' for Active; 'I' for Inactive)
REMARK    1  A    between atoms: O_1  and  C_2
REMARK    2  A    between atoms: C_5  and  C_8
REMARK                            x       y       z     vdW  Elec       q    Type
REMARK                         _______ _______ _______ _____ _____    ______ ____
ROOT
ATOM      1  C   UNL     1       9.847  -2.021  23.703  0.00  0.00    +0.117 A 
ATOM      2  C   UNL     1       9.925  -1.732  22.346  0.00  0.00    +0.046 A 
ATOM      3  C   UNL     1       9.868  -0.405  21.917  0.00  0.00    +0.016 A 
ATOM      4  C   UNL     1       9.735   0.640  22.846  0.00  0.00    +0.055 A 
ATOM      5  C   UNL     1       9.668   0.326  24.214  0.00  0.00    +0.016 A 
ATOM      6  C   UNL     1       9.724  -1.003  24.642  0.00  0.00    +0.046 A 
ENDROOT
BRANCH   4   7
ATOM      7  C   UNL     1       9.663   2.068  22.367  0.00  0.00    +0.417 C 
ATOM      8  F   UNL     1      10.787   2.452  21.701  0.00  0.00    -0.166 F 
ATOM      9  F   UNL     1       9.512   2.956  23.389  0.00  0.00    -0.166 F 
ATOM     10  F   UNL     1       8.627   2.305  21.513  0.00  0.00    -0.166 F 
ENDBRANCH   4   7
BRANCH   1  11
ATOM     11  O   UNL     1       9.895  -3.331  24.075  0.00  0.00    -0.507 OA
ATOM     12  H   UNL     1       9.995  -3.879  23.280  0.00  0.00    +0.292 HD
ENDBRANCH   1  11
TORSDOF 2
ENDMDL
MODEL 7
REMARK VINA RESULT:      -4.6      5.340      6.295
REMARK  Name = 
REMARK  2 active torsions:
REMARK  status: ('A' for Active; 'I' for Inactive)
REMARK    1  A    between atoms: O_1  and  C_2
REMARK    2  A    between atoms: C_5  and  C_8
REMARK                            x       y       z     vdW  Elec       q    Type
REMARK                         _______ _______ _______ _____ _____    ______ ____
ROOT
ATOM      1  C   UNL     1       7.461  -5.554  26.435  0.00  0.00    +0.117 A 
ATOM      2  C   UNL     1       8.569  -5.209  25.672  0.00  0.00    +0.046 A 
ATOM      3  C   UNL     1       8.410  -4.902  24.319  0.00  0.00    +0.016 A 
ATOM      4  C   UNL     1       7.137  -4.937  23.726  0.00  0.00    +0.055 A 
ATOM      5  C   UNL     1       6.029  -5.280  24.518  0.00  0.00    +0.016 A 
ATOM      6  C   UNL     1       6.190  -5.588  25.871  0.00  0.00    +0.046 A 
ENDROOT
BRANCH   4   7
ATOM      7  C   UNL     1       6.981  -4.615  22.260  0.00  0.00    +0.417 C 
ATOM      8  F   UNL     1       7.666  -3.495  21.897  0.00  0.00    -0.166 F 
ATOM      9  F   UNL     1       5.685  -4.392  21.908  0.00  0.00    -0.166 F 
ATOM     10  F   UNL     1       7.425  -5.605  21.435  0.00  0.00    -0.166 F 
ENDBRANCH   4   7
BRANCH   1  11
ATOM     11  O   UNL     1       7.665  -5.858  27.748  0.00  0.00    -0.507 OA
ATOM     12  H   UNL     1       7.546  -5.052  28.277  0.00  0.00    +0.292 HD
ENDBRANCH   1  11
TORSDOF 2
ENDMDL
MODEL 8
REMARK VINA RESULT:      -4.4      3.826      5.351
REMARK  Name = 
REMARK  2 active torsions:
REMARK  status: ('A' for Active; 'I' for Inactive)
REMARK    1  A    between atoms: O_1  and  C_2
REMARK    2  A    between atoms: C_5  and  C_8
REMARK                            x       y       z     vdW  Elec       q    Type
REMARK                         _______ _______ _______ _____ _____    ______ ____
ROOT
ATOM      1  C   UNL     1       8.260  -4.925  26.604  0.00  0.00    +0.117 A 
ATOM      2  C   UNL     1       7.723  -3.646  26.686  0.00  0.00    +0.046 A 
ATOM      3  C   UNL     1       8.164  -2.653  25.810  0.00  0.00    +0.016 A 
ATOM      4  C   UNL     1       9.145  -2.938  24.845  0.00  0.00    +0.055 A 
ATOM      5  C   UNL     1       9.667  -4.240  24.774  0.00  0.00    +0.016 A 
ATOM      6  C   UNL     1       9.226  -5.233  25.652  0.00  0.00    +0.046 A 
ENDROOT
BRANCH   4   7
ATOM      7  C   UNL     1       9.621  -1.851  23.913  0.00  0.00    +0.417 C 
ATOM      8  F   UNL     1      10.541  -2.301  23.015  0.00  0.00    -0.166 F 
ATOM      9  F   UNL     1      10.217  -0.820  24.574  0.00  0.00    -0.166 F 
ATOM     10  F   UNL     1       8.623  -1.291  23.174  0.00  0.00    -0.166 F 
ENDBRANCH   4   7
BRANCH   1  11
ATOM     11  O   UNL     1       7.808  -5.860  27.487  0.00  0.00    -0.507 OA
ATOM     12  H   UNL     1       7.700  -5.442  28.357  0.00  0.00    +0.292 HD
ENDBRANCH   1  11
TORSDOF 2
ENDMDL
MODEL 9
REMARK VINA RESULT:      -4.4      4.993      6.016
REMARK  Name = 
REMARK  2 active torsions:
REMARK  status: ('A' for Active; 'I' for Inactive)
REMARK    1  A    between atoms: O_1  and  C_2
REMARK    2  A    between atoms: C_5  and  C_8
REMARK                            x       y       z     vdW  Elec       q    Type
REMARK                         _______ _______ _______ _____ _____    ______ ____
ROOT
ATOM      1  C   UNL     1       7.543  -5.394  26.454  0.00  0.00    +0.117 A 
ATOM      2  C   UNL     1       6.362  -5.649  25.769  0.00  0.00    +0.046 A 
ATOM      3  C   UNL     1       6.221  -5.217  24.448  0.00  0.00    +0.016 A 
ATOM      4  C   UNL     1       7.265  -4.529  23.809  0.00  0.00    +0.055 A 
ATOM      5  C   UNL     1       8.454  -4.291  24.517  0.00  0.00    +0.016 A 
ATOM      6  C   UNL     1       8.594  -4.723  25.838  0.00  0.00    +0.046 A 
ENDROOT
BRANCH   4   7
ATOM      7  C   UNL     1       7.094  -4.057  22.386  0.00  0.00    +0.417 C 
ATOM      8  F   UNL     1       7.205  -5.071  21.484  0.00  0.00    -0.166 F 
ATOM      9  F   UNL     1       8.027  -3.132  22.025  0.00  0.00    -0.166 F 
ATOM     10  F   UNL     1       5.884  -3.478  22.146  0.00  0.00    -0.166 F 
ENDBRANCH   4   7
BRANCH   1  11
ATOM     11  O   UNL     1       7.632  -5.824  27.745  0.00  0.00    -0.507 OA
ATOM     12  H   UNL     1       7.765  -5.054  28.321  0.00  0.00    +0.292 HD
ENDBRANCH   1  11
TORSDOF 2
ENDMDL
