MODEL 1
REMARK VINA RESULT:      -4.0      0.000      0.000
REMARK  Name = 
REMARK  5 active torsions:
REMARK  status: ('A' for Active; 'I' for Inactive)
REMARK    1  A    between atoms: N_1  and  CA_2
REMARK    2  A    between atoms: CA_2  and  CB_4
REMARK    3  A    between atoms: CA_2  and  C_8
REMARK    4  A    between atoms: CB_4  and  CG_5
REMARK    5  A    between atoms: C_8  and  O_9
REMARK                            x       y       z     vdW  Elec       q    Type
REMARK                         _______ _______ _______ _____ _____    ______ ____
ROOT
ATOM      1  CA  ASN A   1       9.115  -4.665  26.258  0.00  0.00    +0.169 C 
ENDROOT
BRANCH   1   2
ATOM      2  N   ASN A   1      10.016  -5.538  25.431  0.00  0.00    -0.318 NA
ATOM      3  H1  ASN A   1      10.265  -5.032  24.572  0.00  0.00    +0.119 HD
ATOM      4  H2  ASN A   1      10.909  -5.618  25.929  0.00  0.00    +0.119 HD
ENDBRANCH   1   2
BRANCH   1   5
ATOM      5  C   ASN A   1       7.786  -5.412  26.468  0.00  0.00    +0.322 C 
ATOM      6  OXT ASN A   1       6.873  -5.446  25.657  0.00  0.00    -0.249 OA
BRANCH   5   7
ATOM      7  O   ASN A   1       7.722  -5.986  27.693  0.00  0.00    -0.480 OA
ATOM      8  H   ASN A   1       6.899  -5.636  28.118  0.00  0.00    +0.295 HD
ENDBRANCH   5   7
ENDBRANCH   1   5
BRANCH   1   9
ATOM      9  CB  ASN A   1       8.909  -3.316  25.581  0.00  0.00    +0.125 C 
BRANCH   9  10
ATOM     10  CG  ASN A   1       9.145  -3.242  24.085  0.00  0.00    +0.213 C 
ATOM     11  OD1 ASN A   1      10.177  -2.761  23.623  0.00  0.00    -0.276 OA
ATOM     12  ND2 ASN A   1       8.131  -3.597  23.248  0.00  0.00    -0.329 N 
ATOM     13 HD21 ASN A   1       8.410  -3.571  22.272  0.00  0.00    +0.145 HD
ATOM     14 HD22 ASN A   1       7.575  -4.415  23.467  0.00  0.00    +0.145 HD
ENDBRANCH   9  10
ENDBRANCH   1   9
TORSDOF 5
ENDMDL
MODEL 2
REMARK VINA RESULT:      -4.0      3.790      5.014
REMARK  Name = 
REMARK  5 active torsions:
REMARK  status: ('A' for Active; 'I' for Inactive)
REMARK    1  A    between atoms: N_1  and  CA_2
REMARK    2  A    between atoms: CA_2  and  CB_4
REMARK    3  A    between atoms: CA_2  and  C_8
REMARK    4  A    between atoms: CB_4  and  CG_5
REMARK    5  A    between atoms: C_8  and  O_9
REMARK                            x       y       z     vdW  Elec       q    Type
REMARK                         _______ _______ _______ _____ _____    ______ ____
ROOT
ATOM      1  CA  ASN A   1      10.458  -1.242  22.813  0.00  0.00    +0.169 C 
ENDROOT
BRANCH   1   2
ATOM      2  N   ASN A   1       9.982  -1.440  21.402  0.00  0.00    -0.318 NA
ATOM      3  H1  ASN A   1      10.539  -2.188  20.970  0.00  0.00    +0.119 HD
ATOM      4  H2  ASN A   1       9.039  -1.840  21.448  0.00  0.00    +0.119 HD
ENDBRANCH   1   2
BRANCH   1   5
ATOM      5  C   ASN A   1       9.688  -2.221  23.720  0.00  0.00    +0.322 C 
ATOM      6  OXT ASN A   1      10.095  -3.323  24.053  0.00  0.00    -0.249 OA
BRANCH   5   7
ATOM      7  O   ASN A   1       8.471  -1.736  24.059  0.00  0.00    -0.480 OA
ATOM      8  H   ASN A   1       8.589  -0.761  24.186  0.00  0.00    +0.295 HD
ENDBRANCH   5   7
ENDBRANCH   1   5
BRANCH   1   9
ATOM      9  CB  ASN A   1      10.263   0.205  23.244  0.00  0.00    +0.125 C 
BRANCH   9  10
ATOM     10  CG  ASN A   1       9.342   1.067  22.403  0.00  0.00    +0.213 C 
ATOM     11  OD1 ASN A   1       8.128   0.876  22.382  0.00  0.00    -0.276 OA
ATOM     12  ND2 ASN A   1       9.896   1.980  21.558  0.00  0.00    -0.329 N 
ATOM     13 HD21 ASN A   1       9.196   2.546  21.089  0.00  0.00    +0.145 HD
ATOM     14 HD22 ASN A   1      10.685   2.531  21.876  0.00  0.00    +0.145 HD
ENDBRANCH   9  10
ENDBRANCH   1   9
TORSDOF 5
ENDMDL
MODEL 3
REMARK VINA RESULT:      -3.8      4.605      6.678
REMARK  Name = 
REMARK  5 active torsions:
REMARK  status: ('A' for Active; 'I' for Inactive)
REMARK    1  A    between atoms: N_1  and  CA_2
REMARK    2  A    between atoms: CA_2  and  CB_4
REMARK    3  A    between atoms: CA_2  and  C_8
REMARK    4  A    between atoms: CB_4  and  CG_5
REMARK    5  A    between atoms: C_8  and  O_9
REMARK                            x       y       z     vdW  Elec       q    Type
REMARK                         _______ _______ _______ _____ _____    ______ ____
ROOT
ATOM      1  CA  ASN A   1       9.638   1.032  23.648  0.00  0.00    +0.169 C 
ENDROOT
BRANCH   1   2
ATOM      2  N   ASN A   1       8.297   0.637  23.096  0.00  0.00    -0.318 NA
ATOM      3  H1  ASN A   1       7.637   0.538  23.877  0.00  0.00    +0.119 HD
ATOM      4  H2  ASN A   1       7.931   1.440  22.573  0.00  0.00    +0.119 HD
ENDBRANCH   1   2
BRANCH   1   5
ATOM      5  C   ASN A   1      10.179   2.199  22.801  0.00  0.00    +0.322 C 
ATOM      6  OXT ASN A   1      10.736   3.186  23.256  0.00  0.00    -0.249 OA
BRANCH   5   7
ATOM      7  O   ASN A   1       9.911   2.028  21.485  0.00  0.00    -0.480 OA
ATOM      8  H   ASN A   1      10.544   1.338  21.163  0.00  0.00    +0.295 HD
ENDBRANCH   5   7
ENDBRANCH   1   5
BRANCH   1   9
ATOM      9  CB  ASN A   1      10.587  -0.159  23.649  0.00  0.00    +0.125 C 
BRANCH   9  10
ATOM     10  CG  ASN A   1      10.207  -1.356  22.800  0.00  0.00    +0.213 C 
ATOM     11  OD1 ASN A   1      10.231  -2.497  23.254  0.00  0.00    -0.276 OA
ATOM     12  ND2 ASN A   1       9.965  -1.162  21.473  0.00  0.00    -0.329 N 
ATOM     13 HD21 ASN A   1       9.661  -2.011  21.009  0.00  0.00    +0.145 HD
ATOM     14 HD22 ASN A   1       9.430  -0.353  21.183  0.00  0.00    +0.145 HD
ENDBRANCH   9  10
ENDBRANCH   1   9
TORSDOF 5
ENDMDL
MODEL 4
REMARK VINA RESULT:      -3.7      5.017      6.557
REMARK  Name = 
REMARK  5 active torsions:
REMARK  status: ('A' for Active; 'I' for Inactive)
REMARK    1  A    between atoms: N_1  and  CA_2
REMARK    2  A    between atoms: CA_2  and  CB_4
REMARK    3  A    between atoms: CA_2  and  C_8
REMARK    4  A    between atoms: CB_4  and  CG_5
REMARK    5  A    between atoms: C_8  and  O_9
REMARK                            x       y       z     vdW  Elec       q    Type
REMARK                         _______ _______ _______ _____ _____    ______ ____
ROOT
ATOM      1  CA  ASN A   1       9.553   1.310  22.882  0.00  0.00    +0.169 C 
ENDROOT
BRANCH   1   2
ATOM      2  N   ASN A   1      10.077   2.051  21.684  0.00  0.00    -0.318 NA
ATOM      3  H1  ASN A   1      10.370   2.989  21.981  0.00  0.00    +0.119 HD
ATOM      4  H2  ASN A   1      10.955   1.601  21.405  0.00  0.00    +0.119 HD
ENDBRANCH   1   2
BRANCH   1   5
ATOM      5  C   ASN A   1       9.511   2.291  24.069  0.00  0.00    +0.322 C 
ATOM      6  OXT ASN A   1       9.758   3.484  23.992  0.00  0.00    -0.249 OA
BRANCH   5   7
ATOM      7  O   ASN A   1       9.222   1.657  25.231  0.00  0.00    -0.480 OA
ATOM      8  H   ASN A   1       9.857   0.901  25.296  0.00  0.00    +0.295 HD
ENDBRANCH   5   7
ENDBRANCH   1   5
BRANCH   1   9
ATOM      9  CB  ASN A   1      10.419   0.094  23.179  0.00  0.00    +0.125 C 
BRANCH   9  10
ATOM     10  CG  ASN A   1      10.167  -1.160  22.364  0.00  0.00    +0.213 C 
ATOM     11  OD1 ASN A   1      10.584  -2.256  22.729  0.00  0.00    -0.276 OA
ATOM     12  ND2 ASN A   1       9.582  -1.033  21.141  0.00  0.00    -0.329 N 
ATOM     13 HD21 ASN A   1       9.403  -1.932  20.705  0.00  0.00    +0.145 HD
ATOM     14 HD22 ASN A   1       8.807  -0.391  21.029  0.00  0.00    +0.145 HD
ENDBRANCH   9  10
ENDBRANCH   1   9
TORSDOF 5
ENDMDL
MODEL 5
REMARK VINA RESULT:      -3.7      1.925      2.353
REMARK  Name = 
REMARK  5 active torsions:
REMARK  status: ('A' for Active; 'I' for Inactive)
REMARK    1  A    between atoms: N_1  and  CA_2
REMARK    2  A    between atoms: CA_2  and  CB_4
REMARK    3  A    between atoms: CA_2  and  C_8
REMARK    4  A    between atoms: CB_4  and  CG_5
REMARK    5  A    between atoms: C_8  and  O_9
REMARK                            x       y       z     vdW  Elec       q    Type
REMARK                         _______ _______ _______ _____ _____    ______ ____
ROOT
ATOM      1  CA  ASN A   1       7.132  -5.140  26.206  0.00  0.00    +0.169 C 
ENDROOT
BRANCH   1   2
ATOM      2  N   ASN A   1       7.904  -5.759  27.337  0.00  0.00    -0.318 NA
ATOM      3  H1  ASN A   1       8.332  -6.631  27.004  0.00  0.00    +0.119 HD
ATOM      4  H2  ASN A   1       8.710  -5.154  27.527  0.00  0.00    +0.119 HD
ENDBRANCH   1   2
BRANCH   1   5
ATOM      5  C   ASN A   1       5.807  -5.909  26.054  0.00  0.00    +0.322 C 
ATOM      6  OXT ASN A   1       4.985  -5.708  25.173  0.00  0.00    -0.249 OA
BRANCH   5   7
ATOM      7  O   ASN A   1       5.631  -6.804  27.054  0.00  0.00    -0.480 OA
ATOM      8  H   ASN A   1       5.105  -6.336  27.751  0.00  0.00    +0.295 HD
ENDBRANCH   5   7
ENDBRANCH   1   5
BRANCH   1   9
ATOM      9  CB  ASN A   1       7.953  -5.161  24.924  0.00  0.00    +0.125 C 
BRANCH   9  10
ATOM     10  CG  ASN A   1       9.404  -4.728  25.015  0.00  0.00    +0.213 C 
ATOM     11  OD1 ASN A   1       9.818  -3.745  24.405  0.00  0.00    -0.276 OA
ATOM     12  ND2 ASN A   1      10.281  -5.528  25.683  0.00  0.00    -0.329 N 
ATOM     13 HD21 ASN A   1      11.208  -5.119  25.739  0.00  0.00    +0.145 HD
ATOM     14 HD22 ASN A   1       9.994  -5.951  26.557  0.00  0.00    +0.145 HD
ENDBRANCH   9  10
ENDBRANCH   1   9
TORSDOF 5
ENDMDL
MODEL 6
REMARK VINA RESULT:      -3.7      4.238      5.658
REMARK  Name = 
REMARK  5 active torsions:
REMARK  status: ('A' for Active; 'I' for Inactive)
REMARK    1  A    between atoms: N_1  and  CA_2
REMARK    2  A    between atoms: CA_2  and  CB_4
REMARK    3  A    between atoms: CA_2  and  C_8
REMARK    4  A    between atoms: CB_4  and  CG_5
REMARK    5  A    between atoms: C_8  and  O_9
REMARK                            x       y       z     vdW  Elec       q    Type
REMARK                         _______ _______ _______ _____ _____    ______ ____
ROOT
ATOM      1  CA  ASN A   1       9.502  -0.428  23.632  0.00  0.00    +0.169 C 
ENDROOT
BRANCH   1   2
ATOM      2  N   ASN A   1       9.076  -0.809  25.022  0.00  0.00    -0.318 NA
ATOM      3  H1  ASN A   1       8.054  -0.721  25.087  0.00  0.00    +0.119 HD
ATOM      4  H2  ASN A   1       9.237  -1.816  25.127  0.00  0.00    +0.119 HD
ENDBRANCH   1   2
BRANCH   1   5
ATOM      5  C   ASN A   1      10.058  -1.687  22.940  0.00  0.00    +0.322 C 
ATOM      6  OXT ASN A   1      10.321  -2.734  23.512  0.00  0.00    -0.249 OA
BRANCH   5   7
ATOM      7  O   ASN A   1      10.278  -1.476  21.621  0.00  0.00    -0.480 OA
ATOM      8  H   ASN A   1      11.023  -2.077  21.368  0.00  0.00    +0.295 HD
ENDBRANCH   5   7
ENDBRANCH   1   5
BRANCH   1   9
ATOM      9  CB  ASN A   1      10.529   0.696  23.678  0.00  0.00    +0.125 C 
BRANCH   9  10
ATOM     10  CG  ASN A   1      10.238   1.942  22.864  0.00  0.00    +0.213 C 
ATOM     11  OD1 ASN A   1      10.242   3.058  23.379  0.00  0.00    -0.276 OA
ATOM     12  ND2 ASN A   1       9.836   1.796  21.571  0.00  0.00    -0.329 N 
ATOM     13 HD21 ASN A   1       9.727   2.687  21.099  0.00  0.00    +0.145 HD
ATOM     14 HD22 ASN A   1      10.293   1.105  20.988  0.00  0.00    +0.145 HD
ENDBRANCH   9  10
ENDBRANCH   1   9
TORSDOF 5
ENDMDL
MODEL 7
REMARK VINA RESULT:      -3.6      4.477      5.786
REMARK  Name = 
REMARK  5 active torsions:
REMARK  status: ('A' for Active; 'I' for Inactive)
REMARK    1  A    between atoms: N_1  and  CA_2
REMARK    2  A    between atoms: CA_2  and  CB_4
REMARK    3  A    between atoms: CA_2  and  C_8
REMARK    4  A    between atoms: CB_4  and  CG_5
REMARK    5  A    between atoms: C_8  and  O_9
REMARK                            x       y       z     vdW  Elec       q    Type
REMARK                         _______ _______ _______ _____ _____    ______ ____
ROOT
ATOM      1  CA  ASN A   1       8.999  -0.625  23.407  0.00  0.00    +0.169 C 
ENDROOT
BRANCH   1   2
ATOM      2  N   ASN A   1       9.804   0.202  24.370  0.00  0.00    -0.318 NA
ATOM      3  H1  ASN A   1      10.629   0.567  23.879  0.00  0.00    +0.119 HD
ATOM      4  H2  ASN A   1       9.259   1.044  24.582  0.00  0.00    +0.119 HD
ENDBRANCH   1   2
BRANCH   1   5
ATOM      5  C   ASN A   1       9.917  -1.723  22.837  0.00  0.00    +0.322 C 
ATOM      6  OXT ASN A   1      10.328  -2.682  23.472  0.00  0.00    -0.249 OA
BRANCH   5   7
ATOM      7  O   ASN A   1      10.265  -1.468  21.554  0.00  0.00    -0.480 OA
ATOM      8  H   ASN A   1      10.143  -2.318  21.062  0.00  0.00    +0.295 HD
ENDBRANCH   5   7
ENDBRANCH   1   5
BRANCH   1   9
ATOM      9  CB  ASN A   1       8.413   0.253  22.309  0.00  0.00    +0.125 C 
BRANCH   9  10
ATOM     10  CG  ASN A   1       8.902   1.685  22.224  0.00  0.00    +0.213 C 
ATOM     11  OD1 ASN A   1       8.208   2.623  22.611  0.00  0.00    -0.276 OA
ATOM     12  ND2 ASN A   1      10.078   1.935  21.584  0.00  0.00    -0.329 N 
ATOM     13 HD21 ASN A   1      10.345   2.913  21.636  0.00  0.00    +0.145 HD
ATOM     14 HD22 ASN A   1      10.863   1.314  21.736  0.00  0.00    +0.145 HD
ENDBRANCH   9  10
ENDBRANCH   1   9
TORSDOF 5
ENDMDL
MODEL 8
REMARK VINA RESULT:      -3.6      3.427      5.966
REMARK  Name = 
REMARK  5 active torsions:
REMARK  status: ('A' for Active; 'I' for Inactive)
REMARK    1  A    between atoms: N_1  and  CA_2
REMARK    2  A    between atoms: CA_2  and  CB_4
REMARK    3  A    between atoms: CA_2  and  C_8
REMARK    4  A    between atoms: CB_4  and  CG_5
REMARK    5  A    between atoms: C_8  and  O_9
REMARK                            x       y       z     vdW  Elec       q    Type
REMARK                         _______ _______ _______ _____ _____    ______ ____
ROOT
ATOM      1  CA  ASN A   1       9.185  -0.324  21.772  0.00  0.00    +0.169 C 
ENDROOT
BRANCH   1   2
ATOM      2  N   ASN A   1      10.209  -1.386  21.486  0.00  0.00    -0.318 NA
ATOM      3  H1  ASN A   1      10.602  -1.711  22.377  0.00  0.00    +0.119 HD
ATOM      4  H2  ASN A   1       9.709  -2.208  21.130  0.00  0.00    +0.119 HD
ENDBRANCH   1   2
BRANCH   1   5
ATOM      5  C   ASN A   1       9.924   0.929  22.276  0.00  0.00    +0.322 C 
ATOM      6  OXT ASN A   1      10.505   1.008  23.348  0.00  0.00    -0.249 OA
BRANCH   5   7
ATOM      7  O   ASN A   1       9.804   1.963  21.410  0.00  0.00    -0.480 OA
ATOM      8  H   ASN A   1      10.616   2.517  21.530  0.00  0.00    +0.295 HD
ENDBRANCH   5   7
ENDBRANCH   1   5
BRANCH   1   9
ATOM      9  CB  ASN A   1       8.162  -0.826  22.781  0.00  0.00    +0.125 C 
BRANCH   9  10
ATOM     10  CG  ASN A   1       8.374  -2.211  23.361  0.00  0.00    +0.213 C 
ATOM     11  OD1 ASN A   1       9.119  -2.396  24.320  0.00  0.00    -0.276 OA
ATOM     12  ND2 ASN A   1       7.825  -3.277  22.716  0.00  0.00    -0.329 N 
ATOM     13 HD21 ASN A   1       7.973  -4.148  23.217  0.00  0.00    +0.145 HD
ATOM     14 HD22 ASN A   1       6.885  -3.201  22.348  0.00  0.00    +0.145 HD
ENDBRANCH   9  10
ENDBRANCH   1   9
TORSDOF 5
ENDMDL
MODEL 9
REMARK VINA RESULT:      -3.6      5.749      6.837
REMARK  Name = 
REMARK  5 active torsions:
REMARK  status: ('A' for Active; 'I' for Inactive)
REMARK    1  A    between atoms: N_1  and  CA_2
REMARK    2  A    between atoms: CA_2  and  CB_4
REMARK    3  A    between atoms: CA_2  and  C_8
REMARK    4  A    between atoms: CB_4  and  CG_5
REMARK    5  A    between atoms: C_8  and  O_9
REMARK                            x       y       z     vdW  Elec       q    Type
REMARK                         _______ _______ _______ _____ _____    ______ ____
ROOT
ATOM      1  CA  ASN A   1       9.828   0.728  21.848  0.00  0.00    +0.169 C 
ENDROOT
BRANCH   1   2
ATOM      2  N   ASN A   1       8.800   1.483  21.054  0.00  0.00    -0.318 NA
ATOM      3  H1  ASN A   1       8.945   1.284  20.057  0.00  0.00    +0.119 HD
ATOM      4  H2  ASN A   1       7.887   1.061  21.253  0.00  0.00    +0.119 HD
ENDBRANCH   1   2
BRANCH   1   5
ATOM      5  C   ASN A   1       9.344  -0.727  21.997  0.00  0.00    +0.322 C 
ATOM      6  OXT ASN A   1       8.306  -1.059  22.548  0.00  0.00    -0.249 OA
BRANCH   5   7
ATOM      7  O   ASN A   1      10.242  -1.606  21.493  0.00  0.00    -0.480 OA
ATOM      8  H   ASN A   1      11.132  -1.290  21.789  0.00  0.00    +0.295 HD
ENDBRANCH   5   7
ENDBRANCH   1   5
BRANCH   1   9
ATOM      9  CB  ASN A   1      10.054   1.394  23.199  0.00  0.00    +0.125 C 
BRANCH   9  10
ATOM     10  CG  ASN A   1      10.256   2.896  23.213  0.00  0.00    +0.213 C 
ATOM     11  OD1 ASN A   1      11.358   3.392  23.436  0.00  0.00    -0.276 OA
ATOM     12  ND2 ASN A   1       9.163   3.701  23.106  0.00  0.00    -0.329 N 
ATOM     13 HD21 ASN A   1       9.410   4.684  23.063  0.00  0.00    +0.145 HD
ATOM     14 HD22 ASN A   1       8.436   3.459  22.443  0.00  0.00    +0.145 HD
ENDBRANCH   9  10
ENDBRANCH   1   9
TORSDOF 5
ENDMDL
