MODEL 1
REMARK VINA RESULT:      -6.5      0.000      0.000
REMARK  Name = 
REMARK  2 active torsions:
REMARK  status: ('A' for Active; 'I' for Inactive)
REMARK    1  A    between atoms: C_4  and  N_5
REMARK    2  A    between atoms: C_6  and  C_9
REMARK                            x       y       z     vdW  Elec       q    Type
REMARK                         _______ _______ _______ _____ _____    ______ ____
ROOT
ATOM      1  N   UNL     1       8.441  -5.894  26.488  0.00  0.00    -0.326 N 
ATOM      2  H   UNL     1       9.099  -6.626  26.258  0.00  0.00    +0.145 HD
ATOM      3  H   UNL     1       7.467  -6.145  26.574  0.00  0.00    +0.145 HD
ATOM      4  C   UNL     1       8.593  -4.804  25.652  0.00  0.00    +0.234 A 
ATOM      5  N   UNL     1       9.755  -4.625  25.007  0.00  0.00    -0.113 NA
ATOM      6  N   UNL     1       9.928  -3.519  24.217  0.00  0.00    -0.142 NA
ATOM      7  C   UNL     1       8.955  -2.592  24.124  0.00  0.00    +0.134 A 
ATOM      8  C   UNL     1       7.749  -2.873  24.783  0.00  0.00    +0.148 A 
ATOM      9  N   UNL     1       7.553  -3.980  25.527  0.00  0.00    -0.197 NA
ENDROOT
BRANCH   7  10
ATOM     10  C   UNL     1       9.274  -1.361  23.342  0.00  0.00    +0.025 A 
ATOM     11  C   UNL     1       9.112  -1.358  21.936  0.00  0.00    +0.012 A 
ATOM     12  C   UNL     1       9.312  -0.219  21.153  0.00  0.00    +0.002 A 
ATOM     13  C   UNL     1       9.738   0.961  21.747  0.00  0.00    +0.021 A 
ATOM     14  C   UNL     1       9.965   0.995  23.123  0.00  0.00    +0.060 A 
ATOM     15 CL   UNL     1      10.539   2.500  23.767  0.00  0.00    -0.082 Cl
ATOM     16  C   UNL     1       9.723  -0.144  23.925  0.00  0.00    +0.069 A 
ATOM     17 CL   UNL     1       9.940   0.024  25.648  0.00  0.00    -0.081 Cl
ENDBRANCH   7  10
BRANCH   8  18
ATOM     18  N   UNL     1       6.618  -2.046  24.740  0.00  0.00    -0.341 N 
ATOM     19  H   UNL     1       5.841  -2.460  25.246  0.00  0.00    +0.144 HD
ATOM     20  H   UNL     1       6.389  -1.920  23.755  0.00  0.00    +0.144 HD
ENDBRANCH   8  18
TORSDOF 2
ENDMDL
MODEL 2
REMARK VINA RESULT:      -6.2      1.834      2.130
REMARK  Name = 
REMARK  2 active torsions:
REMARK  status: ('A' for Active; 'I' for Inactive)
REMARK    1  A    between atoms: C_4  and  N_5
REMARK    2  A    between atoms: C_6  and  C_9
REMARK                            x       y       z     vdW  Elec       q    Type
REMARK                         _______ _______ _______ _____ _____    ______ ____
ROOT
ATOM      1  N   UNL     1       8.957  -5.850  26.099  0.00  0.00    -0.326 N 
ATOM      2  H   UNL     1       9.198  -6.515  25.376  0.00  0.00    +0.145 HD
ATOM      3  H   UNL     1       8.115  -6.016  26.629  0.00  0.00    +0.145 HD
ATOM      4  C   UNL     1       8.987  -4.555  25.618  0.00  0.00    +0.234 A 
ATOM      5  N   UNL     1       9.701  -4.276  24.518  0.00  0.00    -0.113 NA
ATOM      6  N   UNL     1       9.774  -2.984  24.067  0.00  0.00    -0.142 NA
ATOM      7  C   UNL     1       9.169  -1.992  24.748  0.00  0.00    +0.134 A 
ATOM      8  C   UNL     1       8.396  -2.366  25.858  0.00  0.00    +0.148 A 
ATOM      9  N   UNL     1       8.283  -3.641  26.284  0.00  0.00    -0.197 NA
ENDROOT
BRANCH   7  10
ATOM     10  C   UNL     1       9.402  -0.602  24.257  0.00  0.00    +0.025 A 
ATOM     11  C   UNL     1      10.560   0.104  24.663  0.00  0.00    +0.012 A 
ATOM     12  C   UNL     1      10.881   1.373  24.177  0.00  0.00    +0.002 A 
ATOM     13  C   UNL     1      10.020   2.015  23.298  0.00  0.00    +0.021 A 
ATOM     14  C   UNL     1       8.839   1.383  22.909  0.00  0.00    +0.060 A 
ATOM     15 CL   UNL     1       7.806   2.281  21.843  0.00  0.00    -0.082 Cl
ATOM     16  C   UNL     1       8.530   0.081  23.364  0.00  0.00    +0.069 A 
ATOM     17 CL   UNL     1       7.080  -0.666  22.745  0.00  0.00    -0.081 Cl
ENDBRANCH   7  10
BRANCH   8  18
ATOM     18  N   UNL     1       7.656  -1.469  26.639  0.00  0.00    -0.341 N 
ATOM     19  H   UNL     1       8.172  -0.611  26.802  0.00  0.00    +0.144 HD
ATOM     20  H   UNL     1       7.452  -1.947  27.516  0.00  0.00    +0.144 HD
ENDBRANCH   8  18
TORSDOF 2
ENDMDL
MODEL 3
REMARK VINA RESULT:      -6.1      3.655      5.052
REMARK  Name = 
REMARK  2 active torsions:
REMARK  status: ('A' for Active; 'I' for Inactive)
REMARK    1  A    between atoms: C_4  and  N_5
REMARK    2  A    between atoms: C_6  and  C_9
REMARK                            x       y       z     vdW  Elec       q    Type
REMARK                         _______ _______ _______ _____ _____    ______ ____
ROOT
ATOM      1  N   UNL     1       9.651  -2.267  23.323  0.00  0.00    -0.326 N 
ATOM      2  H   UNL     1      10.275  -2.767  23.943  0.00  0.00    +0.145 HD
ATOM      3  H   UNL     1       9.563  -2.600  22.374  0.00  0.00    +0.145 HD
ATOM      4  C   UNL     1       9.907  -0.910  23.344  0.00  0.00    +0.234 A 
ATOM      5  N   UNL     1      10.544  -0.374  24.395  0.00  0.00    -0.113 NA
ATOM      6  N   UNL     1      10.756   0.978  24.444  0.00  0.00    -0.142 NA
ATOM      7  C   UNL     1      10.286   1.773  23.463  0.00  0.00    +0.134 A 
ATOM      8  C   UNL     1       9.677   1.139  22.370  0.00  0.00    +0.148 A 
ATOM      9  N   UNL     1       9.504  -0.196  22.293  0.00  0.00    -0.197 NA
ENDROOT
BRANCH   7  10
ATOM     10  C   UNL     1      10.452   3.244  23.656  0.00  0.00    +0.025 A 
ATOM     11  C   UNL     1      11.693   3.859  23.360  0.00  0.00    +0.012 A 
ATOM     12  C   UNL     1      11.893   5.238  23.438  0.00  0.00    +0.002 A 
ATOM     13  C   UNL     1      10.863   6.062  23.872  0.00  0.00    +0.021 A 
ATOM     14  C   UNL     1       9.637   5.499  24.227  0.00  0.00    +0.060 A 
ATOM     15 CL   UNL     1       8.426   6.603  24.799  0.00  0.00    -0.082 Cl
ATOM     16  C   UNL     1       9.417   4.108  24.109  0.00  0.00    +0.069 A 
ATOM     17 CL   UNL     1       7.820   3.511  24.483  0.00  0.00    -0.081 Cl
ENDBRANCH   7  10
BRANCH   8  18
ATOM     18  N   UNL     1       9.190   1.811  21.241  0.00  0.00    -0.341 N 
ATOM     19  H   UNL     1       9.514   1.374  20.385  0.00  0.00    +0.144 HD
ATOM     20  H   UNL     1       9.521   2.773  21.311  0.00  0.00    +0.144 HD
ENDBRANCH   8  18
TORSDOF 2
ENDMDL
MODEL 4
REMARK VINA RESULT:      -6.0      3.416      5.512
REMARK  Name = 
REMARK  2 active torsions:
REMARK  status: ('A' for Active; 'I' for Inactive)
REMARK    1  A    between atoms: C_4  and  N_5
REMARK    2  A    between atoms: C_6  and  C_9
REMARK                            x       y       z     vdW  Elec       q    Type
REMARK                         _______ _______ _______ _____ _____    ______ ____
ROOT
ATOM      1  N   UNL     1       9.813   1.871  21.485  0.00  0.00    -0.326 N 
ATOM      2  H   UNL     1      10.799   1.744  21.299  0.00  0.00    +0.145 HD
ATOM      3  H   UNL     1       9.541   2.645  22.073  0.00  0.00    +0.145 HD
ATOM      4  C   UNL     1       9.230   0.697  21.920  0.00  0.00    +0.234 A 
ATOM      5  N   UNL     1       9.818  -0.475  21.640  0.00  0.00    -0.113 NA
ATOM      6  N   UNL     1       9.217  -1.645  22.025  0.00  0.00    -0.142 NA
ATOM      7  C   UNL     1       8.020  -1.621  22.641  0.00  0.00    +0.134 A 
ATOM      8  C   UNL     1       7.491  -0.359  22.949  0.00  0.00    +0.148 A 
ATOM      9  N   UNL     1       8.096   0.798  22.613  0.00  0.00    -0.197 NA
ENDROOT
BRANCH   7  10
ATOM     10  C   UNL     1       7.381  -2.942  22.915  0.00  0.00    +0.025 A 
ATOM     11  C   UNL     1       6.766  -3.660  21.860  0.00  0.00    +0.012 A 
ATOM     12  C   UNL     1       6.224  -4.935  22.028  0.00  0.00    +0.002 A 
ATOM     13  C   UNL     1       6.227  -5.528  23.283  0.00  0.00    +0.021 A 
ATOM     14  C   UNL     1       6.773  -4.839  24.366  0.00  0.00    +0.060 A 
ATOM     15 CL   UNL     1       6.691  -5.642  25.902  0.00  0.00    -0.082 Cl
ATOM     16  C   UNL     1       7.361  -3.566  24.193  0.00  0.00    +0.069 A 
ATOM     17 CL   UNL     1       8.106  -2.826  25.587  0.00  0.00    -0.081 Cl
ENDBRANCH   7  10
BRANCH   8  18
ATOM     18  N   UNL     1       6.288  -0.157  23.639  0.00  0.00    -0.341 N 
ATOM     19  H   UNL     1       5.494  -0.481  23.097  0.00  0.00    +0.144 HD
ATOM     20  H   UNL     1       6.224   0.843  23.823  0.00  0.00    +0.144 HD
ENDBRANCH   8  18
TORSDOF 2
ENDMDL
MODEL 5
REMARK VINA RESULT:      -5.9      1.996      2.129
REMARK  Name = 
REMARK  2 active torsions:
REMARK  status: ('A' for Active; 'I' for Inactive)
REMARK    1  A    between atoms: C_4  and  N_5
REMARK    2  A    between atoms: C_6  and  C_9
REMARK                            x       y       z     vdW  Elec       q    Type
REMARK                         _______ _______ _______ _____ _____    ______ ____
ROOT
ATOM      1  N   UNL     1       7.760  -5.917  27.103  0.00  0.00    -0.326 N 
ATOM      2  H   UNL     1       8.333  -5.820  27.930  0.00  0.00    +0.145 HD
ATOM      3  H   UNL     1       7.729  -6.820  26.653  0.00  0.00    +0.145 HD
ATOM      4  C   UNL     1       8.034  -4.922  26.185  0.00  0.00    +0.234 A 
ATOM      5  N   UNL     1       8.608  -3.783  26.598  0.00  0.00    -0.113 NA
ATOM      6  N   UNL     1       8.835  -2.773  25.700  0.00  0.00    -0.142 NA
ATOM      7  C   UNL     1       8.443  -2.904  24.419  0.00  0.00    +0.134 A 
ATOM      8  C   UNL     1       7.898  -4.143  24.047  0.00  0.00    +0.148 A 
ATOM      9  N   UNL     1       7.711  -5.158  24.914  0.00  0.00    -0.197 NA
ENDROOT
BRANCH   7  10
ATOM     10  C   UNL     1       8.618  -1.711  23.539  0.00  0.00    +0.025 A 
ATOM     11  C   UNL     1       9.791  -1.576  22.758  0.00  0.00    +0.012 A 
ATOM     12  C   UNL     1       9.983  -0.530  21.854  0.00  0.00    +0.002 A 
ATOM     13  C   UNL     1       9.020   0.462  21.731  0.00  0.00    +0.021 A 
ATOM     14  C   UNL     1       7.869   0.404  22.517  0.00  0.00    +0.060 A 
ATOM     15 CL   UNL     1       6.746   1.712  22.326  0.00  0.00    -0.082 Cl
ATOM     16  C   UNL     1       7.652  -0.675  23.404  0.00  0.00    +0.069 A 
ATOM     17 CL   UNL     1       6.138  -0.712  24.271  0.00  0.00    -0.081 Cl
ENDBRANCH   7  10
BRANCH   8  18
ATOM     18  N   UNL     1       7.497  -4.466  22.744  0.00  0.00    -0.341 N 
ATOM     19  H   UNL     1       6.667  -5.051  22.749  0.00  0.00    +0.144 HD
ATOM     20  H   UNL     1       8.283  -4.947  22.308  0.00  0.00    +0.144 HD
ENDBRANCH   8  18
TORSDOF 2
ENDMDL
MODEL 6
REMARK VINA RESULT:      -5.8      3.400      5.650
REMARK  Name = 
REMARK  2 active torsions:
REMARK  status: ('A' for Active; 'I' for Inactive)
REMARK    1  A    between atoms: C_4  and  N_5
REMARK    2  A    between atoms: C_6  and  C_9
REMARK                            x       y       z     vdW  Elec       q    Type
REMARK                         _______ _______ _______ _____ _____    ______ ____
ROOT
ATOM      1  N   UNL     1       9.792   2.154  21.491  0.00  0.00    -0.326 N 
ATOM      2  H   UNL     1      10.445   2.050  20.727  0.00  0.00    +0.145 HD
ATOM      3  H   UNL     1       9.974   2.876  22.172  0.00  0.00    +0.145 HD
ATOM      4  C   UNL     1       9.551   0.944  22.112  0.00  0.00    +0.234 A 
ATOM      5  N   UNL     1       9.789  -0.197  21.449  0.00  0.00    -0.113 NA
ATOM      6  N   UNL     1       9.505  -1.399  22.043  0.00  0.00    -0.142 NA
ATOM      7  C   UNL     1       8.947  -1.434  23.268  0.00  0.00    +0.134 A 
ATOM      8  C   UNL     1       8.776  -0.205  23.922  0.00  0.00    +0.148 A 
ATOM      9  N   UNL     1       9.094   0.980  23.364  0.00  0.00    -0.197 NA
ENDROOT
BRANCH   7  10
ATOM     10  C   UNL     1       8.557  -2.778  23.788  0.00  0.00    +0.025 A 
ATOM     11  C   UNL     1       9.475  -3.528  24.562  0.00  0.00    +0.012 A 
ATOM     12  C   UNL     1       9.149  -4.753  25.147  0.00  0.00    +0.002 A 
ATOM     13  C   UNL     1       7.894  -5.307  24.936  0.00  0.00    +0.021 A 
ATOM     14  C   UNL     1       6.971  -4.633  24.136  0.00  0.00    +0.060 A 
ATOM     15 CL   UNL     1       5.446  -5.425  23.894  0.00  0.00    -0.082 Cl
ATOM     16  C   UNL     1       7.282  -3.373  23.576  0.00  0.00    +0.069 A 
ATOM     17 CL   UNL     1       6.029  -2.561  22.673  0.00  0.00    -0.081 Cl
ENDBRANCH   7  10
BRANCH   8  18
ATOM     18  N   UNL     1       8.267  -0.069  25.221  0.00  0.00    -0.341 N 
ATOM     19  H   UNL     1       7.572   0.669  25.268  0.00  0.00    +0.144 HD
ATOM     20  H   UNL     1       9.062   0.136  25.824  0.00  0.00    +0.144 HD
ENDBRANCH   8  18
TORSDOF 2
ENDMDL
MODEL 7
REMARK VINA RESULT:      -5.8      1.601      2.765
REMARK  Name = 
REMARK  2 active torsions:
REMARK  status: ('A' for Active; 'I' for Inactive)
REMARK    1  A    between atoms: C_4  and  N_5
REMARK    2  A    between atoms: C_6  and  C_9
REMARK                            x       y       z     vdW  Elec       q    Type
REMARK                         _______ _______ _______ _____ _____    ______ ____
ROOT
ATOM      1  N   UNL     1       5.340  -6.820  27.004  0.00  0.00    -0.326 N 
ATOM      2  H   UNL     1       4.372  -6.546  27.110  0.00  0.00    +0.145 HD
ATOM      3  H   UNL     1       5.808  -7.216  27.805  0.00  0.00    +0.145 HD
ATOM      4  C   UNL     1       6.091  -5.799  26.453  0.00  0.00    +0.234 A 
ATOM      5  N   UNL     1       5.479  -4.835  25.750  0.00  0.00    -0.113 NA
ATOM      6  N   UNL     1       6.224  -3.849  25.160  0.00  0.00    -0.142 NA
ATOM      7  C   UNL     1       7.568  -3.871  25.245  0.00  0.00    +0.134 A 
ATOM      8  C   UNL     1       8.135  -4.879  26.040  0.00  0.00    +0.148 A 
ATOM      9  N   UNL     1       7.406  -5.828  26.662  0.00  0.00    -0.197 NA
ENDROOT
BRANCH   7  10
ATOM     10  C   UNL     1       8.306  -2.831  24.471  0.00  0.00    +0.025 A 
ATOM     11  C   UNL     1       8.435  -2.956  23.067  0.00  0.00    +0.012 A 
ATOM     12  C   UNL     1       9.040  -1.981  22.272  0.00  0.00    +0.002 A 
ATOM     13  C   UNL     1       9.593  -0.853  22.863  0.00  0.00    +0.021 A 
ATOM     14  C   UNL     1       9.540  -0.708  24.249  0.00  0.00    +0.060 A 
ATOM     15 CL   UNL     1      10.297   0.711  24.899  0.00  0.00    -0.082 Cl
ATOM     16  C   UNL     1       8.892  -1.672  25.054  0.00  0.00    +0.069 A 
ATOM     17 CL   UNL     1       8.789  -1.355  26.767  0.00  0.00    -0.081 Cl
ENDBRANCH   7  10
BRANCH   8  18
ATOM     18  N   UNL     1       9.509  -5.009  26.283  0.00  0.00    -0.341 N 
ATOM     19  H   UNL     1       9.687  -5.649  27.050  0.00  0.00    +0.144 HD
ATOM     20  H   UNL     1       9.856  -4.075  26.496  0.00  0.00    +0.144 HD
ENDBRANCH   8  18
TORSDOF 2
ENDMDL
MODEL 8
REMARK VINA RESULT:      -5.8      2.407      3.737
REMARK  Name = 
REMARK  2 active torsions:
REMARK  status: ('A' for Active; 'I' for Inactive)
REMARK    1  A    between atoms: C_4  and  N_5
REMARK    2  A    between atoms: C_6  and  C_9
REMARK                            x       y       z     vdW  Elec       q    Type
REMARK                         _______ _______ _______ _____ _____    ______ ____
ROOT
ATOM      1  N   UNL     1       5.706  -6.646  28.371  0.00  0.00    -0.326 N 
ATOM      2  H   UNL     1       4.912  -6.306  28.897  0.00  0.00    +0.145 HD
ATOM      3  H   UNL     1       6.348  -7.270  28.836  0.00  0.00    +0.145 HD
ATOM      4  C   UNL     1       6.387  -5.607  27.766  0.00  0.00    +0.234 A 
ATOM      5  N   UNL     1       5.757  -4.443  27.550  0.00  0.00    -0.113 NA
ATOM      6  N   UNL     1       6.412  -3.427  26.905  0.00  0.00    -0.142 NA
ATOM      7  C   UNL     1       7.666  -3.610  26.449  0.00  0.00    +0.134 A 
ATOM      8  C   UNL     1       8.280  -4.833  26.758  0.00  0.00    +0.148 A 
ATOM      9  N   UNL     1       7.659  -5.823  27.431  0.00  0.00    -0.197 NA
ENDROOT
BRANCH   7  10
ATOM     10  C   UNL     1       8.259  -2.496  25.651  0.00  0.00    +0.025 A 
ATOM     11  C   UNL     1       8.686  -1.313  26.301  0.00  0.00    +0.012 A 
ATOM     12  C   UNL     1       9.323  -0.268  25.630  0.00  0.00    +0.002 A 
ATOM     13  C   UNL     1       9.513  -0.343  24.257  0.00  0.00    +0.021 A 
ATOM     14  C   UNL     1       9.061  -1.465  23.561  0.00  0.00    +0.060 A 
ATOM     15 CL   UNL     1       9.302  -1.448  21.843  0.00  0.00    -0.082 Cl
ATOM     16  C   UNL     1       8.453  -2.544  24.243  0.00  0.00    +0.069 A 
ATOM     17 CL   UNL     1       8.011  -3.945  23.302  0.00  0.00    -0.081 Cl
ENDBRANCH   7  10
BRANCH   8  18
ATOM     18  N   UNL     1       9.598  -5.162  26.413  0.00  0.00    -0.341 N 
ATOM     19  H   UNL     1      10.259  -4.774  27.079  0.00  0.00    +0.144 HD
ATOM     20  H   UNL     1       9.755  -4.787  25.479  0.00  0.00    +0.144 HD
ENDBRANCH   8  18
TORSDOF 2
ENDMDL
MODEL 9
REMARK VINA RESULT:      -5.8      2.530      3.027
REMARK  Name = 
REMARK  2 active torsions:
REMARK  status: ('A' for Active; 'I' for Inactive)
REMARK    1  A    between atoms: C_4  and  N_5
REMARK    2  A    between atoms: C_6  and  C_9
REMARK                            x       y       z     vdW  Elec       q    Type
REMARK                         _______ _______ _______ _____ _____    ______ ____
ROOT
ATOM      1  N   UNL     1       5.396  -6.412  21.968  0.00  0.00    -0.326 N 
ATOM      2  H   UNL     1       4.480  -6.247  21.573  0.00  0.00    +0.145 HD
ATOM      3  H   UNL     1       5.463  -7.039  22.757  0.00  0.00    +0.145 HD
ATOM      4  C   UNL     1       6.050  -5.224  22.230  0.00  0.00    +0.234 A 
ATOM      5  N   UNL     1       5.676  -4.109  21.585  0.00  0.00    -0.113 NA
ATOM      6  N   UNL     1       6.355  -2.939  21.803  0.00  0.00    -0.142 NA
ATOM      7  C   UNL     1       7.420  -2.917  22.627  0.00  0.00    +0.134 A 
ATOM      8  C   UNL     1       7.720  -4.107  23.307  0.00  0.00    +0.148 A 
ATOM      9  N   UNL     1       7.030  -5.252  23.132  0.00  0.00    -0.197 NA
ENDROOT
BRANCH   7  10
ATOM     10  C   UNL     1       8.174  -1.632  22.712  0.00  0.00    +0.025 A 
ATOM     11  C   UNL     1       9.102  -1.290  21.698  0.00  0.00    +0.012 A 
ATOM     12  C   UNL     1       9.779  -0.070  21.671  0.00  0.00    +0.002 A 
ATOM     13  C   UNL     1       9.594   0.846  22.697  0.00  0.00    +0.021 A 
ATOM     14  C   UNL     1       8.731   0.534  23.749  0.00  0.00    +0.060 A 
ATOM     15 CL   UNL     1       8.599   1.721  25.007  0.00  0.00    -0.082 Cl
ATOM     16  C   UNL     1       8.011  -0.682  23.758  0.00  0.00    +0.069 A 
ATOM     17 CL   UNL     1       6.882  -0.939  25.063  0.00  0.00    -0.081 Cl
ENDBRANCH   7  10
BRANCH   8  18
ATOM     18  N   UNL     1       8.755  -4.239  24.242  0.00  0.00    -0.341 N 
ATOM     19  H   UNL     1       8.502  -3.820  25.132  0.00  0.00    +0.144 HD
ATOM     20  H   UNL     1       9.571  -3.780  23.839  0.00  0.00    +0.144 HD
ENDBRANCH   8  18
TORSDOF 2
ENDMDL
