MODEL 1
REMARK VINA RESULT:      -4.0      0.000      0.000
REMARK  Name = 
REMARK  11 active torsions:
REMARK  status: ('A' for Active; 'I' for Inactive)
REMARK    1  A    between atoms: O_1  and  C_2
REMARK    2  A    between atoms: C_2  and  C_3
REMARK    3  A    between atoms: C_3  and  O_5
REMARK    4  A    between atoms: C_3  and  C_6
REMARK    5  A    between atoms: C_6  and  O_8
REMARK    6  A    between atoms: C_6  and  C_9
REMARK    7  A    between atoms: C_9  and  O_11
REMARK    8  A    between atoms: C_9  and  C_12
REMARK    9  A    between atoms: C_12  and  O_14
REMARK   10  A    between atoms: C_12  and  C_15
REMARK   11  A    between atoms: C_15  and  O_16
REMARK                            x       y       z     vdW  Elec       q    Type
REMARK                         _______ _______ _______ _____ _____    ______ ____
ROOT
ATOM      1  C   UNL     1       8.101  -2.090  23.396  0.00  0.00    +0.176 C 
ENDROOT
BRANCH   1   2
ATOM      2  O   UNL     1       7.726  -2.712  22.155  0.00  0.00    -0.386 OA
ATOM      3  H   UNL     1       6.763  -2.556  22.063  0.00  0.00    +0.210 HD
ENDBRANCH   1   2
BRANCH   1   4
ATOM      4  C   UNL     1       8.674  -0.699  23.066  0.00  0.00    +0.171 C 
BRANCH   4   5
ATOM      5  O   UNL     1       9.721  -0.462  24.040  0.00  0.00    -0.387 OA
ATOM      6  H   UNL     1       9.276  -0.472  24.910  0.00  0.00    +0.210 HD
ENDBRANCH   4   5
BRANCH   4   7
ATOM      7  C   UNL     1       9.271  -0.512  21.669  0.00  0.00    +0.189 C 
BRANCH   7   8
ATOM      8  O   UNL     1      10.255  -1.520  21.425  0.00  0.00    -0.392 OA
ATOM      9  H   UNL     1      10.742  -1.230  20.632  0.00  0.00    +0.210 HD
ENDBRANCH   7   8
ENDBRANCH   4   7
ENDBRANCH   1   4
BRANCH   1  10
ATOM     10  C   UNL     1       8.927  -3.092  24.223  0.00  0.00    +0.176 C 
BRANCH  10  11
ATOM     11  O   UNL     1      10.314  -3.101  23.843  0.00  0.00    -0.386 OA
ATOM     12  H   UNL     1      10.348  -2.788  22.917  0.00  0.00    +0.210 HD
ENDBRANCH  10  11
BRANCH  10  13
ATOM     13  C   UNL     1       8.430  -4.546  24.325  0.00  0.00    +0.171 C 
BRANCH  13  14
ATOM     14  O   UNL     1       6.989  -4.498  24.479  0.00  0.00    -0.387 OA
ATOM     15  H   UNL     1       6.680  -5.409  24.284  0.00  0.00    +0.210 HD
ENDBRANCH  13  14
BRANCH  13  16
ATOM     16  C   UNL     1       8.931  -5.360  25.517  0.00  0.00    +0.189 C 
BRANCH  16  17
ATOM     17  O   UNL     1      10.327  -5.624  25.368  0.00  0.00    -0.392 OA
ATOM     18  H   UNL     1      10.512  -5.514  24.415  0.00  0.00    +0.210 HD
ENDBRANCH  16  17
ENDBRANCH  13  16
ENDBRANCH  10  13
ENDBRANCH   1  10
TORSDOF 11
ENDMDL
MODEL 2
REMARK VINA RESULT:      -4.0      0.985      4.517
REMARK  Name = 
REMARK  11 active torsions:
REMARK  status: ('A' for Active; 'I' for Inactive)
REMARK    1  A    between atoms: O_1  and  C_2
REMARK    2  A    between atoms: C_2  and  C_3
REMARK    3  A    between atoms: C_3  and  O_5
REMARK    4  A    between atoms: C_3  and  C_6
REMARK    5  A    between atoms: C_6  and  O_8
REMARK    6  A    between atoms: C_6  and  C_9
REMARK    7  A    between atoms: C_9  and  O_11
REMARK    8  A    between atoms: C_9  and  C_12
REMARK    9  A    between atoms: C_12  and  O_14
REMARK   10  A    between atoms: C_12  and  C_15
REMARK   11  A    between atoms: C_15  and  O_16
REMARK                            x       y       z     vdW  Elec       q    Type
REMARK                         _______ _______ _______ _____ _____    ______ ____
ROOT
ATOM      1  C   UNL     1       8.952  -2.898  24.376  0.00  0.00    +0.176 C 
ENDROOT
BRANCH   1   2
ATOM      2  O   UNL     1      10.281  -3.072  23.854  0.00  0.00    -0.386 OA
ATOM      3  H   UNL     1      10.242  -3.879  23.299  0.00  0.00    +0.210 HD
ENDBRANCH   1   2
BRANCH   1   4
ATOM      4  C   UNL     1       8.475  -4.264  24.902  0.00  0.00    +0.171 C 
BRANCH   4   5
ATOM      5  O   UNL     1       8.478  -5.152  23.756  0.00  0.00    -0.387 OA
ATOM      6  H   UNL     1       7.794  -5.825  23.946  0.00  0.00    +0.210 HD
ENDBRANCH   4   5
BRANCH   4   7
ATOM      7  C   UNL     1       9.315  -4.910  26.007  0.00  0.00    +0.189 C 
BRANCH   7   8
ATOM      8  O   UNL     1      10.445  -5.569  25.432  0.00  0.00    -0.392 OA
ATOM      9  H   UNL     1      10.315  -6.520  25.604  0.00  0.00    +0.210 HD
ENDBRANCH   7   8
ENDBRANCH   4   7
ENDBRANCH   1   4
BRANCH   1  10
ATOM     10  C   UNL     1       8.111  -2.129  23.341  0.00  0.00    +0.176 C 
BRANCH  10  11
ATOM     11  O   UNL     1       7.873  -2.900  22.150  0.00  0.00    -0.386 OA
ATOM     12  H   UNL     1       8.455  -2.526  21.458  0.00  0.00    +0.210 HD
ENDBRANCH  10  11
BRANCH  10  13
ATOM     13  C   UNL     1       8.560  -0.713  22.935  0.00  0.00    +0.171 C 
BRANCH  13  14
ATOM     14  O   UNL     1       7.367   0.108  22.850  0.00  0.00    -0.387 OA
ATOM     15  H   UNL     1       7.158   0.158  21.893  0.00  0.00    +0.210 HD
ENDBRANCH  13  14
BRANCH  13  16
ATOM     16  C   UNL     1       9.237  -0.572  21.572  0.00  0.00    +0.189 C 
BRANCH  16  17
ATOM     17  O   UNL     1      10.289  -1.531  21.456  0.00  0.00    -0.392 OA
ATOM     18  H   UNL     1      11.021  -1.181  22.001  0.00  0.00    +0.210 HD
ENDBRANCH  16  17
ENDBRANCH  13  16
ENDBRANCH  10  13
ENDBRANCH   1  10
TORSDOF 11
ENDMDL
MODEL 3
REMARK VINA RESULT:      -3.8      2.474      4.235
REMARK  Name = 
REMARK  11 active torsions:
REMARK  status: ('A' for Active; 'I' for Inactive)
REMARK    1  A    between atoms: O_1  and  C_2
REMARK    2  A    between atoms: C_2  and  C_3
REMARK    3  A    between atoms: C_3  and  O_5
REMARK    4  A    between atoms: C_3  and  C_6
REMARK    5  A    between atoms: C_6  and  O_8
REMARK    6  A    between atoms: C_6  and  C_9
REMARK    7  A    between atoms: C_9  and  O_11
REMARK    8  A    between atoms: C_9  and  C_12
REMARK    9  A    between atoms: C_12  and  O_14
REMARK   10  A    between atoms: C_12  and  C_15
REMARK   11  A    between atoms: C_15  and  O_16
REMARK                            x       y       z     vdW  Elec       q    Type
REMARK                         _______ _______ _______ _____ _____    ______ ____
ROOT
ATOM      1  C   UNL     1       9.224   1.810  22.703  0.00  0.00    +0.176 C 
ENDROOT
BRANCH   1   2
ATOM      2  O   UNL     1      10.044   2.082  21.552  0.00  0.00    -0.386 OA
ATOM      3  H   UNL     1       9.487   2.622  20.955  0.00  0.00    +0.210 HD
ENDBRANCH   1   2
BRANCH   1   4
ATOM      4  C   UNL     1      10.044   2.173  23.956  0.00  0.00    +0.171 C 
BRANCH   4   5
ATOM      5  O   UNL     1       9.073   2.437  25.000  0.00  0.00    -0.387 OA
ATOM      6  H   UNL     1       8.213   2.519  24.542  0.00  0.00    +0.210 HD
ENDBRANCH   4   5
BRANCH   4   7
ATOM      7  C   UNL     1      11.021   1.115  24.471  0.00  0.00    +0.189 C 
BRANCH   7   8
ATOM      8  O   UNL     1      10.389   0.322  25.478  0.00  0.00    -0.392 OA
ATOM      9  H   UNL     1       9.433   0.490  25.388  0.00  0.00    +0.210 HD
ENDBRANCH   7   8
ENDBRANCH   4   7
ENDBRANCH   1   4
BRANCH   1  10
ATOM     10  C   UNL     1       8.615   0.404  22.556  0.00  0.00    +0.176 C 
BRANCH  10  11
ATOM     11  O   UNL     1       7.840   0.021  23.706  0.00  0.00    -0.386 OA
ATOM     12  H   UNL     1       8.447  -0.465  24.298  0.00  0.00    +0.210 HD
ENDBRANCH  10  11
BRANCH  10  13
ATOM     13  C   UNL     1       9.545  -0.763  22.174  0.00  0.00    +0.171 C 
BRANCH  13  14
ATOM     14  O   UNL     1       9.463  -0.925  20.735  0.00  0.00    -0.387 OA
ATOM     15  H   UNL     1       9.902  -1.781  20.548  0.00  0.00    +0.210 HD
ENDBRANCH  13  14
BRANCH  13  16
ATOM     16  C   UNL     1       9.196  -2.135  22.749  0.00  0.00    +0.189 C 
BRANCH  16  17
ATOM     17  O   UNL     1       9.786  -2.280  24.042  0.00  0.00    -0.392 OA
ATOM     18  H   UNL     1       9.203  -1.783  24.650  0.00  0.00    +0.210 HD
ENDBRANCH  16  17
ENDBRANCH  13  16
ENDBRANCH  10  13
ENDBRANCH   1  10
TORSDOF 11
ENDMDL
MODEL 4
REMARK VINA RESULT:      -3.8      1.601      4.861
REMARK  Name = 
REMARK  11 active torsions:
REMARK  status: ('A' for Active; 'I' for Inactive)
REMARK    1  A    between atoms: O_1  and  C_2
REMARK    2  A    between atoms: C_2  and  C_3
REMARK    3  A    between atoms: C_3  and  O_5
REMARK    4  A    between atoms: C_3  and  C_6
REMARK    5  A    between atoms: C_6  and  O_8
REMARK    6  A    between atoms: C_6  and  C_9
REMARK    7  A    between atoms: C_9  and  O_11
REMARK    8  A    between atoms: C_9  and  C_12
REMARK    9  A    between atoms: C_12  and  O_14
REMARK   10  A    between atoms: C_12  and  C_15
REMARK   11  A    between atoms: C_15  and  O_16
REMARK                            x       y       z     vdW  Elec       q    Type
REMARK                         _______ _______ _______ _____ _____    ______ ____
ROOT
ATOM      1  C   UNL     1       9.167  -2.080  23.756  0.00  0.00    +0.176 C 
ENDROOT
BRANCH   1   2
ATOM      2  O   UNL     1      10.280  -2.983  23.871  0.00  0.00    -0.386 OA
ATOM      3  H   UNL     1       9.926  -3.867  23.638  0.00  0.00    +0.210 HD
ENDBRANCH   1   2
BRANCH   1   4
ATOM      4  C   UNL     1       7.886  -2.929  23.645  0.00  0.00    +0.171 C 
BRANCH   4   5
ATOM      5  O   UNL     1       7.779  -3.302  22.248  0.00  0.00    -0.387 OA
ATOM      6  H   UNL     1       8.064  -4.237  22.206  0.00  0.00    +0.210 HD
ENDBRANCH   4   5
BRANCH   4   7
ATOM      7  C   UNL     1       7.831  -4.207  24.485  0.00  0.00    +0.189 C 
BRANCH   7   8
ATOM      8  O   UNL     1       8.531  -5.257  23.814  0.00  0.00    -0.392 OA
ATOM      9  H   UNL     1       8.754  -5.910  24.503  0.00  0.00    +0.210 HD
ENDBRANCH   7   8
ENDBRANCH   4   7
ENDBRANCH   1   4
BRANCH   1  10
ATOM     10  C   UNL     1       9.493  -1.026  22.682  0.00  0.00    +0.176 C 
BRANCH  10  11
ATOM     11  O   UNL     1      10.033  -1.615  21.485  0.00  0.00    -0.386 OA
ATOM     12  H   UNL     1      10.885  -1.166  21.317  0.00  0.00    +0.210 HD
ENDBRANCH  10  11
BRANCH  10  13
ATOM     13  C   UNL     1      10.364   0.181  23.077  0.00  0.00    +0.171 C 
BRANCH  13  14
ATOM     14  O   UNL     1      10.614   0.082  24.503  0.00  0.00    -0.387 OA
ATOM     15  H   UNL     1       9.742   0.233  24.926  0.00  0.00    +0.210 HD
ENDBRANCH  13  14
BRANCH  13  16
ATOM     16  C   UNL     1       9.749   1.566  22.876  0.00  0.00    +0.189 C 
BRANCH  16  17
ATOM     17  O   UNL     1      10.046   2.038  21.561  0.00  0.00    -0.392 OA
ATOM     18  H   UNL     1      10.257   1.238  21.040  0.00  0.00    +0.210 HD
ENDBRANCH  16  17
ENDBRANCH  13  16
ENDBRANCH  10  13
ENDBRANCH   1  10
TORSDOF 11
ENDMDL
MODEL 5
REMARK VINA RESULT:      -3.7      2.469      4.565
REMARK  Name = 
REMARK  11 active torsions:
REMARK  status: ('A' for Active; 'I' for Inactive)
REMARK    1  A    between atoms: O_1  and  C_2
REMARK    2  A    between atoms: C_2  and  C_3
REMARK    3  A    between atoms: C_3  and  O_5
REMARK    4  A    between atoms: C_3  and  C_6
REMARK    5  A    between atoms: C_6  and  O_8
REMARK    6  A    between atoms: C_6  and  C_9
REMARK    7  A    between atoms: C_9  and  O_11
REMARK    8  A    between atoms: C_9  and  C_12
REMARK    9  A    between atoms: C_12  and  O_14
REMARK   10  A    between atoms: C_12  and  C_15
REMARK   11  A    between atoms: C_15  and  O_16
REMARK                            x       y       z     vdW  Elec       q    Type
REMARK                         _______ _______ _______ _____ _____    ______ ____
ROOT
ATOM      1  C   UNL     1       7.678  -5.060  23.964  0.00  0.00    +0.176 C 
ENDROOT
BRANCH   1   2
ATOM      2  O   UNL     1       6.496  -5.119  24.782  0.00  0.00    -0.386 OA
ATOM      3  H   UNL     1       5.743  -5.109  24.155  0.00  0.00    +0.210 HD
ENDBRANCH   1   2
BRANCH   1   4
ATOM      4  C   UNL     1       8.894  -4.991  24.908  0.00  0.00    +0.171 C 
BRANCH   4   5
ATOM      5  O   UNL     1       9.735  -3.930  24.390  0.00  0.00    -0.387 OA
ATOM      6  H   UNL     1      10.489  -4.381  23.959  0.00  0.00    +0.210 HD
ENDBRANCH   4   5
BRANCH   4   7
ATOM      7  C   UNL     1       8.608  -4.695  26.382  0.00  0.00    +0.189 C 
BRANCH   7   8
ATOM      8  O   UNL     1       8.164  -5.886  27.036  0.00  0.00    -0.392 OA
ATOM      9  H   UNL     1       7.854  -5.605  27.917  0.00  0.00    +0.210 HD
ENDBRANCH   7   8
ENDBRANCH   4   7
ENDBRANCH   1   4
BRANCH   1  10
ATOM     10  C   UNL     1       7.477  -3.987  22.879  0.00  0.00    +0.176 C 
BRANCH  10  11
ATOM     11  O   UNL     1       7.206  -2.689  23.438  0.00  0.00    -0.386 OA
ATOM     12  H   UNL     1       8.063  -2.219  23.471  0.00  0.00    +0.210 HD
ENDBRANCH  10  11
BRANCH  10  13
ATOM     13  C   UNL     1       6.465  -4.263  21.752  0.00  0.00    +0.171 C 
BRANCH  13  14
ATOM     14  O   UNL     1       5.140  -4.046  22.301  0.00  0.00    -0.387 OA
ATOM     15  H   UNL     1       4.721  -4.932  22.319  0.00  0.00    +0.210 HD
ENDBRANCH  13  14
BRANCH  13  16
ATOM     16  C   UNL     1       6.434  -5.684  21.190  0.00  0.00    +0.189 C 
BRANCH  16  17
ATOM     17  O   UNL     1       5.323  -6.395  21.739  0.00  0.00    -0.392 OA
ATOM     18  H   UNL     1       5.530  -7.341  21.609  0.00  0.00    +0.210 HD
ENDBRANCH  16  17
ENDBRANCH  13  16
ENDBRANCH  10  13
ENDBRANCH   1  10
TORSDOF 11
ENDMDL
MODEL 6
REMARK VINA RESULT:      -3.7      2.059      5.375
REMARK  Name = 
REMARK  11 active torsions:
REMARK  status: ('A' for Active; 'I' for Inactive)
REMARK    1  A    between atoms: O_1  and  C_2
REMARK    2  A    between atoms: C_2  and  C_3
REMARK    3  A    between atoms: C_3  and  O_5
REMARK    4  A    between atoms: C_3  and  C_6
REMARK    5  A    between atoms: C_6  and  O_8
REMARK    6  A    between atoms: C_6  and  C_9
REMARK    7  A    between atoms: C_9  and  O_11
REMARK    8  A    between atoms: C_9  and  C_12
REMARK    9  A    between atoms: C_12  and  O_14
REMARK   10  A    between atoms: C_12  and  C_15
REMARK   11  A    between atoms: C_15  and  O_16
REMARK                            x       y       z     vdW  Elec       q    Type
REMARK                         _______ _______ _______ _____ _____    ______ ____
ROOT
ATOM      1  C   UNL     1       9.993  -1.103  23.093  0.00  0.00    +0.176 C 
ENDROOT
BRANCH   1   2
ATOM      2  O   UNL     1      10.445  -1.627  21.831  0.00  0.00    -0.386 OA
ATOM      3  H   UNL     1      10.111  -1.004  21.153  0.00  0.00    +0.210 HD
ENDBRANCH   1   2
BRANCH   1   4
ATOM      4  C   UNL     1       8.673  -1.814  23.447  0.00  0.00    +0.171 C 
BRANCH   4   5
ATOM      5  O   UNL     1       8.102  -2.240  22.183  0.00  0.00    -0.387 OA
ATOM      6  H   UNL     1       7.630  -1.458  21.834  0.00  0.00    +0.210 HD
ENDBRANCH   4   5
BRANCH   4   7
ATOM      7  C   UNL     1       8.772  -3.038  24.361  0.00  0.00    +0.189 C 
BRANCH   7   8
ATOM      8  O   UNL     1      10.053  -3.652  24.209  0.00  0.00    -0.392 OA
ATOM      9  H   UNL     1      10.384  -3.367  23.337  0.00  0.00    +0.210 HD
ENDBRANCH   7   8
ENDBRANCH   4   7
ENDBRANCH   1   4
BRANCH   1  10
ATOM     10  C   UNL     1      10.056   0.434  23.041  0.00  0.00    +0.176 C 
BRANCH  10  11
ATOM     11  O   UNL     1       9.361   1.046  24.143  0.00  0.00    -0.386 OA
ATOM     12  H   UNL     1       8.587   1.506  23.759  0.00  0.00    +0.210 HD
ENDBRANCH  10  11
BRANCH  10  13
ATOM     13  C   UNL     1       9.643   1.143  21.738  0.00  0.00    +0.171 C 
BRANCH  13  14
ATOM     14  O   UNL     1      10.470   2.328  21.613  0.00  0.00    -0.387 OA
ATOM     15  H   UNL     1      10.367   2.615  20.681  0.00  0.00    +0.210 HD
ENDBRANCH  13  14
BRANCH  13  16
ATOM     16  C   UNL     1       8.204   1.653  21.660  0.00  0.00    +0.189 C 
BRANCH  16  17
ATOM     17  O   UNL     1       8.167   3.043  21.989  0.00  0.00    -0.392 OA
ATOM     18  H   UNL     1       7.859   3.083  22.915  0.00  0.00    +0.210 HD
ENDBRANCH  16  17
ENDBRANCH  13  16
ENDBRANCH  10  13
ENDBRANCH   1  10
TORSDOF 11
ENDMDL
MODEL 7
REMARK VINA RESULT:      -3.7      2.231      5.478
REMARK  Name = 
REMARK  11 active torsions:
REMARK  status: ('A' for Active; 'I' for Inactive)
REMARK    1  A    between atoms: O_1  and  C_2
REMARK    2  A    between atoms: C_2  and  C_3
REMARK    3  A    between atoms: C_3  and  O_5
REMARK    4  A    between atoms: C_3  and  C_6
REMARK    5  A    between atoms: C_6  and  O_8
REMARK    6  A    between atoms: C_6  and  C_9
REMARK    7  A    between atoms: C_9  and  O_11
REMARK    8  A    between atoms: C_9  and  C_12
REMARK    9  A    between atoms: C_12  and  O_14
REMARK   10  A    between atoms: C_12  and  C_15
REMARK   11  A    between atoms: C_15  and  O_16
REMARK                            x       y       z     vdW  Elec       q    Type
REMARK                         _______ _______ _______ _____ _____    ______ ____
ROOT
ATOM      1  C   UNL     1       8.923  -0.090  23.415  0.00  0.00    +0.176 C 
ENDROOT
BRANCH   1   2
ATOM      2  O   UNL     1      10.295   0.171  23.761  0.00  0.00    -0.386 OA
ATOM      3  H   UNL     1      10.453   1.107  23.521  0.00  0.00    +0.210 HD
ENDBRANCH   1   2
BRANCH   1   4
ATOM      4  C   UNL     1       8.585  -1.516  23.890  0.00  0.00    +0.171 C 
BRANCH   4   5
ATOM      5  O   UNL     1       7.691  -2.064  22.889  0.00  0.00    -0.387 OA
ATOM      6  H   UNL     1       7.147  -2.727  23.360  0.00  0.00    +0.210 HD
ENDBRANCH   4   5
BRANCH   4   7
ATOM      7  C   UNL     1       9.759  -2.482  24.062  0.00  0.00    +0.189 C 
BRANCH   7   8
ATOM      8  O   UNL     1      10.576  -2.464  22.890  0.00  0.00    -0.392 OA
ATOM      9  H   UNL     1      10.493  -1.564  22.522  0.00  0.00    +0.210 HD
ENDBRANCH   7   8
ENDBRANCH   4   7
ENDBRANCH   1   4
BRANCH   1  10
ATOM     10  C   UNL     1       8.698   0.310  21.945  0.00  0.00    +0.176 C 
BRANCH  10  11
ATOM     11  O   UNL     1       9.513  -0.455  21.040  0.00  0.00    -0.386 OA
ATOM     12  H   UNL     1       9.754  -1.277  21.513  0.00  0.00    +0.210 HD
ENDBRANCH  10  11
BRANCH  10  13
ATOM     13  C   UNL     1       8.799   1.800  21.566  0.00  0.00    +0.171 C 
BRANCH  13  14
ATOM     14  O   UNL     1      10.206   2.151  21.575  0.00  0.00    -0.387 OA
ATOM     15  H   UNL     1      10.232   3.099  21.827  0.00  0.00    +0.210 HD
ENDBRANCH  13  14
BRANCH  13  16
ATOM     16  C   UNL     1       8.134   2.796  22.515  0.00  0.00    +0.189 C 
BRANCH  16  17
ATOM     17  O   UNL     1       9.085   3.783  22.920  0.00  0.00    -0.392 OA
ATOM     18  H   UNL     1       9.897   3.285  23.140  0.00  0.00    +0.210 HD
ENDBRANCH  16  17
ENDBRANCH  13  16
ENDBRANCH  10  13
ENDBRANCH   1  10
TORSDOF 11
ENDMDL
MODEL 8
REMARK VINA RESULT:      -3.7      1.374      1.692
REMARK  Name = 
REMARK  11 active torsions:
REMARK  status: ('A' for Active; 'I' for Inactive)
REMARK    1  A    between atoms: O_1  and  C_2
REMARK    2  A    between atoms: C_2  and  C_3
REMARK    3  A    between atoms: C_3  and  O_5
REMARK    4  A    between atoms: C_3  and  C_6
REMARK    5  A    between atoms: C_6  and  O_8
REMARK    6  A    between atoms: C_6  and  C_9
REMARK    7  A    between atoms: C_9  and  O_11
REMARK    8  A    between atoms: C_9  and  C_12
REMARK    9  A    between atoms: C_12  and  O_14
REMARK   10  A    between atoms: C_12  and  C_15
REMARK   11  A    between atoms: C_15  and  O_16
REMARK                            x       y       z     vdW  Elec       q    Type
REMARK                         _______ _______ _______ _____ _____    ______ ____
ROOT
ATOM      1  C   UNL     1       8.901  -1.087  23.400  0.00  0.00    +0.176 C 
ENDROOT
BRANCH   1   2
ATOM      2  O   UNL     1       7.735  -1.168  22.562  0.00  0.00    -0.386 OA
ATOM      3  H   UNL     1       7.866  -1.962  22.004  0.00  0.00    +0.210 HD
ENDBRANCH   1   2
BRANCH   1   4
ATOM      4  C   UNL     1      10.059  -0.551  22.537  0.00  0.00    +0.171 C 
BRANCH   4   5
ATOM      5  O   UNL     1      10.128  -1.424  21.381  0.00  0.00    -0.387 OA
ATOM      6  H   UNL     1       9.441  -1.096  20.767  0.00  0.00    +0.210 HD
ENDBRANCH   4   5
BRANCH   4   7
ATOM      7  C   UNL     1       9.939   0.891  22.040  0.00  0.00    +0.189 C 
BRANCH   7   8
ATOM      8  O   UNL     1       8.984   0.957  20.978  0.00  0.00    -0.392 OA
ATOM      9  H   UNL     1       9.212   1.755  20.465  0.00  0.00    +0.210 HD
ENDBRANCH   7   8
ENDBRANCH   4   7
ENDBRANCH   1   4
BRANCH   1  10
ATOM     10  C   UNL     1       9.054  -2.415  24.164  0.00  0.00    +0.176 C 
BRANCH  10  11
ATOM     11  O   UNL     1      10.295  -3.078  23.864  0.00  0.00    -0.386 OA
ATOM     12  H   UNL     1      10.646  -2.654  23.056  0.00  0.00    +0.210 HD
ENDBRANCH  10  11
BRANCH  10  13
ATOM     13  C   UNL     1       7.911  -3.444  24.085  0.00  0.00    +0.171 C 
BRANCH  13  14
ATOM     14  O   UNL     1       6.729  -2.817  24.648  0.00  0.00    -0.387 OA
ATOM     15  H   UNL     1       6.692  -1.927  24.238  0.00  0.00    +0.210 HD
ENDBRANCH  13  14
BRANCH  13  16
ATOM     16  C   UNL     1       8.093  -4.735  24.882  0.00  0.00    +0.189 C 
BRANCH  16  17
ATOM     17  O   UNL     1       9.075  -5.558  24.248  0.00  0.00    -0.392 OA
ATOM     18  H   UNL     1       9.795  -4.950  23.990  0.00  0.00    +0.210 HD
ENDBRANCH  16  17
ENDBRANCH  13  16
ENDBRANCH  10  13
ENDBRANCH   1  10
TORSDOF 11
ENDMDL
MODEL 9
REMARK VINA RESULT:      -3.7      1.335      2.470
REMARK  Name = 
REMARK  11 active torsions:
REMARK  status: ('A' for Active; 'I' for Inactive)
REMARK    1  A    between atoms: O_1  and  C_2
REMARK    2  A    between atoms: C_2  and  C_3
REMARK    3  A    between atoms: C_3  and  O_5
REMARK    4  A    between atoms: C_3  and  C_6
REMARK    5  A    between atoms: C_6  and  O_8
REMARK    6  A    between atoms: C_6  and  C_9
REMARK    7  A    between atoms: C_9  and  O_11
REMARK    8  A    between atoms: C_9  and  C_12
REMARK    9  A    between atoms: C_12  and  O_14
REMARK   10  A    between atoms: C_12  and  C_15
REMARK   11  A    between atoms: C_15  and  O_16
REMARK                            x       y       z     vdW  Elec       q    Type
REMARK                         _______ _______ _______ _____ _____    ______ ____
ROOT
ATOM      1  C   UNL     1       8.877  -1.263  22.037  0.00  0.00    +0.176 C 
ENDROOT
BRANCH   1   2
ATOM      2  O   UNL     1      10.158  -1.559  21.452  0.00  0.00    -0.386 OA
ATOM      3  H   UNL     1      10.131  -2.512  21.231  0.00  0.00    +0.210 HD
ENDBRANCH   1   2
BRANCH   1   4
ATOM      4  C   UNL     1       9.061  -0.056  22.976  0.00  0.00    +0.171 C 
BRANCH   4   5
ATOM      5  O   UNL     1      10.449  -0.089  23.394  0.00  0.00    -0.387 OA
ATOM      6  H   UNL     1      10.456  -0.584  24.238  0.00  0.00    +0.210 HD
ENDBRANCH   4   5
BRANCH   4   7
ATOM      7  C   UNL     1       8.773   1.327  22.388  0.00  0.00    +0.189 C 
BRANCH   7   8
ATOM      8  O   UNL     1       9.002   1.309  20.977  0.00  0.00    -0.392 OA
ATOM      9  H   UNL     1       9.861   0.864  20.853  0.00  0.00    +0.210 HD
ENDBRANCH   7   8
ENDBRANCH   4   7
ENDBRANCH   1   4
BRANCH   1  10
ATOM     10  C   UNL     1       8.260  -2.570  22.566  0.00  0.00    +0.176 C 
BRANCH  10  11
ATOM     11  O   UNL     1       6.822  -2.539  22.556  0.00  0.00    -0.386 OA
ATOM     12  H   UNL     1       6.563  -2.028  21.763  0.00  0.00    +0.210 HD
ENDBRANCH  10  11
BRANCH  10  13
ATOM     13  C   UNL     1       8.735  -3.107  23.929  0.00  0.00    +0.171 C 
BRANCH  13  14
ATOM     14  O   UNL     1      10.186  -3.127  23.901  0.00  0.00    -0.387 OA
ATOM     15  H   UNL     1      10.437  -3.994  24.285  0.00  0.00    +0.210 HD
ENDBRANCH  13  14
BRANCH  13  16
ATOM     16  C   UNL     1       8.325  -4.536  24.284  0.00  0.00    +0.189 C 
BRANCH  16  17
ATOM     17  O   UNL     1       7.757  -5.173  23.138  0.00  0.00    -0.392 OA
ATOM     18  H   UNL     1       7.124  -5.829  23.493  0.00  0.00    +0.210 HD
ENDBRANCH  16  17
ENDBRANCH  13  16
ENDBRANCH  10  13
ENDBRANCH   1  10
TORSDOF 11
ENDMDL
