MODEL 1
REMARK VINA RESULT:      -6.3      0.000      0.000
REMARK  Name = 
REMARK  16 active torsions:
REMARK  status: ('A' for Active; 'I' for Inactive)
REMARK    1  A    between atoms: C_1  and  C_2
REMARK    2  A    between atoms: C_5  and  C_6
REMARK    3  A    between atoms: C_6  and  O_7
REMARK    4  A    between atoms: O_7  and  P_8
REMARK    5  A    between atoms: P_8  and  O_9
REMARK    6  A    between atoms: P_8  and  O_10
REMARK    7  A    between atoms: C_12  and  C_13
REMARK    8  A    between atoms: C_13  and  N_14
REMARK    9  A    between atoms: N_14  and  CA_15
REMARK   10  A    between atoms: CA_15  and  CB_17
REMARK   11  A    between atoms: CA_15  and  C_22
REMARK   12  A    between atoms: CB_17  and  CG_18
REMARK   13  A    between atoms: CG_18  and  CD_19
REMARK   14  A    between atoms: CD_19  and  OE1_20
REMARK   15  A    between atoms: C_22  and  O_23
REMARK   16  A    between atoms: C_25  and  O_26
REMARK                            x       y       z     vdW  Elec       q    Type
REMARK                         _______ _______ _______ _____ _____    ______ ____
ROOT
ATOM      1  C   UNL     1       6.436  -5.594  21.182  0.00  0.00    +0.069 C 
ATOM      2  C   UNL     1       6.392  -5.169  22.622  0.00  0.00    +0.080 A 
ATOM      3  C   UNL     1       6.961  -3.953  23.031  0.00  0.00    +0.142 A 
ATOM      4  C   UNL     1       6.862  -3.541  24.377  0.00  0.00    +0.016 A 
ATOM      5  C   UNL     1       6.168  -4.411  25.257  0.00  0.00    +0.005 A 
ATOM      6  C   UNL     1       5.665  -5.614  24.748  0.00  0.00    +0.117 A 
ATOM      7  N   UNL     1       5.763  -6.008  23.469  0.00  0.00    -0.256 NA
ENDROOT
BRANCH   3   8
ATOM      8  O   UNL     1       7.585  -3.228  22.051  0.00  0.00    -0.505 OA
ATOM      9  H   UNL     1       8.547  -3.250  22.129  0.00  0.00    +0.292 HD
ENDBRANCH   3   8
BRANCH   4  10
ATOM     10  C   ACE A   0       7.356  -2.175  24.831  0.00  0.00    +0.121 C 
BRANCH  10  11
ATOM     11  N   UNL     1       8.792  -1.937  24.559  0.00  0.00    -0.300 NA
ATOM     12  H   UNL     1       9.076  -2.655  23.890  0.00  0.00    +0.123 HD
BRANCH  11  13
ATOM     13  CA  UNL     1       8.997  -0.594  23.940  0.00  0.00    +0.164 C 
BRANCH  13  14
ATOM     14  C   UNL     1       9.622   0.394  24.942  0.00  0.00    +0.322 C 
ATOM     15  OXT UNL     1      10.104   1.475  24.638  0.00  0.00    -0.249 OA
BRANCH  14  16
ATOM     16  O   UNL     1       9.650  -0.089  26.212  0.00  0.00    -0.480 OA
ATOM     17  H   UNL     1       9.339   0.637  26.812  0.00  0.00    +0.295 HD
ENDBRANCH  14  16
ENDBRANCH  13  14
BRANCH  13  18
ATOM     18  CB  UNL     1       9.966  -0.663  22.743  0.00  0.00    +0.041 C 
BRANCH  18  19
ATOM     19  CG  UNL     1       9.372  -0.183  21.419  0.00  0.00    +0.122 C 
BRANCH  19  20
ATOM     20  CD  UNL     1       9.026   1.291  21.472  0.00  0.00    +0.305 C 
ATOM     21  OE2 UNL     1       7.896   1.743  21.410  0.00  0.00    -0.251 OA
BRANCH  20  22
ATOM     22  OE1 UNL     1      10.117   2.071  21.616  0.00  0.00    -0.481 OA
ATOM     23  HE1 UNL     1      10.582   1.966  22.467  0.00  0.00    +0.295 HD
ENDBRANCH  20  22
ENDBRANCH  19  20
ENDBRANCH  18  19
ENDBRANCH  13  18
ENDBRANCH  11  13
ENDBRANCH  10  11
ENDBRANCH   4  10
BRANCH   5  24
ATOM     24  C   UNL     1       5.962  -4.190  26.729  0.00  0.00    +0.209 C 
BRANCH  24  25
ATOM     25  O   UNL     1       5.293  -5.234  27.393  0.00  0.00    -0.282 OA
BRANCH  25  26
ATOM     26  P   UNL     1       6.008  -6.040  28.573  0.00  0.00    +0.473 P 
ATOM     27  O   UNL     1       6.030  -5.435  29.931  0.00  0.00    -0.228 OA
BRANCH  26  28
ATOM     28  O   UNL     1       7.470  -6.196  27.944  0.00  0.00    -0.303 OA
ATOM     29  H   UNL     1       8.125  -6.288  28.671  0.00  0.00    +0.222 HD
ENDBRANCH  26  28
BRANCH  26  30
ATOM     30  O   UNL     1       5.484  -7.537  28.446  0.00  0.00    -0.303 OA
ATOM     31  H   UNL     1       5.763  -7.926  27.599  0.00  0.00    +0.222 HD
ENDBRANCH  26  30
ENDBRANCH  25  26
ENDBRANCH  24  25
ENDBRANCH   5  24
TORSDOF 15
ENDMDL
MODEL 2
REMARK VINA RESULT:      -6.2      1.316      1.916
REMARK  Name = 
REMARK  16 active torsions:
REMARK  status: ('A' for Active; 'I' for Inactive)
REMARK    1  A    between atoms: C_1  and  C_2
REMARK    2  A    between atoms: C_5  and  C_6
REMARK    3  A    between atoms: C_6  and  O_7
REMARK    4  A    between atoms: O_7  and  P_8
REMARK    5  A    between atoms: P_8  and  O_9
REMARK    6  A    between atoms: P_8  and  O_10
REMARK    7  A    between atoms: C_12  and  C_13
REMARK    8  A    between atoms: C_13  and  N_14
REMARK    9  A    between atoms: N_14  and  CA_15
REMARK   10  A    between atoms: CA_15  and  CB_17
REMARK   11  A    between atoms: CA_15  and  C_22
REMARK   12  A    between atoms: CB_17  and  CG_18
REMARK   13  A    between atoms: CG_18  and  CD_19
REMARK   14  A    between atoms: CD_19  and  OE1_20
REMARK   15  A    between atoms: C_22  and  O_23
REMARK   16  A    between atoms: C_25  and  O_26
REMARK                            x       y       z     vdW  Elec       q    Type
REMARK                         _______ _______ _______ _____ _____    ______ ____
ROOT
ATOM      1  C   UNL     1       6.181  -5.593  20.995  0.00  0.00    +0.069 C 
ATOM      2  C   UNL     1       6.218  -5.200  22.443  0.00  0.00    +0.080 A 
ATOM      3  C   UNL     1       7.017  -4.130  22.879  0.00  0.00    +0.142 A 
ATOM      4  C   UNL     1       6.998  -3.737  24.234  0.00  0.00    +0.016 A 
ATOM      5  C   UNL     1       6.141  -4.470  25.095  0.00  0.00    +0.005 A 
ATOM      6  C   UNL     1       5.410  -5.537  24.560  0.00  0.00    +0.117 A 
ATOM      7  N   UNL     1       5.432  -5.915  23.273  0.00  0.00    -0.256 NA
ENDROOT
BRANCH   3   8
ATOM      8  O   UNL     1       7.776  -3.523  21.914  0.00  0.00    -0.505 OA
ATOM      9  H   UNL     1       7.736  -3.985  21.066  0.00  0.00    +0.292 HD
ENDBRANCH   3   8
BRANCH   4  10
ATOM     10  C   ACE A   0       7.753  -2.507  24.717  0.00  0.00    +0.121 C 
BRANCH  10  11
ATOM     11  N   UNL     1       7.592  -1.324  23.841  0.00  0.00    -0.300 NA
ATOM     12  H   UNL     1       6.939  -0.703  24.321  0.00  0.00    +0.123 HD
BRANCH  11  13
ATOM     13  CA  UNL     1       8.894  -0.614  23.668  0.00  0.00    +0.164 C 
BRANCH  13  14
ATOM     14  C   UNL     1       9.732  -1.248  22.544  0.00  0.00    +0.322 C 
ATOM     15  OXT UNL     1      10.612  -2.078  22.720  0.00  0.00    -0.249 OA
BRANCH  14  16
ATOM     16  O   UNL     1       9.443  -0.739  21.317  0.00  0.00    -0.480 OA
ATOM     17  H   UNL     1       8.644  -0.159  21.418  0.00  0.00    +0.295 HD
ENDBRANCH  14  16
ENDBRANCH  13  14
BRANCH  13  18
ATOM     18  CB  UNL     1       8.687   0.860  23.271  0.00  0.00    +0.041 C 
BRANCH  18  19
ATOM     19  CG  UNL     1       9.623   1.843  23.974  0.00  0.00    +0.122 C 
BRANCH  19  20
ATOM     20  CD  UNL     1      10.452   2.626  22.975  0.00  0.00    +0.305 C 
ATOM     21  OE2 UNL     1      11.238   3.510  23.265  0.00  0.00    -0.251 OA
BRANCH  20  22
ATOM     22  OE1 UNL     1      10.239   2.227  21.704  0.00  0.00    -0.481 OA
ATOM     23  HE1 UNL     1      10.500   2.877  21.025  0.00  0.00    +0.295 HD
ENDBRANCH  20  22
ENDBRANCH  19  20
ENDBRANCH  18  19
ENDBRANCH  13  18
ENDBRANCH  11  13
ENDBRANCH  10  11
ENDBRANCH   4  10
BRANCH   5  24
ATOM     24  C   UNL     1       5.979  -4.245  26.572  0.00  0.00    +0.209 C 
BRANCH  24  25
ATOM     25  O   UNL     1       5.319  -5.281  27.256  0.00  0.00    -0.282 OA
BRANCH  25  26
ATOM     26  P   UNL     1       6.028  -6.032  28.476  0.00  0.00    +0.473 P 
ATOM     27  O   UNL     1       6.008  -5.384  29.814  0.00  0.00    -0.228 OA
BRANCH  26  28
ATOM     28  O   UNL     1       7.505  -6.175  27.882  0.00  0.00    -0.303 OA
ATOM     29  H   UNL     1       8.158  -5.994  28.594  0.00  0.00    +0.222 HD
ENDBRANCH  26  28
BRANCH  26  30
ATOM     30  O   UNL     1       5.539  -7.544  28.386  0.00  0.00    -0.303 OA
ATOM     31  H   UNL     1       5.968  -7.998  27.640  0.00  0.00    +0.222 HD
ENDBRANCH  26  30
ENDBRANCH  25  26
ENDBRANCH  24  25
ENDBRANCH   5  24
TORSDOF 15
ENDMDL
MODEL 3
REMARK VINA RESULT:      -6.1      2.604      3.801
REMARK  Name = 
REMARK  16 active torsions:
REMARK  status: ('A' for Active; 'I' for Inactive)
REMARK    1  A    between atoms: C_1  and  C_2
REMARK    2  A    between atoms: C_5  and  C_6
REMARK    3  A    between atoms: C_6  and  O_7
REMARK    4  A    between atoms: O_7  and  P_8
REMARK    5  A    between atoms: P_8  and  O_9
REMARK    6  A    between atoms: P_8  and  O_10
REMARK    7  A    between atoms: C_12  and  C_13
REMARK    8  A    between atoms: C_13  and  N_14
REMARK    9  A    between atoms: N_14  and  CA_15
REMARK   10  A    between atoms: CA_15  and  CB_17
REMARK   11  A    between atoms: CA_15  and  C_22
REMARK   12  A    between atoms: CB_17  and  CG_18
REMARK   13  A    between atoms: CG_18  and  CD_19
REMARK   14  A    between atoms: CD_19  and  OE1_20
REMARK   15  A    between atoms: C_22  and  O_23
REMARK   16  A    between atoms: C_25  and  O_26
REMARK                            x       y       z     vdW  Elec       q    Type
REMARK                         _______ _______ _______ _____ _____    ______ ____
ROOT
ATOM      1  C   UNL     1       4.496   0.296  26.972  0.00  0.00    +0.069 C 
ATOM      2  C   UNL     1       5.008  -0.922  26.260  0.00  0.00    +0.080 A 
ATOM      3  C   UNL     1       5.517  -0.833  24.955  0.00  0.00    +0.142 A 
ATOM      4  C   UNL     1       6.047  -1.977  24.320  0.00  0.00    +0.016 A 
ATOM      5  C   UNL     1       6.032  -3.181  25.069  0.00  0.00    +0.005 A 
ATOM      6  C   UNL     1       5.474  -3.164  26.353  0.00  0.00    +0.117 A 
ATOM      7  N   UNL     1       4.965  -2.077  26.955  0.00  0.00    -0.256 NA
ENDROOT
BRANCH   3   8
ATOM      8  O   UNL     1       5.466   0.409  24.380  0.00  0.00    -0.505 OA
ATOM      9  H   UNL     1       5.314   1.110  25.026  0.00  0.00    +0.292 HD
ENDBRANCH   3   8
BRANCH   4  10
ATOM     10  C   ACE A   0       6.719  -1.893  22.958  0.00  0.00    +0.121 C 
BRANCH  10  11
ATOM     11  N   UNL     1       7.779  -0.862  22.877  0.00  0.00    -0.300 NA
ATOM     12  H   UNL     1       7.356   0.006  23.210  0.00  0.00    +0.123 HD
BRANCH  11  13
ATOM     13  CA  UNL     1       8.926  -1.211  23.767  0.00  0.00    +0.164 C 
BRANCH  13  14
ATOM     14  C   UNL     1       9.992  -2.026  23.012  0.00  0.00    +0.322 C 
ATOM     15  OXT UNL     1      10.613  -2.964  23.490  0.00  0.00    -0.249 OA
BRANCH  14  16
ATOM     16  O   UNL     1      10.231  -1.552  21.761  0.00  0.00    -0.480 OA
ATOM     17  H   UNL     1       9.965  -0.597  21.750  0.00  0.00    +0.295 HD
ENDBRANCH  14  16
ENDBRANCH  13  14
BRANCH  13  18
ATOM     18  CB  UNL     1       9.640   0.049  24.292  0.00  0.00    +0.041 C 
BRANCH  18  19
ATOM     19  CG  UNL     1       9.051   1.367  23.789  0.00  0.00    +0.122 C 
BRANCH  19  20
ATOM     20  CD  UNL     1       9.917   1.982  22.709  0.00  0.00    +0.305 C 
ATOM     21  OE2 UNL     1      10.718   2.882  22.888  0.00  0.00    -0.251 OA
BRANCH  20  22
ATOM     22  OE1 UNL     1       9.721   1.408  21.504  0.00  0.00    -0.481 OA
ATOM     23  HE1 UNL     1       8.975   0.779  21.470  0.00  0.00    +0.295 HD
ENDBRANCH  20  22
ENDBRANCH  19  20
ENDBRANCH  18  19
ENDBRANCH  13  18
ENDBRANCH  11  13
ENDBRANCH  10  11
ENDBRANCH   4  10
BRANCH   5  24
ATOM     24  C   UNL     1       6.518  -4.521  24.590  0.00  0.00    +0.209 C 
BRANCH  24  25
ATOM     25  O   UNL     1       7.916  -4.656  24.540  0.00  0.00    -0.282 OA
BRANCH  25  26
ATOM     26  P   UNL     1       8.772  -4.786  25.884  0.00  0.00    +0.473 P 
ATOM     27  O   UNL     1       9.100  -3.546  26.636  0.00  0.00    -0.228 OA
BRANCH  26  28
ATOM     28  O   UNL     1      10.070  -5.519  25.307  0.00  0.00    -0.303 OA
ATOM     29  H   UNL     1      10.873  -5.065  25.645  0.00  0.00    +0.222 HD
ENDBRANCH  26  28
BRANCH  26  30
ATOM     30  O   UNL     1       8.108  -5.982  26.697  0.00  0.00    -0.303 OA
ATOM     31  H   UNL     1       8.790  -6.600  27.013  0.00  0.00    +0.222 HD
ENDBRANCH  26  30
ENDBRANCH  25  26
ENDBRANCH  24  25
ENDBRANCH   5  24
TORSDOF 15
ENDMDL
MODEL 4
REMARK VINA RESULT:      -6.1      3.118      6.301
REMARK  Name = 
REMARK  16 active torsions:
REMARK  status: ('A' for Active; 'I' for Inactive)
REMARK    1  A    between atoms: C_1  and  C_2
REMARK    2  A    between atoms: C_5  and  C_6
REMARK    3  A    between atoms: C_6  and  O_7
REMARK    4  A    between atoms: O_7  and  P_8
REMARK    5  A    between atoms: P_8  and  O_9
REMARK    6  A    between atoms: P_8  and  O_10
REMARK    7  A    between atoms: C_12  and  C_13
REMARK    8  A    between atoms: C_13  and  N_14
REMARK    9  A    between atoms: N_14  and  CA_15
REMARK   10  A    between atoms: CA_15  and  CB_17
REMARK   11  A    between atoms: CA_15  and  C_22
REMARK   12  A    between atoms: CB_17  and  CG_18
REMARK   13  A    between atoms: CG_18  and  CD_19
REMARK   14  A    between atoms: CD_19  and  OE1_20
REMARK   15  A    between atoms: C_22  and  O_23
REMARK   16  A    between atoms: C_25  and  O_26
REMARK                            x       y       z     vdW  Elec       q    Type
REMARK                         _______ _______ _______ _____ _____    ______ ____
ROOT
ATOM      1  C   UNL     1      10.640   0.331  24.791  0.00  0.00    +0.069 C 
ATOM      2  C   UNL     1       9.618  -0.598  24.203  0.00  0.00    +0.080 A 
ATOM      3  C   UNL     1       8.595  -1.140  24.998  0.00  0.00    +0.142 A 
ATOM      4  C   UNL     1       7.609  -1.966  24.419  0.00  0.00    +0.016 A 
ATOM      5  C   UNL     1       7.718  -2.201  23.024  0.00  0.00    +0.005 A 
ATOM      6  C   UNL     1       8.795  -1.634  22.333  0.00  0.00    +0.117 A 
ATOM      7  N   UNL     1       9.736  -0.852  22.884  0.00  0.00    -0.256 NA
ENDROOT
BRANCH   3   8
ATOM      8  O   UNL     1       8.632  -0.802  26.325  0.00  0.00    -0.505 OA
ATOM      9  H   UNL     1       9.032  -1.490  26.871  0.00  0.00    +0.292 HD
ENDBRANCH   3   8
BRANCH   4  10
ATOM     10  C   ACE A   0       6.418  -2.468  25.222  0.00  0.00    +0.121 C 
BRANCH  10  11
ATOM     11  N   UNL     1       6.758  -2.876  26.604  0.00  0.00    -0.300 NA
ATOM     12  H   UNL     1       6.216  -2.267  27.220  0.00  0.00    +0.123 HD
BRANCH  11  13
ATOM     13  CA  UNL     1       6.355  -4.293  26.851  0.00  0.00    +0.164 C 
BRANCH  13  14
ATOM     14  C   UNL     1       5.370  -4.789  25.777  0.00  0.00    +0.322 C 
ATOM     15  OXT UNL     1       4.183  -4.498  25.740  0.00  0.00    -0.249 OA
BRANCH  14  16
ATOM     16  O   UNL     1       5.939  -5.653  24.896  0.00  0.00    -0.480 OA
ATOM     17  H   UNL     1       6.193  -6.468  25.403  0.00  0.00    +0.295 HD
ENDBRANCH  14  16
ENDBRANCH  13  14
BRANCH  13  18
ATOM     18  CB  UNL     1       7.566  -5.243  26.796  0.00  0.00    +0.041 C 
BRANCH  18  19
ATOM     19  CG  UNL     1       8.908  -4.547  26.571  0.00  0.00    +0.122 C 
BRANCH  19  20
ATOM     20  CD  UNL     1       9.582  -5.041  25.306  0.00  0.00    +0.305 C 
ATOM     21  OE2 UNL     1      10.783  -5.192  25.171  0.00  0.00    -0.251 OA
BRANCH  20  22
ATOM     22  OE1 UNL     1       8.696  -5.320  24.328  0.00  0.00    -0.481 OA
ATOM     23  HE1 UNL     1       8.953  -4.997  23.444  0.00  0.00    +0.295 HD
ENDBRANCH  20  22
ENDBRANCH  19  20
ENDBRANCH  18  19
ENDBRANCH  13  18
ENDBRANCH  11  13
ENDBRANCH  10  11
ENDBRANCH   4  10
BRANCH   5  24
ATOM     24  C   UNL     1       6.800  -3.063  22.204  0.00  0.00    +0.209 C 
BRANCH  24  25
ATOM     25  O   UNL     1       7.078  -4.440  22.262  0.00  0.00    -0.282 OA
BRANCH  25  26
ATOM     26  P   UNL     1       6.127  -5.495  21.529  0.00  0.00    +0.473 P 
ATOM     27  O   UNL     1       5.995  -5.421  20.050  0.00  0.00    -0.228 OA
BRANCH  26  28
ATOM     28  O   UNL     1       4.752  -5.190  22.286  0.00  0.00    -0.303 OA
ATOM     29  H   UNL     1       4.825  -4.326  22.750  0.00  0.00    +0.222 HD
ENDBRANCH  26  28
BRANCH  26  30
ATOM     30  O   UNL     1       6.491  -6.909  22.162  0.00  0.00    -0.303 OA
ATOM     31  H   UNL     1       5.684  -7.423  22.338  0.00  0.00    +0.222 HD
ENDBRANCH  26  30
ENDBRANCH  25  26
ENDBRANCH  24  25
ENDBRANCH   5  24
TORSDOF 15
ENDMDL
MODEL 5
REMARK VINA RESULT:      -6.0      2.768      6.961
REMARK  Name = 
REMARK  16 active torsions:
REMARK  status: ('A' for Active; 'I' for Inactive)
REMARK    1  A    between atoms: C_1  and  C_2
REMARK    2  A    between atoms: C_5  and  C_6
REMARK    3  A    between atoms: C_6  and  O_7
REMARK    4  A    between atoms: O_7  and  P_8
REMARK    5  A    between atoms: P_8  and  O_9
REMARK    6  A    between atoms: P_8  and  O_10
REMARK    7  A    between atoms: C_12  and  C_13
REMARK    8  A    between atoms: C_13  and  N_14
REMARK    9  A    between atoms: N_14  and  CA_15
REMARK   10  A    between atoms: CA_15  and  CB_17
REMARK   11  A    between atoms: CA_15  and  C_22
REMARK   12  A    between atoms: CB_17  and  CG_18
REMARK   13  A    between atoms: CG_18  and  CD_19
REMARK   14  A    between atoms: CD_19  and  OE1_20
REMARK   15  A    between atoms: C_22  and  O_23
REMARK   16  A    between atoms: C_25  and  O_26
REMARK                            x       y       z     vdW  Elec       q    Type
REMARK                         _______ _______ _______ _____ _____    ______ ____
ROOT
ATOM      1  C   UNL     1      10.812   0.442  24.379  0.00  0.00    +0.069 C 
ATOM      2  C   UNL     1       9.695  -0.464  23.947  0.00  0.00    +0.080 A 
ATOM      3  C   UNL     1       8.769  -0.960  24.879  0.00  0.00    +0.142 A 
ATOM      4  C   UNL     1       7.692  -1.765  24.449  0.00  0.00    +0.016 A 
ATOM      5  C   UNL     1       7.613  -2.026  23.057  0.00  0.00    +0.005 A 
ATOM      6  C   UNL     1       8.607  -1.506  22.221  0.00  0.00    +0.117 A 
ATOM      7  N   UNL     1       9.634  -0.744  22.630  0.00  0.00    -0.256 NA
ENDROOT
BRANCH   3   8
ATOM      8  O   UNL     1       8.987  -0.602  26.182  0.00  0.00    -0.505 OA
ATOM      9  H   UNL     1       9.687  -1.122  26.598  0.00  0.00    +0.292 HD
ENDBRANCH   3   8
BRANCH   4  10
ATOM     10  C   ACE A   0       6.602  -2.216  25.409  0.00  0.00    +0.121 C 
BRANCH  10  11
ATOM     11  N   UNL     1       7.011  -3.323  26.303  0.00  0.00    -0.300 NA
ATOM     12  H   UNL     1       6.372  -3.295  27.099  0.00  0.00    +0.123 HD
BRANCH  11  13
ATOM     13  CA  UNL     1       6.866  -4.640  25.614  0.00  0.00    +0.164 C 
BRANCH  13  14
ATOM     14  C   UNL     1       8.239  -5.259  25.296  0.00  0.00    +0.322 C 
ATOM     15  OXT UNL     1       8.790  -5.197  24.207  0.00  0.00    -0.249 OA
BRANCH  14  16
ATOM     16  O   UNL     1       8.760  -5.954  26.341  0.00  0.00    -0.480 OA
ATOM     17  H   UNL     1       8.592  -5.424  27.163  0.00  0.00    +0.295 HD
ENDBRANCH  14  16
ENDBRANCH  13  14
BRANCH  13  18
ATOM     18  CB  UNL     1       6.127  -5.663  26.498  0.00  0.00    +0.041 C 
BRANCH  18  19
ATOM     19  CG  UNL     1       5.913  -5.214  27.943  0.00  0.00    +0.122 C 
BRANCH  19  20
ATOM     20  CD  UNL     1       5.991  -6.385  28.902  0.00  0.00    +0.305 C 
ATOM     21  OE2 UNL     1       6.354  -6.310  30.063  0.00  0.00    -0.251 OA
BRANCH  20  22
ATOM     22  OE1 UNL     1       5.594  -7.542  28.334  0.00  0.00    -0.481 OA
ATOM     23  HE1 UNL     1       5.932  -7.688  27.430  0.00  0.00    +0.295 HD
ENDBRANCH  20  22
ENDBRANCH  19  20
ENDBRANCH  18  19
ENDBRANCH  13  18
ENDBRANCH  11  13
ENDBRANCH  10  11
ENDBRANCH   4  10
BRANCH   5  24
ATOM     24  C   UNL     1       6.572  -2.874  22.380  0.00  0.00    +0.209 C 
BRANCH  24  25
ATOM     25  O   UNL     1       7.046  -4.097  21.875  0.00  0.00    -0.282 OA
BRANCH  25  26
ATOM     26  P   UNL     1       6.049  -5.326  21.649  0.00  0.00    +0.473 P 
ATOM     27  O   UNL     1       4.761  -5.339  22.392  0.00  0.00    -0.228 OA
BRANCH  26  28
ATOM     28  O   UNL     1       7.013  -6.533  22.064  0.00  0.00    -0.303 OA
ATOM     29  H   UNL     1       7.309  -6.403  22.992  0.00  0.00    +0.222 HD
ENDBRANCH  26  28
BRANCH  26  30
ATOM     30  O   UNL     1       5.989  -5.541  20.073  0.00  0.00    -0.303 OA
ATOM     31  H   UNL     1       6.097  -6.482  19.852  0.00  0.00    +0.222 HD
ENDBRANCH  26  30
ENDBRANCH  25  26
ENDBRANCH  24  25
ENDBRANCH   5  24
TORSDOF 15
ENDMDL
MODEL 6
REMARK VINA RESULT:      -6.0      2.907      4.226
REMARK  Name = 
REMARK  16 active torsions:
REMARK  status: ('A' for Active; 'I' for Inactive)
REMARK    1  A    between atoms: C_1  and  C_2
REMARK    2  A    between atoms: C_5  and  C_6
REMARK    3  A    between atoms: C_6  and  O_7
REMARK    4  A    between atoms: O_7  and  P_8
REMARK    5  A    between atoms: P_8  and  O_9
REMARK    6  A    between atoms: P_8  and  O_10
REMARK    7  A    between atoms: C_12  and  C_13
REMARK    8  A    between atoms: C_13  and  N_14
REMARK    9  A    between atoms: N_14  and  CA_15
REMARK   10  A    between atoms: CA_15  and  CB_17
REMARK   11  A    between atoms: CA_15  and  C_22
REMARK   12  A    between atoms: CB_17  and  CG_18
REMARK   13  A    between atoms: CG_18  and  CD_19
REMARK   14  A    between atoms: CD_19  and  OE1_20
REMARK   15  A    between atoms: C_22  and  O_23
REMARK   16  A    between atoms: C_25  and  O_26
REMARK                            x       y       z     vdW  Elec       q    Type
REMARK                         _______ _______ _______ _____ _____    ______ ____
ROOT
ATOM      1  C   UNL     1       4.753  -0.121  27.302  0.00  0.00    +0.069 C 
ATOM      2  C   UNL     1       5.297  -1.216  26.430  0.00  0.00    +0.080 A 
ATOM      3  C   UNL     1       5.605  -0.977  25.081  0.00  0.00    +0.142 A 
ATOM      4  C   UNL     1       6.169  -2.000  24.290  0.00  0.00    +0.016 A 
ATOM      5  C   UNL     1       6.398  -3.244  24.932  0.00  0.00    +0.005 A 
ATOM      6  C   UNL     1       6.026  -3.382  26.274  0.00  0.00    +0.117 A 
ATOM      7  N   UNL     1       5.485  -2.411  27.026  0.00  0.00    -0.256 NA
ENDROOT
BRANCH   3   8
ATOM      8  O   UNL     1       5.332   0.285  24.624  0.00  0.00    -0.505 OA
ATOM      9  H   UNL     1       4.478   0.614  24.933  0.00  0.00    +0.292 HD
ENDBRANCH   3   8
BRANCH   4  10
ATOM     10  C   ACE A   0       6.631  -1.741  22.864  0.00  0.00    +0.121 C 
BRANCH  10  11
ATOM     11  N   UNL     1       7.610  -0.637  22.743  0.00  0.00    -0.300 NA
ATOM     12  H   UNL     1       7.191   0.166  23.213  0.00  0.00    +0.123 HD
BRANCH  11  13
ATOM     13  CA  UNL     1       8.888  -0.986  23.432  0.00  0.00    +0.164 C 
BRANCH  13  14
ATOM     14  C   UNL     1       9.958  -1.446  22.425  0.00  0.00    +0.322 C 
ATOM     15  OXT UNL     1      10.875  -2.209  22.690  0.00  0.00    -0.249 OA
BRANCH  14  16
ATOM     16  O   UNL     1       9.824  -0.859  21.206  0.00  0.00    -0.480 OA
ATOM     17  H   UNL     1      10.068  -1.535  20.523  0.00  0.00    +0.295 HD
ENDBRANCH  14  16
ENDBRANCH  13  14
BRANCH  13  18
ATOM     18  CB  UNL     1       9.485   0.228  24.168  0.00  0.00    +0.041 C 
BRANCH  18  19
ATOM     19  CG  UNL     1       8.980   1.582  23.670  0.00  0.00    +0.122 C 
BRANCH  19  20
ATOM     20  CD  UNL     1      10.047   2.312  22.879  0.00  0.00    +0.305 C 
ATOM     21  OE2 UNL     1      10.927   2.998  23.368  0.00  0.00    -0.251 OA
BRANCH  20  22
ATOM     22  OE1 UNL     1       9.932   2.109  21.551  0.00  0.00    -0.481 OA
ATOM     23  HE1 UNL     1      10.264   1.244  21.242  0.00  0.00    +0.295 HD
ENDBRANCH  20  22
ENDBRANCH  19  20
ENDBRANCH  18  19
ENDBRANCH  13  18
ENDBRANCH  11  13
ENDBRANCH  10  11
ENDBRANCH   4  10
BRANCH   5  24
ATOM     24  C   UNL     1       6.964  -4.476  24.284  0.00  0.00    +0.209 C 
BRANCH  24  25
ATOM     25  O   UNL     1       6.138  -5.611  24.356  0.00  0.00    -0.282 OA
BRANCH  25  26
ATOM     26  P   UNL     1       5.173  -5.997  23.141  0.00  0.00    +0.473 P 
ATOM     27  O   UNL     1       4.195  -4.983  22.665  0.00  0.00    -0.228 OA
BRANCH  26  28
ATOM     28  O   UNL     1       4.468  -7.292  23.758  0.00  0.00    -0.303 OA
ATOM     29  H   UNL     1       4.962  -7.577  24.558  0.00  0.00    +0.222 HD
ENDBRANCH  26  28
BRANCH  26  30
ATOM     30  O   UNL     1       6.113  -6.677  22.051  0.00  0.00    -0.303 OA
ATOM     31  H   UNL     1       5.685  -6.667  21.178  0.00  0.00    +0.222 HD
ENDBRANCH  26  30
ENDBRANCH  25  26
ENDBRANCH  24  25
ENDBRANCH   5  24
TORSDOF 15
ENDMDL
MODEL 7
REMARK VINA RESULT:      -6.0      2.713      6.308
REMARK  Name = 
REMARK  16 active torsions:
REMARK  status: ('A' for Active; 'I' for Inactive)
REMARK    1  A    between atoms: C_1  and  C_2
REMARK    2  A    between atoms: C_5  and  C_6
REMARK    3  A    between atoms: C_6  and  O_7
REMARK    4  A    between atoms: O_7  and  P_8
REMARK    5  A    between atoms: P_8  and  O_9
REMARK    6  A    between atoms: P_8  and  O_10
REMARK    7  A    between atoms: C_12  and  C_13
REMARK    8  A    between atoms: C_13  and  N_14
REMARK    9  A    between atoms: N_14  and  CA_15
REMARK   10  A    between atoms: CA_15  and  CB_17
REMARK   11  A    between atoms: CA_15  and  C_22
REMARK   12  A    between atoms: CB_17  and  CG_18
REMARK   13  A    between atoms: CG_18  and  CD_19
REMARK   14  A    between atoms: CD_19  and  OE1_20
REMARK   15  A    between atoms: C_22  and  O_23
REMARK   16  A    between atoms: C_25  and  O_26
REMARK                            x       y       z     vdW  Elec       q    Type
REMARK                         _______ _______ _______ _____ _____    ______ ____
ROOT
ATOM      1  C   UNL     1       8.240   2.781  23.236  0.00  0.00    +0.069 C 
ATOM      2  C   UNL     1       8.555   1.329  23.449  0.00  0.00    +0.080 A 
ATOM      3  C   UNL     1       7.712   0.327  22.942  0.00  0.00    +0.142 A 
ATOM      4  C   UNL     1       8.051  -1.034  23.101  0.00  0.00    +0.016 A 
ATOM      5  C   UNL     1       9.265  -1.309  23.782  0.00  0.00    +0.005 A 
ATOM      6  C   UNL     1      10.015  -0.233  24.272  0.00  0.00    +0.117 A 
ATOM      7  N   UNL     1       9.690   1.061  24.126  0.00  0.00    -0.256 NA
ENDROOT
BRANCH   3   8
ATOM      8  O   UNL     1       6.585   0.767  22.299  0.00  0.00    -0.505 OA
ATOM      9  H   UNL     1       6.787   1.265  21.496  0.00  0.00    +0.292 HD
ENDBRANCH   3   8
BRANCH   4  10
ATOM     10  C   ACE A   0       7.229  -2.140  22.458  0.00  0.00    +0.121 C 
BRANCH  10  11
ATOM     11  N   UNL     1       5.825  -2.191  22.925  0.00  0.00    -0.300 NA
ATOM     12  H   UNL     1       5.272  -2.503  22.126  0.00  0.00    +0.123 HD
BRANCH  11  13
ATOM     13  CA  UNL     1       5.672  -3.180  24.034  0.00  0.00    +0.164 C 
BRANCH  13  14
ATOM     14  C   UNL     1       5.464  -2.475  25.386  0.00  0.00    +0.322 C 
ATOM     15  OXT UNL     1       5.703  -2.980  26.474  0.00  0.00    -0.249 OA
BRANCH  14  16
ATOM     16  O   UNL     1       4.914  -1.238  25.259  0.00  0.00    -0.480 OA
ATOM     17  H   UNL     1       4.411  -1.225  24.404  0.00  0.00    +0.295 HD
ENDBRANCH  14  16
ENDBRANCH  13  14
BRANCH  13  18
ATOM     18  CB  UNL     1       4.439  -4.080  23.824  0.00  0.00    +0.041 C 
BRANCH  18  19
ATOM     19  CG  UNL     1       4.755  -5.464  23.258  0.00  0.00    +0.122 C 
BRANCH  19  20
ATOM     20  CD  UNL     1       4.742  -6.520  24.345  0.00  0.00    +0.305 C 
ATOM     21  OE2 UNL     1       5.270  -6.401  25.437  0.00  0.00    -0.251 OA
BRANCH  20  22
ATOM     22  OE1 UNL     1       4.059  -7.625  23.981  0.00  0.00    -0.481 OA
ATOM     23  HE1 UNL     1       3.419  -7.944  24.645  0.00  0.00    +0.295 HD
ENDBRANCH  20  22
ENDBRANCH  19  20
ENDBRANCH  18  19
ENDBRANCH  13  18
ENDBRANCH  11  13
ENDBRANCH  10  11
ENDBRANCH   4  10
BRANCH   5  24
ATOM     24  C   UNL     1       9.811  -2.675  24.087  0.00  0.00    +0.209 C 
BRANCH  24  25
ATOM     25  O   UNL     1       9.144  -3.359  25.118  0.00  0.00    -0.282 OA
BRANCH  25  26
ATOM     26  P   UNL     1       8.903  -4.937  25.026  0.00  0.00    +0.473 P 
ATOM     27  O   UNL     1       8.456  -5.510  23.729  0.00  0.00    -0.228 OA
BRANCH  26  28
ATOM     28  O   UNL     1       7.814  -5.110  26.184  0.00  0.00    -0.303 OA
ATOM     29  H   UNL     1       6.979  -5.449  25.793  0.00  0.00    +0.222 HD
ENDBRANCH  26  28
BRANCH  26  30
ATOM     30  O   UNL     1      10.168  -5.603  25.724  0.00  0.00    -0.303 OA
ATOM     31  H   UNL     1      10.688  -6.110  25.077  0.00  0.00    +0.222 HD
ENDBRANCH  26  30
ENDBRANCH  25  26
ENDBRANCH  24  25
ENDBRANCH   5  24
TORSDOF 15
ENDMDL
MODEL 8
REMARK VINA RESULT:      -5.9      2.635      6.443
REMARK  Name = 
REMARK  16 active torsions:
REMARK  status: ('A' for Active; 'I' for Inactive)
REMARK    1  A    between atoms: C_1  and  C_2
REMARK    2  A    between atoms: C_5  and  C_6
REMARK    3  A    between atoms: C_6  and  O_7
REMARK    4  A    between atoms: O_7  and  P_8
REMARK    5  A    between atoms: P_8  and  O_9
REMARK    6  A    between atoms: P_8  and  O_10
REMARK    7  A    between atoms: C_12  and  C_13
REMARK    8  A    between atoms: C_13  and  N_14
REMARK    9  A    between atoms: N_14  and  CA_15
REMARK   10  A    between atoms: CA_15  and  CB_17
REMARK   11  A    between atoms: CA_15  and  C_22
REMARK   12  A    between atoms: CB_17  and  CG_18
REMARK   13  A    between atoms: CG_18  and  CD_19
REMARK   14  A    between atoms: CD_19  and  OE1_20
REMARK   15  A    between atoms: C_22  and  O_23
REMARK   16  A    between atoms: C_25  and  O_26
REMARK                            x       y       z     vdW  Elec       q    Type
REMARK                         _______ _______ _______ _____ _____    ______ ____
ROOT
ATOM      1  C   UNL     1       8.945   1.929  22.844  0.00  0.00    +0.069 C 
ATOM      2  C   UNL     1       8.650   0.744  23.717  0.00  0.00    +0.080 A 
ATOM      3  C   UNL     1       7.568  -0.106  23.437  0.00  0.00    +0.142 A 
ATOM      4  C   UNL     1       7.337  -1.247  24.234  0.00  0.00    +0.016 A 
ATOM      5  C   UNL     1       8.247  -1.470  25.300  0.00  0.00    +0.005 A 
ATOM      6  C   UNL     1       9.274  -0.542  25.507  0.00  0.00    +0.117 A 
ATOM      7  N   UNL     1       9.490   0.546  24.752  0.00  0.00    -0.256 NA
ENDROOT
BRANCH   3   8
ATOM      8  O   UNL     1       6.796   0.249  22.363  0.00  0.00    -0.505 OA
ATOM      9  H   UNL     1       6.715   1.206  22.265  0.00  0.00    +0.292 HD
ENDBRANCH   3   8
BRANCH   4  10
ATOM     10  C   ACE A   0       6.253  -2.256  23.886  0.00  0.00    +0.121 C 
BRANCH  10  11
ATOM     11  N   UNL     1       6.521  -3.018  22.645  0.00  0.00    -0.300 NA
ATOM     12  H   UNL     1       7.450  -3.427  22.759  0.00  0.00    +0.123 HD
BRANCH  11  13
ATOM     13  CA  UNL     1       5.528  -4.121  22.476  0.00  0.00    +0.164 C 
BRANCH  13  14
ATOM     14  C   UNL     1       6.092  -5.251  21.596  0.00  0.00    +0.322 C 
ATOM     15  OXT UNL     1       5.913  -5.344  20.391  0.00  0.00    -0.249 OA
BRANCH  14  16
ATOM     16  O   UNL     1       6.762  -6.193  22.311  0.00  0.00    -0.480 OA
ATOM     17  H   UNL     1       6.100  -6.872  22.601  0.00  0.00    +0.295 HD
ENDBRANCH  14  16
ENDBRANCH  13  14
BRANCH  13  18
ATOM     18  CB  UNL     1       5.164  -4.767  23.827  0.00  0.00    +0.041 C 
BRANCH  18  19
ATOM     19  CG  UNL     1       3.680  -5.092  23.994  0.00  0.00    +0.122 C 
BRANCH  19  20
ATOM     20  CD  UNL     1       3.389  -6.538  23.645  0.00  0.00    +0.305 C 
ATOM     21  OE2 UNL     1       2.354  -6.937  23.142  0.00  0.00    -0.251 OA
BRANCH  20  22
ATOM     22  OE1 UNL     1       4.421  -7.356  23.938  0.00  0.00    -0.481 OA
ATOM     23  HE1 UNL     1       5.165  -7.313  23.308  0.00  0.00    +0.295 HD
ENDBRANCH  20  22
ENDBRANCH  19  20
ENDBRANCH  18  19
ENDBRANCH  13  18
ENDBRANCH  11  13
ENDBRANCH  10  11
ENDBRANCH   4  10
BRANCH   5  24
ATOM     24  C   UNL     1       8.183  -2.601  26.288  0.00  0.00    +0.209 C 
BRANCH  24  25
ATOM     25  O   UNL     1       9.180  -3.579  26.129  0.00  0.00    -0.282 OA
BRANCH  25  26
ATOM     26  P   UNL     1       8.815  -5.036  25.583  0.00  0.00    +0.473 P 
ATOM     27  O   UNL     1       7.767  -5.815  26.293  0.00  0.00    -0.228 OA
BRANCH  26  28
ATOM     28  O   UNL     1      10.256  -5.723  25.664  0.00  0.00    -0.303 OA
ATOM     29  H   UNL     1      10.162  -6.688  25.508  0.00  0.00    +0.222 HD
ENDBRANCH  26  28
BRANCH  26  30
ATOM     30  O   UNL     1       8.666  -4.874  24.007  0.00  0.00    -0.303 OA
ATOM     31  H   UNL     1       8.035  -5.525  23.655  0.00  0.00    +0.222 HD
ENDBRANCH  26  30
ENDBRANCH  25  26
ENDBRANCH  24  25
ENDBRANCH   5  24
TORSDOF 15
ENDMDL
MODEL 9
REMARK VINA RESULT:      -5.9      2.756      6.381
REMARK  Name = 
REMARK  16 active torsions:
REMARK  status: ('A' for Active; 'I' for Inactive)
REMARK    1  A    between atoms: C_1  and  C_2
REMARK    2  A    between atoms: C_5  and  C_6
REMARK    3  A    between atoms: C_6  and  O_7
REMARK    4  A    between atoms: O_7  and  P_8
REMARK    5  A    between atoms: P_8  and  O_9
REMARK    6  A    between atoms: P_8  and  O_10
REMARK    7  A    between atoms: C_12  and  C_13
REMARK    8  A    between atoms: C_13  and  N_14
REMARK    9  A    between atoms: N_14  and  CA_15
REMARK   10  A    between atoms: CA_15  and  CB_17
REMARK   11  A    between atoms: CA_15  and  C_22
REMARK   12  A    between atoms: CB_17  and  CG_18
REMARK   13  A    between atoms: CG_18  and  CD_19
REMARK   14  A    between atoms: CD_19  and  OE1_20
REMARK   15  A    between atoms: C_22  and  O_23
REMARK   16  A    between atoms: C_25  and  O_26
REMARK                            x       y       z     vdW  Elec       q    Type
REMARK                         _______ _______ _______ _____ _____    ______ ____
ROOT
ATOM      1  C   UNL     1      10.528   1.722  23.040  0.00  0.00    +0.069 C 
ATOM      2  C   UNL     1       9.936   0.348  23.162  0.00  0.00    +0.080 A 
ATOM      3  C   UNL     1       9.640  -0.200  24.421  0.00  0.00    +0.142 A 
ATOM      4  C   UNL     1       9.032  -1.470  24.516  0.00  0.00    +0.016 A 
ATOM      5  C   UNL     1       8.747  -2.130  23.293  0.00  0.00    +0.005 A 
ATOM      6  C   UNL     1       9.112  -1.505  22.095  0.00  0.00    +0.117 A 
ATOM      7  N   UNL     1       9.695  -0.299  22.004  0.00  0.00    -0.256 NA
ENDROOT
BRANCH   3   8
ATOM      8  O   UNL     1       9.970   0.576  25.500  0.00  0.00    -0.505 OA
ATOM      9  H   UNL     1       9.450   1.389  25.544  0.00  0.00    +0.292 HD
ENDBRANCH   3   8
BRANCH   4  10
ATOM     10  C   ACE A   0       8.583  -2.039  25.854  0.00  0.00    +0.121 C 
BRANCH  10  11
ATOM     11  N   UNL     1       7.655  -1.159  26.598  0.00  0.00    -0.300 NA
ATOM     12  H   UNL     1       7.638  -0.272  26.092  0.00  0.00    +0.123 HD
BRANCH  11  13
ATOM     13  CA  UNL     1       6.276  -1.733  26.609  0.00  0.00    +0.164 C 
BRANCH  13  14
ATOM     14  C   UNL     1       5.374  -1.039  25.573  0.00  0.00    +0.322 C 
ATOM     15  OXT UNL     1       4.744  -0.013  25.781  0.00  0.00    -0.249 OA
BRANCH  14  16
ATOM     16  O   UNL     1       5.287  -1.727  24.403  0.00  0.00    -0.480 OA
ATOM     17  H   UNL     1       6.157  -1.629  23.937  0.00  0.00    +0.295 HD
ENDBRANCH  14  16
ENDBRANCH  13  14
BRANCH  13  18
ATOM     18  CB  UNL     1       6.282  -3.229  26.241  0.00  0.00    +0.041 C 
BRANCH  18  19
ATOM     19  CG  UNL     1       6.112  -4.174  27.430  0.00  0.00    +0.122 C 
BRANCH  19  20
ATOM     20  CD  UNL     1       6.560  -5.581  27.086  0.00  0.00    +0.305 C 
ATOM     21  OE2 UNL     1       6.017  -6.303  26.269  0.00  0.00    -0.251 OA
BRANCH  20  22
ATOM     22  OE1 UNL     1       7.656  -5.955  27.778  0.00  0.00    -0.481 OA
ATOM     23  HE1 UNL     1       8.335  -6.412  27.247  0.00  0.00    +0.295 HD
ENDBRANCH  20  22
ENDBRANCH  19  20
ENDBRANCH  18  19
ENDBRANCH  13  18
ENDBRANCH  11  13
ENDBRANCH  10  11
ENDBRANCH   4  10
BRANCH   5  24
ATOM     24  C   UNL     1       8.128  -3.492  23.153  0.00  0.00    +0.209 C 
BRANCH  24  25
ATOM     25  O   UNL     1       7.265  -3.637  22.054  0.00  0.00    -0.282 OA
BRANCH  25  26
ATOM     26  P   UNL     1       6.103  -4.735  22.068  0.00  0.00    +0.473 P 
ATOM     27  O   UNL     1       5.891  -5.557  20.847  0.00  0.00    -0.228 OA
BRANCH  26  28
ATOM     28  O   UNL     1       4.852  -3.798  22.406  0.00  0.00    -0.303 OA
ATOM     29  H   UNL     1       5.154  -2.864  22.457  0.00  0.00    +0.222 HD
ENDBRANCH  26  28
BRANCH  26  30
ATOM     30  O   UNL     1       6.263  -5.505  23.451  0.00  0.00    -0.303 OA
ATOM     31  H   UNL     1       7.171  -5.838  23.554  0.00  0.00    +0.222 HD
ENDBRANCH  26  30
ENDBRANCH  25  26
ENDBRANCH  24  25
ENDBRANCH   5  24
TORSDOF 15
ENDMDL
