MODEL 1
REMARK VINA RESULT:      -6.9      0.000      0.000
REMARK  Name = 
REMARK  4 active torsions:
REMARK  status: ('A' for Active; 'I' for Inactive)
REMARK    1  A    between atoms: O_1  and  C_2
REMARK    2  A    between atoms: C_9  and  C_10
REMARK    3  A    between atoms: C_13  and  O_14
REMARK    4  A    between atoms: C_16  and  O_17
REMARK                            x       y       z     vdW  Elec       q    Type
REMARK                         _______ _______ _______ _____ _____    ______ ____
ROOT
ATOM      1  C   UNL     1       7.979  -5.019  26.487  0.00  0.00    +0.119 A 
ATOM      2  C   UNL     1       7.636  -5.434  25.200  0.00  0.00    +0.073 A 
ATOM      3  C   UNL     1       7.669  -4.463  24.191  0.00  0.00    +0.070 A 
ATOM      4  N   UNL     1       7.399  -4.545  22.856  0.00  0.00    -0.276 N 
ATOM      5  H   UNL     1       7.117  -5.366  22.336  0.00  0.00    +0.189 HD
ATOM      6  N   UNL     1       7.550  -3.395  22.187  0.00  0.00    -0.173 NA
ATOM      7  C   UNL     1       7.918  -2.497  23.125  0.00  0.00    +0.104 A 
ATOM      8  C   UNL     1       8.028  -3.137  24.409  0.00  0.00    +0.028 A 
ATOM      9  C   UNL     1       8.403  -2.766  25.719  0.00  0.00    +0.016 A 
ATOM     10  C   UNL     1       8.357  -3.712  26.755  0.00  0.00    +0.046 A 
ENDROOT
BRANCH   7  11
ATOM     11  C   UNL     1       8.200  -1.104  22.735  0.00  0.00    +0.044 A 
ATOM     12  C   UNL     1       9.285  -0.719  21.932  0.00  0.00    +0.130 A 
ATOM     13  C   UNL     1       9.457   0.617  21.542  0.00  0.00    +0.091 A 
ATOM     14  C   UNL     1       8.561   1.583  21.979  0.00  0.00    +0.120 A 
ATOM     15  C   UNL     1       7.510   1.249  22.820  0.00  0.00    +0.046 A 
ATOM     16  C   UNL     1       7.334  -0.090  23.193  0.00  0.00    +0.017 A 
BRANCH  12  17
ATOM     17  O   UNL     1      10.227  -1.628  21.534  0.00  0.00    -0.506 OA
ATOM     18  H   UNL     1      10.954  -1.637  22.177  0.00  0.00    +0.292 HD
ENDBRANCH  12  17
BRANCH  14  19
ATOM     19  O   UNL     1       8.758   2.864  21.558  0.00  0.00    -0.507 OA
ATOM     20  H   UNL     1       8.238   3.008  20.750  0.00  0.00    +0.292 HD
ENDBRANCH  14  19
ENDBRANCH   7  11
BRANCH   1  21
ATOM     21  O   UNL     1       7.934  -5.957  27.479  0.00  0.00    -0.507 OA
ATOM     22  H   UNL     1       8.452  -6.729  27.199  0.00  0.00    +0.292 HD
ENDBRANCH   1  21
TORSDOF 4
ENDMDL
MODEL 2
REMARK VINA RESULT:      -6.8      1.888      6.090
REMARK  Name = 
REMARK  4 active torsions:
REMARK  status: ('A' for Active; 'I' for Inactive)
REMARK    1  A    between atoms: O_1  and  C_2
REMARK    2  A    between atoms: C_9  and  C_10
REMARK    3  A    between atoms: C_13  and  O_14
REMARK    4  A    between atoms: C_16  and  O_17
REMARK                            x       y       z     vdW  Elec       q    Type
REMARK                         _______ _______ _______ _____ _____    ______ ____
ROOT
ATOM      1  C   UNL     1       9.953   2.376  23.220  0.00  0.00    +0.119 A 
ATOM      2  C   UNL     1      10.046   1.570  22.085  0.00  0.00    +0.073 A 
ATOM      3  C   UNL     1       9.756   0.209  22.249  0.00  0.00    +0.070 A 
ATOM      4  N   UNL     1       9.751  -0.822  21.356  0.00  0.00    -0.276 N 
ATOM      5  H   UNL     1       9.962  -0.779  20.367  0.00  0.00    +0.189 HD
ATOM      6  N   UNL     1       9.406  -2.007  21.876  0.00  0.00    -0.173 NA
ATOM      7  C   UNL     1       9.193  -1.758  23.186  0.00  0.00    +0.104 A 
ATOM      8  C   UNL     1       9.382  -0.359  23.462  0.00  0.00    +0.028 A 
ATOM      9  C   UNL     1       9.264   0.498  24.579  0.00  0.00    +0.016 A 
ATOM     10  C   UNL     1       9.571   1.862  24.450  0.00  0.00    +0.046 A 
ENDROOT
BRANCH   7  11
ATOM     11  C   UNL     1       8.764  -2.849  24.079  0.00  0.00    +0.044 A 
ATOM     12  C   UNL     1       8.011  -3.957  23.659  0.00  0.00    +0.130 A 
ATOM     13  C   UNL     1       7.695  -4.995  24.547  0.00  0.00    +0.091 A 
ATOM     14  C   UNL     1       8.104  -4.916  25.871  0.00  0.00    +0.120 A 
ATOM     15  C   UNL     1       8.800  -3.810  26.335  0.00  0.00    +0.046 A 
ATOM     16  C   UNL     1       9.128  -2.785  25.440  0.00  0.00    +0.017 A 
BRANCH  12  17
ATOM     17  O   UNL     1       7.533  -4.041  22.379  0.00  0.00    -0.506 OA
ATOM     18  H   UNL     1       6.571  -4.161  22.405  0.00  0.00    +0.292 HD
ENDBRANCH  12  17
BRANCH  14  19
ATOM     19  O   UNL     1       7.790  -5.959  26.692  0.00  0.00    -0.507 OA
ATOM     20  H   UNL     1       6.828  -5.969  26.826  0.00  0.00    +0.292 HD
ENDBRANCH  14  19
ENDBRANCH   7  11
BRANCH   1  21
ATOM     21  O   UNL     1      10.249   3.701  23.071  0.00  0.00    -0.507 OA
ATOM     22  H   UNL     1       9.573   4.223  23.531  0.00  0.00    +0.292 HD
ENDBRANCH   1  21
TORSDOF 4
ENDMDL
MODEL 3
REMARK VINA RESULT:      -6.7      2.506      3.020
REMARK  Name = 
REMARK  4 active torsions:
REMARK  status: ('A' for Active; 'I' for Inactive)
REMARK    1  A    between atoms: O_1  and  C_2
REMARK    2  A    between atoms: C_9  and  C_10
REMARK    3  A    between atoms: C_13  and  O_14
REMARK    4  A    between atoms: C_16  and  O_17
REMARK                            x       y       z     vdW  Elec       q    Type
REMARK                         _______ _______ _______ _____ _____    ______ ____
ROOT
ATOM      1  C   UNL     1       5.556  -5.129  22.558  0.00  0.00    +0.119 A 
ATOM      2  C   UNL     1       6.614  -5.636  23.313  0.00  0.00    +0.073 A 
ATOM      3  C   UNL     1       7.648  -4.746  23.632  0.00  0.00    +0.070 A 
ATOM      4  N   UNL     1       8.797  -4.924  24.344  0.00  0.00    -0.276 N 
ATOM      5  H   UNL     1       9.116  -5.773  24.793  0.00  0.00    +0.189 HD
ATOM      6  N   UNL     1       9.557  -3.827  24.457  0.00  0.00    -0.173 NA
ATOM      7  C   UNL     1       8.892  -2.876  23.767  0.00  0.00    +0.104 A 
ATOM      8  C   UNL     1       7.663  -3.411  23.245  0.00  0.00    +0.028 A 
ATOM      9  C   UNL     1       6.556  -2.928  22.512  0.00  0.00    +0.016 A 
ATOM     10  C   UNL     1       5.516  -3.801  22.158  0.00  0.00    +0.046 A 
ENDROOT
BRANCH   7  11
ATOM     11  C   UNL     1       9.434  -1.507  23.697  0.00  0.00    +0.044 A 
ATOM     12  C   UNL     1       9.856  -0.890  22.509  0.00  0.00    +0.130 A 
ATOM     13  C   UNL     1      10.297   0.441  22.504  0.00  0.00    +0.091 A 
ATOM     14  C   UNL     1      10.350   1.154  23.694  0.00  0.00    +0.120 A 
ATOM     15  C   UNL     1       9.995   0.558  24.895  0.00  0.00    +0.046 A 
ATOM     16  C   UNL     1       9.539  -0.765  24.892  0.00  0.00    +0.017 A 
BRANCH  12  17
ATOM     17  O   UNL     1       9.881  -1.577  21.327  0.00  0.00    -0.506 OA
ATOM     18  H   UNL     1       9.180  -1.240  20.747  0.00  0.00    +0.292 HD
ENDBRANCH  12  17
BRANCH  14  19
ATOM     19  O   UNL     1      10.768   2.450  23.636  0.00  0.00    -0.507 OA
ATOM     20  H   UNL     1      10.129   3.003  24.117  0.00  0.00    +0.292 HD
ENDBRANCH  14  19
ENDBRANCH   7  11
BRANCH   1  21
ATOM     21  O   UNL     1       4.551  -5.994  22.230  0.00  0.00    -0.507 OA
ATOM     22  H   UNL     1       4.647  -6.797  22.765  0.00  0.00    +0.292 HD
ENDBRANCH   1  21
TORSDOF 4
ENDMDL
MODEL 4
REMARK VINA RESULT:      -6.6      2.057      2.322
REMARK  Name = 
REMARK  4 active torsions:
REMARK  status: ('A' for Active; 'I' for Inactive)
REMARK    1  A    between atoms: O_1  and  C_2
REMARK    2  A    between atoms: C_9  and  C_10
REMARK    3  A    between atoms: C_13  and  O_14
REMARK    4  A    between atoms: C_16  and  O_17
REMARK                            x       y       z     vdW  Elec       q    Type
REMARK                         _______ _______ _______ _____ _____    ______ ____
ROOT
ATOM      1  C   UNL     1       6.715  -4.297  27.239  0.00  0.00    +0.119 A 
ATOM      2  C   UNL     1       7.810  -4.935  26.653  0.00  0.00    +0.073 A 
ATOM      3  C   UNL     1       8.556  -4.192  25.729  0.00  0.00    +0.070 A 
ATOM      4  N   UNL     1       9.662  -4.516  25.000  0.00  0.00    -0.276 N 
ATOM      5  H   UNL     1      10.164  -5.394  25.005  0.00  0.00    +0.189 HD
ATOM      6  N   UNL     1      10.118  -3.533  24.214  0.00  0.00    -0.173 NA
ATOM      7  C   UNL     1       9.260  -2.510  24.411  0.00  0.00    +0.104 A 
ATOM      8  C   UNL     1       8.265  -2.877  25.383  0.00  0.00    +0.028 A 
ATOM      9  C   UNL     1       7.170  -2.256  26.025  0.00  0.00    +0.016 A 
ATOM     10  C   UNL     1       6.390  -2.983  26.939  0.00  0.00    +0.046 A 
ENDROOT
BRANCH   7  11
ATOM     11  C   UNL     1       9.473  -1.230  23.712  0.00  0.00    +0.044 A 
ATOM     12  C   UNL     1       9.847  -0.038  24.354  0.00  0.00    +0.130 A 
ATOM     13  C   UNL     1      10.100   1.129  23.619  0.00  0.00    +0.091 A 
ATOM     14  C   UNL     1       9.949   1.121  22.240  0.00  0.00    +0.120 A 
ATOM     15  C   UNL     1       9.526  -0.022  21.578  0.00  0.00    +0.046 A 
ATOM     16  C   UNL     1       9.291  -1.189  22.314  0.00  0.00    +0.017 A 
BRANCH  12  17
ATOM     17  O   UNL     1       9.943   0.029  25.717  0.00  0.00    -0.506 OA
ATOM     18  H   UNL     1       9.145   0.450  26.073  0.00  0.00    +0.292 HD
ENDBRANCH  12  17
BRANCH  14  19
ATOM     19  O   UNL     1      10.226   2.274  21.567  0.00  0.00    -0.507 OA
ATOM     20  H   UNL     1       9.577   2.379  20.852  0.00  0.00    +0.292 HD
ENDBRANCH  14  19
ENDBRANCH   7  11
BRANCH   1  21
ATOM     21  O   UNL     1       5.974  -5.021  28.130  0.00  0.00    -0.507 OA
ATOM     22  H   UNL     1       5.371  -5.598  27.635  0.00  0.00    +0.292 HD
ENDBRANCH   1  21
TORSDOF 4
ENDMDL
MODEL 5
REMARK VINA RESULT:      -6.6      2.729      5.941
REMARK  Name = 
REMARK  4 active torsions:
REMARK  status: ('A' for Active; 'I' for Inactive)
REMARK    1  A    between atoms: O_1  and  C_2
REMARK    2  A    between atoms: C_9  and  C_10
REMARK    3  A    between atoms: C_13  and  O_14
REMARK    4  A    between atoms: C_16  and  O_17
REMARK                            x       y       z     vdW  Elec       q    Type
REMARK                         _______ _______ _______ _____ _____    ______ ____
ROOT
ATOM      1  C   UNL     1      10.249   1.972  22.921  0.00  0.00    +0.119 A 
ATOM      2  C   UNL     1      10.154   1.492  24.227  0.00  0.00    +0.073 A 
ATOM      3  C   UNL     1       9.520   0.254  24.402  0.00  0.00    +0.070 A 
ATOM      4  N   UNL     1       9.274  -0.477  25.527  0.00  0.00    -0.276 N 
ATOM      5  H   UNL     1       9.524  -0.243  26.479  0.00  0.00    +0.189 HD
ATOM      6  N   UNL     1       8.645  -1.639  25.308  0.00  0.00    -0.173 NA
ATOM      7  C   UNL     1       8.442  -1.673  23.974  0.00  0.00    +0.104 A 
ATOM      8  C   UNL     1       9.002  -0.501  23.356  0.00  0.00    +0.028 A 
ATOM      9  C   UNL     1       9.151   0.004  22.046  0.00  0.00    +0.016 A 
ATOM     10  C   UNL     1       9.761   1.252  21.841  0.00  0.00    +0.046 A 
ENDROOT
BRANCH   7  11
ATOM     11  C   UNL     1       7.784  -2.842  23.362  0.00  0.00    +0.044 A 
ATOM     12  C   UNL     1       8.171  -4.171  23.596  0.00  0.00    +0.130 A 
ATOM     13  C   UNL     1       7.458  -5.240  23.035  0.00  0.00    +0.091 A 
ATOM     14  C   UNL     1       6.371  -4.986  22.211  0.00  0.00    +0.120 A 
ATOM     15  C   UNL     1       5.995  -3.685  21.912  0.00  0.00    +0.046 A 
ATOM     16  C   UNL     1       6.700  -2.622  22.488  0.00  0.00    +0.017 A 
BRANCH  12  17
ATOM     17  O   UNL     1       9.276  -4.463  24.349  0.00  0.00    -0.506 OA
ATOM     18  H   UNL     1       9.234  -5.390  24.631  0.00  0.00    +0.292 HD
ENDBRANCH  12  17
BRANCH  14  19
ATOM     19  O   UNL     1       5.697  -6.058  21.705  0.00  0.00    -0.507 OA
ATOM     20  H   UNL     1       6.345  -6.719  21.408  0.00  0.00    +0.292 HD
ENDBRANCH  14  19
ENDBRANCH   7  11
BRANCH   1  21
ATOM     21  O   UNL     1      10.852   3.185  22.744  0.00  0.00    -0.507 OA
ATOM     22  H   UNL     1      10.564   3.554  21.894  0.00  0.00    +0.292 HD
ENDBRANCH   1  21
TORSDOF 4
ENDMDL
MODEL 6
REMARK VINA RESULT:      -6.4      2.114      6.100
REMARK  Name = 
REMARK  4 active torsions:
REMARK  status: ('A' for Active; 'I' for Inactive)
REMARK    1  A    between atoms: O_1  and  C_2
REMARK    2  A    between atoms: C_9  and  C_10
REMARK    3  A    between atoms: C_13  and  O_14
REMARK    4  A    between atoms: C_16  and  O_17
REMARK                            x       y       z     vdW  Elec       q    Type
REMARK                         _______ _______ _______ _____ _____    ______ ____
ROOT
ATOM      1  C   UNL     1       8.334   2.438  22.332  0.00  0.00    +0.119 A 
ATOM      2  C   UNL     1       9.402   1.669  21.871  0.00  0.00    +0.073 A 
ATOM      3  C   UNL     1       9.272   0.278  21.974  0.00  0.00    +0.070 A 
ATOM      4  N   UNL     1      10.117  -0.732  21.617  0.00  0.00    -0.276 N 
ATOM      5  H   UNL     1      11.030  -0.646  21.190  0.00  0.00    +0.189 HD
ATOM      6  N   UNL     1       9.647  -1.962  21.858  0.00  0.00    -0.173 NA
ATOM      7  C   UNL     1       8.437  -1.762  22.424  0.00  0.00    +0.104 A 
ATOM      8  C   UNL     1       8.149  -0.355  22.496  0.00  0.00    +0.028 A 
ATOM      9  C   UNL     1       7.075   0.459  22.919  0.00  0.00    +0.016 A 
ATOM     10  C   UNL     1       7.186   1.856  22.849  0.00  0.00    +0.046 A 
ENDROOT
BRANCH   7  11
ATOM     11  C   UNL     1       7.606  -2.919  22.804  0.00  0.00    +0.044 A 
ATOM     12  C   UNL     1       8.034  -3.944  23.662  0.00  0.00    +0.130 A 
ATOM     13  C   UNL     1       7.167  -4.981  24.037  0.00  0.00    +0.091 A 
ATOM     14  C   UNL     1       5.876  -5.016  23.530  0.00  0.00    +0.120 A 
ATOM     15  C   UNL     1       5.437  -4.052  22.635  0.00  0.00    +0.046 A 
ATOM     16  C   UNL     1       6.301  -3.009  22.278  0.00  0.00    +0.017 A 
BRANCH  12  17
ATOM     17  O   UNL     1       9.319  -3.982  24.131  0.00  0.00    -0.506 OA
ATOM     18  H   UNL     1       9.838  -4.599  23.590  0.00  0.00    +0.292 HD
ENDBRANCH  12  17
BRANCH  14  19
ATOM     19  O   UNL     1       5.064  -6.033  23.938  0.00  0.00    -0.507 OA
ATOM     20  H   UNL     1       5.061  -6.721  23.253  0.00  0.00    +0.292 HD
ENDBRANCH  14  19
ENDBRANCH   7  11
BRANCH   1  21
ATOM     21  O   UNL     1       8.460   3.796  22.249  0.00  0.00    -0.507 OA
ATOM     22  H   UNL     1       9.252   4.002  21.729  0.00  0.00    +0.292 HD
ENDBRANCH   1  21
TORSDOF 4
ENDMDL
MODEL 7
REMARK VINA RESULT:      -6.3      2.493      6.310
REMARK  Name = 
REMARK  4 active torsions:
REMARK  status: ('A' for Active; 'I' for Inactive)
REMARK    1  A    between atoms: O_1  and  C_2
REMARK    2  A    between atoms: C_9  and  C_10
REMARK    3  A    between atoms: C_13  and  O_14
REMARK    4  A    between atoms: C_16  and  O_17
REMARK                            x       y       z     vdW  Elec       q    Type
REMARK                         _______ _______ _______ _____ _____    ______ ____
ROOT
ATOM      1  C   UNL     1       9.850   1.252  22.257  0.00  0.00    +0.119 A 
ATOM      2  C   UNL     1      10.112   1.438  23.614  0.00  0.00    +0.073 A 
ATOM      3  C   UNL     1       9.659   0.442  24.489  0.00  0.00    +0.070 A 
ATOM      4  N   UNL     1       9.758   0.325  25.844  0.00  0.00    -0.276 N 
ATOM      5  H   UNL     1      10.203   0.969  26.485  0.00  0.00    +0.189 HD
ATOM      6  N   UNL     1       9.208  -0.788  26.348  0.00  0.00    -0.173 NA
ATOM      7  C   UNL     1       8.698  -1.433  25.278  0.00  0.00    +0.104 A 
ATOM      8  C   UNL     1       8.982  -0.699  24.073  0.00  0.00    +0.028 A 
ATOM      9  C   UNL     1       8.767  -0.866  22.687  0.00  0.00    +0.016 A 
ATOM     10  C   UNL     1       9.190   0.125  21.789  0.00  0.00    +0.046 A 
ENDROOT
BRANCH   7  11
ATOM     11  C   UNL     1       8.028  -2.734  25.457  0.00  0.00    +0.044 A 
ATOM     12  C   UNL     1       8.608  -3.968  25.123  0.00  0.00    +0.130 A 
ATOM     13  C   UNL     1       7.942  -5.174  25.384  0.00  0.00    +0.091 A 
ATOM     14  C   UNL     1       6.675  -5.152  25.952  0.00  0.00    +0.120 A 
ATOM     15  C   UNL     1       6.048  -3.950  26.243  0.00  0.00    +0.046 A 
ATOM     16  C   UNL     1       6.725  -2.749  25.996  0.00  0.00    +0.017 A 
BRANCH  12  17
ATOM     17  O   UNL     1       9.826  -4.030  24.502  0.00  0.00    -0.506 OA
ATOM     18  H   UNL     1       9.739  -4.537  23.680  0.00  0.00    +0.292 HD
ENDBRANCH  12  17
BRANCH  14  19
ATOM     19  O   UNL     1       6.076  -6.349  26.205  0.00  0.00    -0.507 OA
ATOM     20  H   UNL     1       6.085  -6.504  27.165  0.00  0.00    +0.292 HD
ENDBRANCH  14  19
ENDBRANCH   7  11
BRANCH   1  21
ATOM     21  O   UNL     1      10.275   2.226  21.399  0.00  0.00    -0.507 OA
ATOM     22  H   UNL     1      10.498   3.018  21.914  0.00  0.00    +0.292 HD
ENDBRANCH   1  21
TORSDOF 4
ENDMDL
MODEL 8
REMARK VINA RESULT:      -6.1      2.035      2.506
REMARK  Name = 
REMARK  4 active torsions:
REMARK  status: ('A' for Active; 'I' for Inactive)
REMARK    1  A    between atoms: O_1  and  C_2
REMARK    2  A    between atoms: C_9  and  C_10
REMARK    3  A    between atoms: C_13  and  O_14
REMARK    4  A    between atoms: C_16  and  O_17
REMARK                            x       y       z     vdW  Elec       q    Type
REMARK                         _______ _______ _______ _____ _____    ______ ____
ROOT
ATOM      1  C   UNL     1       5.846  -5.360  23.076  0.00  0.00    +0.119 A 
ATOM      2  C   UNL     1       7.124  -5.294  23.632  0.00  0.00    +0.073 A 
ATOM      3  C   UNL     1       7.765  -4.049  23.599  0.00  0.00    +0.070 A 
ATOM      4  N   UNL     1       8.990  -3.658  24.053  0.00  0.00    -0.276 N 
ATOM      5  H   UNL     1       9.682  -4.228  24.522  0.00  0.00    +0.189 HD
ATOM      6  N   UNL     1       9.269  -2.362  23.856  0.00  0.00    -0.173 NA
ATOM      7  C   UNL     1       8.185  -1.871  23.218  0.00  0.00    +0.104 A 
ATOM      8  C   UNL     1       7.196  -2.903  23.055  0.00  0.00    +0.028 A 
ATOM      9  C   UNL     1       5.887  -3.004  22.534  0.00  0.00    +0.016 A 
ATOM     10  C   UNL     1       5.228  -4.243  22.533  0.00  0.00    +0.046 A 
ENDROOT
BRANCH   7  11
ATOM     11  C   UNL     1       8.131  -0.443  22.860  0.00  0.00    +0.044 A 
ATOM     12  C   UNL     1       8.984   0.164  21.924  0.00  0.00    +0.130 A 
ATOM     13  C   UNL     1       8.833   1.515  21.579  0.00  0.00    +0.091 A 
ATOM     14  C   UNL     1       7.848   2.277  22.192  0.00  0.00    +0.120 A 
ATOM     15  C   UNL     1       7.025   1.726  23.163  0.00  0.00    +0.046 A 
ATOM     16  C   UNL     1       7.168   0.372  23.491  0.00  0.00    +0.017 A 
BRANCH  12  17
ATOM     17  O   UNL     1      10.008  -0.534  21.346  0.00  0.00    -0.506 OA
ATOM     18  H   UNL     1       9.757  -0.779  20.441  0.00  0.00    +0.292 HD
ENDBRANCH  12  17
BRANCH  14  19
ATOM     19  O   UNL     1       7.727   3.579  21.809  0.00  0.00    -0.507 OA
ATOM     20  H   UNL     1       7.050   4.003  22.363  0.00  0.00    +0.292 HD
ENDBRANCH  14  19
ENDBRANCH   7  11
BRANCH   1  21
ATOM     21  O   UNL     1       5.220  -6.574  23.091  0.00  0.00    -0.507 OA
ATOM     22  H   UNL     1       4.678  -6.633  23.893  0.00  0.00    +0.292 HD
ENDBRANCH   1  21
TORSDOF 4
ENDMDL
MODEL 9
REMARK VINA RESULT:      -6.0      3.701      5.011
REMARK  Name = 
REMARK  4 active torsions:
REMARK  status: ('A' for Active; 'I' for Inactive)
REMARK    1  A    between atoms: O_1  and  C_2
REMARK    2  A    between atoms: C_9  and  C_10
REMARK    3  A    between atoms: C_13  and  O_14
REMARK    4  A    between atoms: C_16  and  O_17
REMARK                            x       y       z     vdW  Elec       q    Type
REMARK                         _______ _______ _______ _____ _____    ______ ____
ROOT
ATOM      1  C   UNL     1       9.794  -2.060  23.975  0.00  0.00    +0.119 A 
ATOM      2  C   UNL     1       9.844  -1.504  22.696  0.00  0.00    +0.073 A 
ATOM      3  C   UNL     1       9.773  -0.108  22.609  0.00  0.00    +0.070 A 
ATOM      4  N   UNL     1       9.800   0.727  21.531  0.00  0.00    -0.276 N 
ATOM      5  H   UNL     1       9.885   0.468  20.556  0.00  0.00    +0.189 HD
ATOM      6  N   UNL     1       9.720   2.029  21.833  0.00  0.00    -0.173 NA
ATOM      7  C   UNL     1       9.612   2.063  23.178  0.00  0.00    +0.104 A 
ATOM      8  C   UNL     1       9.664   0.729  23.714  0.00  0.00    +0.028 A 
ATOM      9  C   UNL     1       9.652   0.129  24.993  0.00  0.00    +0.016 A 
ATOM     10  C   UNL     1       9.699  -1.269  25.111  0.00  0.00    +0.046 A 
ENDROOT
BRANCH   7  11
ATOM     11  C   UNL     1       9.527   3.360  23.874  0.00  0.00    +0.044 A 
ATOM     12  C   UNL     1      10.415   4.425  23.658  0.00  0.00    +0.130 A 
ATOM     13  C   UNL     1      10.236   5.657  24.304  0.00  0.00    +0.091 A 
ATOM     14  C   UNL     1       9.185   5.821  25.196  0.00  0.00    +0.120 A 
ATOM     15  C   UNL     1       8.322   4.772  25.477  0.00  0.00    +0.046 A 
ATOM     16  C   UNL     1       8.495   3.550  24.816  0.00  0.00    +0.017 A 
BRANCH  12  17
ATOM     17  O   UNL     1      11.500   4.285  22.837  0.00  0.00    -0.506 OA
ATOM     18  H   UNL     1      12.300   4.553  23.317  0.00  0.00    +0.292 HD
ENDBRANCH  12  17
BRANCH  14  19
ATOM     19  O   UNL     1       9.040   7.042  25.784  0.00  0.00    -0.507 OA
ATOM     20  H   UNL     1       8.190   7.061  26.253  0.00  0.00    +0.292 HD
ENDBRANCH  14  19
ENDBRANCH   7  11
BRANCH   1  21
ATOM     21  O   UNL     1       9.848  -3.422  24.067  0.00  0.00    -0.507 OA
ATOM     22  H   UNL     1      10.692  -3.724  23.697  0.00  0.00    +0.292 HD
ENDBRANCH   1  21
TORSDOF 4
ENDMDL
