MODEL 1
REMARK VINA RESULT:      -6.0      0.000      0.000
REMARK  Name = 
REMARK  4 active torsions:
REMARK  status: ('A' for Active; 'I' for Inactive)
REMARK    1  A    between atoms: O_1  and  C_2
REMARK    2  A    between atoms: C_3  and  C_4
REMARK    3  A    between atoms: C_4  and  C_5
REMARK    4  A    between atoms: C_6  and  O_7
REMARK                            x       y       z     vdW  Elec       q    Type
REMARK                         _______ _______ _______ _____ _____    ______ ____
ROOT
ATOM      1  C   UNL     1       9.225  -2.796  24.597  0.00  0.00    +0.080 C 
ENDROOT
BRANCH   1  10
ATOM      2  C   UNL     1       7.620  -4.247  25.931  0.00  0.00    +0.140 A 
ATOM      3  C   UNL     1       6.627  -5.238  25.991  0.00  0.00    +0.084 A 
ATOM      4 CL   UNL     1       6.225  -6.017  27.478  0.00  0.00    -0.080 Cl
ATOM      5  C   UNL     1       5.948  -5.626  24.840  0.00  0.00    +0.045 A 
ATOM      6  C   UNL     1       6.235  -4.999  23.626  0.00  0.00    +0.061 A 
ATOM      7 CL   UNL     1       5.318  -5.509  22.247  0.00  0.00    -0.082 Cl
ATOM      8  C   UNL     1       7.247  -4.028  23.549  0.00  0.00    +0.066 A 
ATOM      9 CL   UNL     1       7.590  -3.261  22.024  0.00  0.00    -0.082 Cl
ATOM     10  C   UNL     1       7.990  -3.673  24.699  0.00  0.00    +0.020 A 
BRANCH   2  11
ATOM     11  O   UNL     1       8.205  -3.864  27.110  0.00  0.00    -0.505 OA
ATOM     12  H   UNL     1       9.077  -3.462  26.981  0.00  0.00    +0.292 HD
ENDBRANCH   2  11
ENDBRANCH   1  10
BRANCH   1  13
ATOM     13  C   UNL     1       9.124  -1.279  24.560  0.00  0.00    +0.020 A 
ATOM     14  C   UNL     1       9.664  -0.612  23.422  0.00  0.00    +0.066 A 
ATOM     15 CL   UNL     1      10.568  -1.517  22.235  0.00  0.00    -0.082 Cl
ATOM     16  C   UNL     1       9.495   0.772  23.238  0.00  0.00    +0.061 A 
ATOM     17 CL   UNL     1      10.115   1.615  21.860  0.00  0.00    -0.082 Cl
ATOM     18  C   UNL     1       8.798   1.522  24.181  0.00  0.00    +0.045 A 
ATOM     19  C   UNL     1       8.308   0.899  25.325  0.00  0.00    +0.084 A 
ATOM     20 CL   UNL     1       7.487   1.881  26.486  0.00  0.00    -0.080 Cl
ATOM     21  C   UNL     1       8.487  -0.481  25.526  0.00  0.00    +0.140 A 
BRANCH  21  22
ATOM     22  O   UNL     1       8.001  -1.011  26.690  0.00  0.00    -0.505 OA
ATOM     23  H   UNL     1       8.732  -1.389  27.205  0.00  0.00    +0.292 HD
ENDBRANCH  21  22
ENDBRANCH   1  13
TORSDOF 4
ENDMDL
MODEL 2
REMARK VINA RESULT:      -5.9      2.330      3.041
REMARK  Name = 
REMARK  4 active torsions:
REMARK  status: ('A' for Active; 'I' for Inactive)
REMARK    1  A    between atoms: O_1  and  C_2
REMARK    2  A    between atoms: C_3  and  C_4
REMARK    3  A    between atoms: C_4  and  C_5
REMARK    4  A    between atoms: C_6  and  O_7
REMARK                            x       y       z     vdW  Elec       q    Type
REMARK                         _______ _______ _______ _____ _____    ______ ____
ROOT
ATOM      1  C   UNL     1       7.673  -1.423  22.272  0.00  0.00    +0.080 C 
ENDROOT
BRANCH   1  10
ATOM      2  C   UNL     1       6.358  -3.586  22.502  0.00  0.00    +0.140 A 
ATOM      3  C   UNL     1       6.111  -4.804  23.153  0.00  0.00    +0.084 A 
ATOM      4 CL   UNL     1       4.644  -5.678  22.896  0.00  0.00    -0.080 Cl
ATOM      5  C   UNL     1       7.045  -5.333  24.039  0.00  0.00    +0.045 A 
ATOM      6  C   UNL     1       8.250  -4.661  24.252  0.00  0.00    +0.061 A 
ATOM      7 CL   UNL     1       9.378  -5.404  25.336  0.00  0.00    -0.082 Cl
ATOM      8  C   UNL     1       8.496  -3.426  23.628  0.00  0.00    +0.066 A 
ATOM      9 CL   UNL     1      10.004  -2.604  23.910  0.00  0.00    -0.082 Cl
ATOM     10  C   UNL     1       7.525  -2.846  22.777  0.00  0.00    +0.020 A 
BRANCH   2  11
ATOM     11  O   UNL     1       5.428  -3.152  21.593  0.00  0.00    -0.505 OA
ATOM     12  H   UNL     1       4.602  -3.656  21.635  0.00  0.00    +0.292 HD
ENDBRANCH   2  11
ENDBRANCH   1  10
BRANCH   1  13
ATOM     13  C   UNL     1       7.594  -0.231  23.213  0.00  0.00    +0.020 A 
ATOM     14  C   UNL     1       8.647   0.728  23.151  0.00  0.00    +0.066 A 
ATOM     15 CL   UNL     1      10.049   0.412  22.162  0.00  0.00    -0.082 Cl
ATOM     16  C   UNL     1       8.587   1.926  23.885  0.00  0.00    +0.061 A 
ATOM     17 CL   UNL     1       9.833   3.125  23.820  0.00  0.00    -0.082 Cl
ATOM     18  C   UNL     1       7.491   2.193  24.699  0.00  0.00    +0.045 A 
ATOM     19  C   UNL     1       6.477   1.247  24.815  0.00  0.00    +0.084 A 
ATOM     20 CL   UNL     1       5.157   1.607  25.871  0.00  0.00    -0.080 Cl
ATOM     21  C   UNL     1       6.535   0.039  24.099  0.00  0.00    +0.140 A 
BRANCH  21  22
ATOM     22  O   UNL     1       5.513  -0.851  24.289  0.00  0.00    -0.505 OA
ATOM     23  H   UNL     1       5.812  -1.744  24.058  0.00  0.00    +0.292 HD
ENDBRANCH  21  22
ENDBRANCH   1  13
TORSDOF 4
ENDMDL
MODEL 3
REMARK VINA RESULT:      -5.9      3.600      7.566
REMARK  Name = 
REMARK  4 active torsions:
REMARK  status: ('A' for Active; 'I' for Inactive)
REMARK    1  A    between atoms: O_1  and  C_2
REMARK    2  A    between atoms: C_3  and  C_4
REMARK    3  A    between atoms: C_4  and  C_5
REMARK    4  A    between atoms: C_6  and  O_7
REMARK                            x       y       z     vdW  Elec       q    Type
REMARK                         _______ _______ _______ _____ _____    ______ ____
ROOT
ATOM      1  C   UNL     1       7.929   1.918  22.006  0.00  0.00    +0.080 C 
ENDROOT
BRANCH   1  10
ATOM      2  C   UNL     1       6.835   4.181  22.378  0.00  0.00    +0.140 A 
ATOM      3  C   UNL     1       6.922   5.545  22.700  0.00  0.00    +0.084 A 
ATOM      4 CL   UNL     1       5.619   6.630  22.373  0.00  0.00    -0.080 Cl
ATOM      5  C   UNL     1       8.076   6.059  23.284  0.00  0.00    +0.045 A 
ATOM      6  C   UNL     1       9.138   5.203  23.581  0.00  0.00    +0.061 A 
ATOM      7 CL   UNL     1      10.522   5.912  24.345  0.00  0.00    -0.082 Cl
ATOM      8  C   UNL     1       9.073   3.843  23.237  0.00  0.00    +0.066 A 
ATOM      9 CL   UNL     1      10.410   2.794  23.614  0.00  0.00    -0.082 Cl
ATOM     10  C   UNL     1       7.932   3.322  22.583  0.00  0.00    +0.020 A 
BRANCH   2  11
ATOM     11  O   UNL     1       5.647   3.726  21.865  0.00  0.00    -0.505 OA
ATOM     12  H   UNL     1       5.266   3.007  22.390  0.00  0.00    +0.292 HD
ENDBRANCH   2  11
ENDBRANCH   1  10
BRANCH   1  13
ATOM     13  C   UNL     1       7.693   0.697  22.883  0.00  0.00    +0.020 A 
ATOM     14  C   UNL     1       8.703  -0.308  22.896  0.00  0.00    +0.066 A 
ATOM     15 CL   UNL     1      10.048  -0.199  21.790  0.00  0.00    -0.082 Cl
ATOM     16  C   UNL     1       8.634  -1.402  23.777  0.00  0.00    +0.061 A 
ATOM     17 CL   UNL     1       9.850  -2.631  23.840  0.00  0.00    -0.082 Cl
ATOM     18  C   UNL     1       7.560  -1.525  24.654  0.00  0.00    +0.045 A 
ATOM     19  C   UNL     1       6.536  -0.582  24.621  0.00  0.00    +0.084 A 
ATOM     20 CL   UNL     1       5.205  -0.803  25.700  0.00  0.00    -0.080 Cl
ATOM     21  C   UNL     1       6.588   0.505  23.732  0.00  0.00    +0.140 A 
BRANCH  21  22
ATOM     22  O   UNL     1       5.530   1.371  23.741  0.00  0.00    -0.505 OA
ATOM     23  H   UNL     1       4.978   1.202  24.521  0.00  0.00    +0.292 HD
ENDBRANCH  21  22
ENDBRANCH   1  13
TORSDOF 4
ENDMDL
MODEL 4
REMARK VINA RESULT:      -5.9      0.276      5.661
REMARK  Name = 
REMARK  4 active torsions:
REMARK  status: ('A' for Active; 'I' for Inactive)
REMARK    1  A    between atoms: O_1  and  C_2
REMARK    2  A    between atoms: C_3  and  C_4
REMARK    3  A    between atoms: C_4  and  C_5
REMARK    4  A    between atoms: C_6  and  O_7
REMARK                            x       y       z     vdW  Elec       q    Type
REMARK                         _______ _______ _______ _____ _____    ______ ____
ROOT
ATOM      1  C   UNL     1       9.242  -2.995  24.676  0.00  0.00    +0.080 C 
ENDROOT
BRANCH   1  10
ATOM      2  C   UNL     1       8.483  -0.775  25.654  0.00  0.00    +0.140 A 
ATOM      3  C   UNL     1       8.201   0.593  25.512  0.00  0.00    +0.084 A 
ATOM      4 CL   UNL     1       7.293   1.451  26.703  0.00  0.00    -0.080 Cl
ATOM      5  C   UNL     1       8.640   1.290  24.391  0.00  0.00    +0.045 A 
ATOM      6  C   UNL     1       9.396   0.630  23.420  0.00  0.00    +0.061 A 
ATOM      7 CL   UNL     1       9.940   1.577  22.075  0.00  0.00    -0.082 Cl
ATOM      8  C   UNL     1       9.659  -0.745  23.537  0.00  0.00    +0.066 A 
ATOM      9 CL   UNL     1      10.600  -1.549  22.314  0.00  0.00    -0.082 Cl
ATOM     10  C   UNL     1       9.161  -1.479  24.639  0.00  0.00    +0.020 A 
BRANCH   2  11
ATOM     11  O   UNL     1       8.079  -1.388  26.812  0.00  0.00    -0.505 OA
ATOM     12  H   UNL     1       8.788  -1.450  27.468  0.00  0.00    +0.292 HD
ENDBRANCH   2  11
ENDBRANCH   1  10
BRANCH   1  13
ATOM     13  C   UNL     1       7.997  -3.856  24.826  0.00  0.00    +0.020 A 
ATOM     14  C   UNL     1       7.222  -4.099  23.655  0.00  0.00    +0.066 A 
ATOM     15 CL   UNL     1       7.607  -3.267  22.171  0.00  0.00    -0.082 Cl
ATOM     16  C   UNL     1       6.135  -4.992  23.672  0.00  0.00    +0.061 A 
ATOM     17 CL   UNL     1       5.182  -5.333  22.269  0.00  0.00    -0.082 Cl
ATOM     18  C   UNL     1       5.791  -5.651  24.849  0.00  0.00    +0.045 A 
ATOM     19  C   UNL     1       6.503  -5.388  26.015  0.00  0.00    +0.084 A 
ATOM     20 CL   UNL     1       6.010  -6.200  27.459  0.00  0.00    -0.080 Cl
ATOM     21  C   UNL     1       7.580  -4.485  26.012  0.00  0.00    +0.140 A 
BRANCH  21  22
ATOM     22  O   UNL     1       8.209  -4.258  27.205  0.00  0.00    -0.505 OA
ATOM     23  H   UNL     1       7.584  -4.398  27.935  0.00  0.00    +0.292 HD
ENDBRANCH  21  22
ENDBRANCH   1  13
TORSDOF 4
ENDMDL
MODEL 5
REMARK VINA RESULT:      -5.8      1.967      6.587
REMARK  Name = 
REMARK  4 active torsions:
REMARK  status: ('A' for Active; 'I' for Inactive)
REMARK    1  A    between atoms: O_1  and  C_2
REMARK    2  A    between atoms: C_3  and  C_4
REMARK    3  A    between atoms: C_4  and  C_5
REMARK    4  A    between atoms: C_6  and  O_7
REMARK                            x       y       z     vdW  Elec       q    Type
REMARK                         _______ _______ _______ _____ _____    ______ ____
ROOT
ATOM      1  C   UNL     1       8.249  -3.995  25.652  0.00  0.00    +0.080 C 
ENDROOT
BRANCH   1  10
ATOM      2  C   UNL     1       9.346  -1.965  24.585  0.00  0.00    +0.140 A 
ATOM      3  C   UNL     1       9.569  -0.580  24.533  0.00  0.00    +0.084 A 
ATOM      4 CL   UNL     1      10.869   0.086  23.612  0.00  0.00    -0.080 Cl
ATOM      5  C   UNL     1       8.749   0.293  25.241  0.00  0.00    +0.045 A 
ATOM      6  C   UNL     1       7.676  -0.212  25.978  0.00  0.00    +0.061 A 
ATOM      7 CL   UNL     1       6.677   0.942  26.796  0.00  0.00    -0.082 Cl
ATOM      8  C   UNL     1       7.461  -1.598  26.060  0.00  0.00    +0.066 A 
ATOM      9 CL   UNL     1       6.120  -2.208  26.987  0.00  0.00    -0.082 Cl
ATOM     10  C   UNL     1       8.328  -2.500  25.400  0.00  0.00    +0.020 A 
BRANCH   2  11
ATOM     11  O   UNL     1      10.148  -2.766  23.815  0.00  0.00    -0.505 OA
ATOM     12  H   UNL     1      10.161  -3.685  24.119  0.00  0.00    +0.292 HD
ENDBRANCH   2  11
ENDBRANCH   1  10
BRANCH   1  13
ATOM     13  C   UNL     1       7.240  -4.873  24.929  0.00  0.00    +0.020 A 
ATOM     14  C   UNL     1       6.265  -5.544  25.722  0.00  0.00    +0.066 A 
ATOM     15 CL   UNL     1       6.378  -5.492  27.462  0.00  0.00    -0.082 Cl
ATOM     16  C   UNL     1       5.212  -6.266  25.130  0.00  0.00    +0.061 A 
ATOM     17 CL   UNL     1       3.997  -7.076  26.056  0.00  0.00    -0.082 Cl
ATOM     18  C   UNL     1       5.112  -6.343  23.744  0.00  0.00    +0.045 A 
ATOM     19  C   UNL     1       6.084  -5.738  22.952  0.00  0.00    +0.084 A 
ATOM     20 CL   UNL     1       5.937  -5.898  21.237  0.00  0.00    -0.080 Cl
ATOM     21  C   UNL     1       7.148  -5.029  23.534  0.00  0.00    +0.140 A 
BRANCH  21  22
ATOM     22  O   UNL     1       8.077  -4.489  22.688  0.00  0.00    -0.505 OA
ATOM     23  H   UNL     1       8.508  -3.733  23.118  0.00  0.00    +0.292 HD
ENDBRANCH  21  22
ENDBRANCH   1  13
TORSDOF 4
ENDMDL
MODEL 6
REMARK VINA RESULT:      -5.7      1.732      6.236
REMARK  Name = 
REMARK  4 active torsions:
REMARK  status: ('A' for Active; 'I' for Inactive)
REMARK    1  A    between atoms: O_1  and  C_2
REMARK    2  A    between atoms: C_3  and  C_4
REMARK    3  A    between atoms: C_4  and  C_5
REMARK    4  A    between atoms: C_6  and  O_7
REMARK                            x       y       z     vdW  Elec       q    Type
REMARK                         _______ _______ _______ _____ _____    ______ ____
ROOT
ATOM      1  C   UNL     1       8.403  -2.993  24.840  0.00  0.00    +0.080 C 
ENDROOT
BRANCH   1  10
ATOM      2  C   UNL     1       7.068  -0.831  24.904  0.00  0.00    +0.140 A 
ATOM      3  C   UNL     1       6.694   0.395  24.329  0.00  0.00    +0.084 A 
ATOM      4 CL   UNL     1       5.309   1.262  24.886  0.00  0.00    -0.080 Cl
ATOM      5  C   UNL     1       7.431   0.935  23.280  0.00  0.00    +0.045 A 
ATOM      6  C   UNL     1       8.569   0.268  22.821  0.00  0.00    +0.061 A 
ATOM      7 CL   UNL     1       9.455   1.026  21.540  0.00  0.00    -0.082 Cl
ATOM      8  C   UNL     1       8.935  -0.973  23.369  0.00  0.00    +0.066 A 
ATOM      9 CL   UNL     1      10.356  -1.788  22.780  0.00  0.00    -0.082 Cl
ATOM     10  C   UNL     1       8.156  -1.564  24.390  0.00  0.00    +0.020 A 
BRANCH   2  11
ATOM     11  O   UNL     1       6.339  -1.276  25.976  0.00  0.00    -0.505 OA
ATOM     12  H   UNL     1       5.386  -1.271  25.807  0.00  0.00    +0.292 HD
ENDBRANCH   2  11
ENDBRANCH   1  10
BRANCH   1  13
ATOM     13  C   UNL     1       7.471  -4.126  24.439  0.00  0.00    +0.020 A 
ATOM     14  C   UNL     1       6.774  -4.804  25.480  0.00  0.00    +0.066 A 
ATOM     15 CL   UNL     1       7.148  -4.449  27.147  0.00  0.00    -0.082 Cl
ATOM     16  C   UNL     1       5.792  -5.770  25.194  0.00  0.00    +0.061 A 
ATOM     17 CL   UNL     1       4.908  -6.599  26.428  0.00  0.00    -0.082 Cl
ATOM     18  C   UNL     1       5.491  -6.089  23.873  0.00  0.00    +0.045 A 
ATOM     19  C   UNL     1       6.197  -5.476  22.842  0.00  0.00    +0.084 A 
ATOM     20 CL   UNL     1       5.815  -5.937  21.221  0.00  0.00    -0.080 Cl
ATOM     21  C   UNL     1       7.192  -4.522  23.118  0.00  0.00    +0.140 A 
BRANCH  21  22
ATOM     22  O   UNL     1       7.860  -3.988  22.051  0.00  0.00    -0.505 OA
ATOM     23  H   UNL     1       7.571  -4.426  21.235  0.00  0.00    +0.292 HD
ENDBRANCH  21  22
ENDBRANCH   1  13
TORSDOF 4
ENDMDL
MODEL 7
REMARK VINA RESULT:      -5.7      1.724      5.938
REMARK  Name = 
REMARK  4 active torsions:
REMARK  status: ('A' for Active; 'I' for Inactive)
REMARK    1  A    between atoms: O_1  and  C_2
REMARK    2  A    between atoms: C_3  and  C_4
REMARK    3  A    between atoms: C_4  and  C_5
REMARK    4  A    between atoms: C_6  and  O_7
REMARK                            x       y       z     vdW  Elec       q    Type
REMARK                         _______ _______ _______ _____ _____    ______ ____
ROOT
ATOM      1  C   UNL     1       6.518  -1.235  24.035  0.00  0.00    +0.080 C 
ENDROOT
BRANCH   1  10
ATOM      2  C   UNL     1       7.172   0.929  25.197  0.00  0.00    +0.140 A 
ATOM      3  C   UNL     1       7.819   2.175  25.191  0.00  0.00    +0.084 A 
ATOM      4 CL   UNL     1       7.487   3.365  26.397  0.00  0.00    -0.080 Cl
ATOM      5  C   UNL     1       8.740   2.485  24.196  0.00  0.00    +0.045 A 
ATOM      6  C   UNL     1       9.046   1.536  23.219  0.00  0.00    +0.061 A 
ATOM      7 CL   UNL     1      10.233   1.984  22.039  0.00  0.00    -0.082 Cl
ATOM      8  C   UNL     1       8.384   0.297  23.198  0.00  0.00    +0.066 A 
ATOM      9 CL   UNL     1       8.779  -0.870  21.970  0.00  0.00    -0.082 Cl
ATOM     10  C   UNL     1       7.397  -0.004  24.166  0.00  0.00    +0.020 A 
BRANCH   2  11
ATOM     11  O   UNL     1       6.325   0.659  26.241  0.00  0.00    -0.505 OA
ATOM     12  H   UNL     1       6.281   1.384  26.883  0.00  0.00    +0.292 HD
ENDBRANCH   2  11
ENDBRANCH   1  10
BRANCH   1  13
ATOM     13  C   UNL     1       7.086  -2.639  24.175  0.00  0.00    +0.020 A 
ATOM     14  C   UNL     1       6.825  -3.562  23.121  0.00  0.00    +0.066 A 
ATOM     15 CL   UNL     1       5.731  -3.122  21.834  0.00  0.00    -0.082 Cl
ATOM     16  C   UNL     1       7.422  -4.835  23.100  0.00  0.00    +0.061 A 
ATOM     17 CL   UNL     1       7.149  -5.976  21.829  0.00  0.00    -0.082 Cl
ATOM     18  C   UNL     1       8.280  -5.220  24.126  0.00  0.00    +0.045 A 
ATOM     19  C   UNL     1       8.507  -4.354  25.191  0.00  0.00    +0.084 A 
ATOM     20 CL   UNL     1       9.547  -4.895  26.461  0.00  0.00    -0.080 Cl
ATOM     21  C   UNL     1       7.902  -3.086  25.229  0.00  0.00    +0.140 A 
BRANCH  21  22
ATOM     22  O   UNL     1       8.153  -2.306  26.324  0.00  0.00    -0.505 OA
ATOM     23  H   UNL     1       8.043  -2.833  27.131  0.00  0.00    +0.292 HD
ENDBRANCH  21  22
ENDBRANCH   1  13
TORSDOF 4
ENDMDL
MODEL 8
REMARK VINA RESULT:      -5.6      2.503      2.937
REMARK  Name = 
REMARK  4 active torsions:
REMARK  status: ('A' for Active; 'I' for Inactive)
REMARK    1  A    between atoms: O_1  and  C_2
REMARK    2  A    between atoms: C_3  and  C_4
REMARK    3  A    between atoms: C_4  and  C_5
REMARK    4  A    between atoms: C_6  and  O_7
REMARK                            x       y       z     vdW  Elec       q    Type
REMARK                         _______ _______ _______ _____ _____    ______ ____
ROOT
ATOM      1  C   UNL     1       7.397  -0.824  25.077  0.00  0.00    +0.080 C 
ENDROOT
BRANCH   1  10
ATOM      2  C   UNL     1       5.277  -2.196  24.785  0.00  0.00    +0.140 A 
ATOM      3  C   UNL     1       4.620  -3.354  24.338  0.00  0.00    +0.084 A 
ATOM      4 CL   UNL     1       3.024  -3.742  24.871  0.00  0.00    -0.080 Cl
ATOM      5  C   UNL     1       5.252  -4.229  23.461  0.00  0.00    +0.045 A 
ATOM      6  C   UNL     1       6.535  -3.932  22.995  0.00  0.00    +0.061 A 
ATOM      7 CL   UNL     1       7.237  -5.049  21.872  0.00  0.00    -0.082 Cl
ATOM      8  C   UNL     1       7.213  -2.792  23.457  0.00  0.00    +0.066 A 
ATOM      9 CL   UNL     1       8.812  -2.442  22.866  0.00  0.00    -0.082 Cl
ATOM     10  C   UNL     1       6.607  -1.930  24.401  0.00  0.00    +0.020 A 
BRANCH   2  11
ATOM     11  O   UNL     1       4.577  -1.343  25.597  0.00  0.00    -0.505 OA
ATOM     12  H   UNL     1       3.619  -1.469  25.533  0.00  0.00    +0.292 HD
ENDBRANCH   2  11
ENDBRANCH   1  10
BRANCH   1  13
ATOM     13  C   UNL     1       7.594   0.532  24.417  0.00  0.00    +0.020 A 
ATOM     14  C   UNL     1       8.932   0.992  24.248  0.00  0.00    +0.066 A 
ATOM     15 CL   UNL     1      10.252   0.099  24.958  0.00  0.00    -0.082 Cl
ATOM     16  C   UNL     1       9.215   2.167  23.528  0.00  0.00    +0.061 A 
ATOM     17 CL   UNL     1      10.825   2.748  23.282  0.00  0.00    -0.082 Cl
ATOM     18  C   UNL     1       8.179   2.912  22.972  0.00  0.00    +0.045 A 
ATOM     19  C   UNL     1       6.861   2.507  23.170  0.00  0.00    +0.084 A 
ATOM     20 CL   UNL     1       5.609   3.488  22.494  0.00  0.00    -0.080 Cl
ATOM     21  C   UNL     1       6.568   1.344  23.902  0.00  0.00    +0.140 A 
BRANCH  21  22
ATOM     22  O   UNL     1       5.248   1.031  24.076  0.00  0.00    -0.505 OA
ATOM     23  H   UNL     1       4.982   1.236  24.986  0.00  0.00    +0.292 HD
ENDBRANCH  21  22
ENDBRANCH   1  13
TORSDOF 4
ENDMDL
MODEL 9
REMARK VINA RESULT:      -5.6      1.940      3.820
REMARK  Name = 
REMARK  4 active torsions:
REMARK  status: ('A' for Active; 'I' for Inactive)
REMARK    1  A    between atoms: O_1  and  C_2
REMARK    2  A    between atoms: C_3  and  C_4
REMARK    3  A    between atoms: C_4  and  C_5
REMARK    4  A    between atoms: C_6  and  O_7
REMARK                            x       y       z     vdW  Elec       q    Type
REMARK                         _______ _______ _______ _____ _____    ______ ____
ROOT
ATOM      1  C   UNL     1       8.330  -4.039  25.706  0.00  0.00    +0.080 C 
ENDROOT
BRANCH   1  10
ATOM      2  C   UNL     1       7.264  -5.011  23.613  0.00  0.00    +0.140 A 
ATOM      3  C   UNL     1       6.190  -5.642  22.967  0.00  0.00    +0.084 A 
ATOM      4 CL   UNL     1       6.068  -5.669  21.244  0.00  0.00    -0.080 Cl
ATOM      5  C   UNL     1       5.183  -6.253  23.707  0.00  0.00    +0.045 A 
ATOM      6  C   UNL     1       5.263  -6.268  25.101  0.00  0.00    +0.061 A 
ATOM      7 CL   UNL     1       3.993  -7.085  25.949  0.00  0.00    -0.082 Cl
ATOM      8  C   UNL     1       6.319  -5.614  25.759  0.00  0.00    +0.066 A 
ATOM      9 CL   UNL     1       6.399  -5.642  27.497  0.00  0.00    -0.082 Cl
ATOM     10  C   UNL     1       7.313  -4.932  25.019  0.00  0.00    +0.020 A 
BRANCH   2  11
ATOM     11  O   UNL     1       8.256  -4.484  22.826  0.00  0.00    -0.505 OA
ATOM     12  H   UNL     1       7.936  -4.213  21.953  0.00  0.00    +0.292 HD
ENDBRANCH   2  11
ENDBRANCH   1  10
BRANCH   1  13
ATOM     13  C   UNL     1       8.431  -2.555  25.389  0.00  0.00    +0.020 A 
ATOM     14  C   UNL     1       7.556  -1.673  26.087  0.00  0.00    +0.066 A 
ATOM     15 CL   UNL     1       6.303  -2.325  27.110  0.00  0.00    -0.082 Cl
ATOM     16  C   UNL     1       7.672  -0.277  25.959  0.00  0.00    +0.061 A 
ATOM     17 CL   UNL     1       6.645   0.828  26.805  0.00  0.00    -0.082 Cl
ATOM     18  C   UNL     1       8.648   0.270  25.131  0.00  0.00    +0.045 A 
ATOM     19  C   UNL     1       9.479  -0.575  24.400  0.00  0.00    +0.084 A 
ATOM     20 CL   UNL     1      10.646   0.152  23.354  0.00  0.00    -0.080 Cl
ATOM     21  C   UNL     1       9.360  -1.972  24.508  0.00  0.00    +0.140 A 
BRANCH  21  22
ATOM     22  O   UNL     1      10.193  -2.732  23.735  0.00  0.00    -0.505 OA
ATOM     23  H   UNL     1      11.073  -2.769  24.144  0.00  0.00    +0.292 HD
ENDBRANCH  21  22
ENDBRANCH   1  13
TORSDOF 4
ENDMDL
