MODEL 1
REMARK VINA RESULT:      -8.4      0.000      0.000
REMARK  Name = 
REMARK  15 active torsions:
REMARK  status: ('A' for Active; 'I' for Inactive)
REMARK    1  A    between atoms: C_1  and  C_2
REMARK    2  A    between atoms: C_3  and  C_27
REMARK    3  A    between atoms: C_4  and  C_5
REMARK    4  A    between atoms: C_9  and  N_11
REMARK    5  A    between atoms: C_14  and  P_18
REMARK    6  A    between atoms: C_15  and  C_16
REMARK    7  A    between atoms: C_22  and  C_23
REMARK    8  A    between atoms: C_22  and  C_24
REMARK    9  A    between atoms: C_27  and  O_29
REMARK   10  A    between atoms: O_29  and  C_30
REMARK   11  A    between atoms: C_30  and  C_31
REMARK   12  A    between atoms: C_31  and  N_32
REMARK   13  A    between atoms: N_32  and  C_33
REMARK   14  A    between atoms: N_32  and  C_40
REMARK   15  A    between atoms: C_33  and  C_34
REMARK                            x       y       z     vdW  Elec       q    Type
REMARK                         _______ _______ _______ _____ _____    ______ ____
ROOT
ATOM      1  C   UNL     1      11.070   0.452  24.855  0.00  0.00    +0.061 C 
ATOM      2  C   UNL     1       9.646  -0.040  24.979  0.00  0.00    +0.016 C 
ATOM      3  N   UNL     1       9.166   0.016  26.284  0.00  0.00    -0.321 N 
ATOM      4  H   UNL     1       9.790   0.483  26.944  0.00  0.00    +0.152 HD
ATOM      5  C   UNL     1       7.823   0.061  26.610  0.00  0.00    +0.017 C 
ATOM      6  C   UNL     1       7.534   0.773  27.903  0.00  0.00    +0.061 C 
ATOM      7  C   UNL     1       6.912  -0.421  25.725  0.00  0.00    +0.070 C 
ATOM      8  C   UNL     1       7.411  -0.969  24.362  0.00  0.00    +0.097 C 
ATOM      9  C   UNL     1       8.836  -0.488  23.987  0.00  0.00    +0.065 C 
ENDROOT
BRANCH   7  10
ATOM     10  P   UNL     1       5.153  -0.210  25.777  0.00  0.00    +0.362 P 
ATOM     11  O   UNL     1       4.581  -0.296  27.283  0.00  0.00    -0.304 OA
ATOM     12  C   UNL     1       4.628  -1.464  28.072  0.00  0.00    +0.179 C 
ATOM     13  C   UNL     1       4.501  -2.817  27.346  0.00  0.00    +0.013 C 
ATOM     14  C   UNL     1       3.079  -3.374  27.520  0.00  0.00    +0.015 C 
ATOM     15  C   UNL     1       5.490  -3.811  28.007  0.00  0.00    +0.015 C 
ATOM     16  C   UNL     1       4.815  -2.765  25.851  0.00  0.00    +0.179 C 
ATOM     17  O   UNL     1       4.475  -1.561  25.211  0.00  0.00    -0.304 OA
ATOM     18  O   UNL     1       4.560   0.989  25.089  0.00  0.00    -0.253 OA
ENDBRANCH   7  10
BRANCH   8  19
ATOM     19  C   UNL     1       7.361  -2.513  24.225  0.00  0.00    -0.029 A 
ATOM     20  C   UNL     1       6.723  -3.091  23.113  0.00  0.00    +0.088 A 
ATOM     21  C   UNL     1       6.917  -4.448  22.826  0.00  0.00    +0.273 A 
ATOM     22  C   UNL     1       7.581  -5.298  23.706  0.00  0.00    +0.084 A 
ATOM     23  C   UNL     1       8.111  -4.760  24.873  0.00  0.00    +0.007 A 
ATOM     24  C   UNL     1       8.061  -3.375  25.096  0.00  0.00    +0.005 A 
BRANCH  21  25
ATOM     25  N   UNL     1       6.554  -4.950  21.513  0.00  0.00    +0.080 N 
ATOM     26  O   UNL     1       5.703  -4.314  20.884  0.00  0.00    +0.041 OA
ATOM     27  O   UNL     1       7.138  -5.973  21.127  0.00  0.00    -0.576 OA
ENDBRANCH  21  25
ENDBRANCH   8  19
BRANCH   9  28
ATOM     28  C   UNL     1       9.280  -0.626  22.551  0.00  0.00    +0.338 C 
ATOM     29  O   UNL     1      10.164  -1.376  22.166  0.00  0.00    -0.245 OA
BRANCH  28  30
ATOM     30  O   UNL     1       8.519   0.133  21.710  0.00  0.00    -0.460 OA
BRANCH  30  31
ATOM     31  C   UNL     1       8.832   1.548  21.595  0.00  0.00    +0.251 C 
BRANCH  31  32
ATOM     32  C   UNL     1       7.568   2.421  21.732  0.00  0.00    +0.146 C 
BRANCH  32  33
ATOM     33  N   UNL     1       7.795   3.635  22.562  0.00  0.00    -0.322 N 
BRANCH  33  34
ATOM     34  C   UNL     1       6.991   4.779  22.460  0.00  0.00    +0.030 A 
ATOM     35  C   UNL     1       5.684   4.794  22.990  0.00  0.00    +0.023 A 
ATOM     36  C   UNL     1       4.860   5.932  22.926  0.00  0.00    +0.002 A 
ATOM     37  C   UNL     1       5.314   7.082  22.325  0.00  0.00    +0.000 A 
ATOM     38  C   UNL     1       6.590   7.107  21.773  0.00  0.00    +0.002 A 
ATOM     39  C   UNL     1       7.407   5.970  21.843  0.00  0.00    +0.023 A 
ENDBRANCH  33  34
BRANCH  33  40
ATOM     40  C   UNL     1       8.521   3.454  23.840  0.00  0.00    +0.140 C 
BRANCH  40  41
ATOM     41  C   UNL     1       9.811   4.245  23.981  0.00  0.00    -0.030 A 
ATOM     42  C   UNL     1      10.989   3.743  23.398  0.00  0.00    +0.005 A 
ATOM     43  C   UNL     1      12.133   4.540  23.292  0.00  0.00    +0.000 A 
ATOM     44  C   UNL     1      12.109   5.855  23.749  0.00  0.00    +0.000 A 
ATOM     45  C   UNL     1      10.981   6.336  24.404  0.00  0.00    +0.000 A 
ATOM     46  C   UNL     1       9.858   5.522  24.553  0.00  0.00    +0.005 A 
ENDBRANCH  40  41
ENDBRANCH  33  40
ENDBRANCH  32  33
ENDBRANCH  31  32
ENDBRANCH  30  31
ENDBRANCH  28  30
ENDBRANCH   9  28
TORSDOF 11
ENDMDL
MODEL 2
REMARK VINA RESULT:      -7.9      1.112      2.969
REMARK  Name = 
REMARK  15 active torsions:
REMARK  status: ('A' for Active; 'I' for Inactive)
REMARK    1  A    between atoms: C_1  and  C_2
REMARK    2  A    between atoms: C_3  and  C_27
REMARK    3  A    between atoms: C_4  and  C_5
REMARK    4  A    between atoms: C_9  and  N_11
REMARK    5  A    between atoms: C_14  and  P_18
REMARK    6  A    between atoms: C_15  and  C_16
REMARK    7  A    between atoms: C_22  and  C_23
REMARK    8  A    between atoms: C_22  and  C_24
REMARK    9  A    between atoms: C_27  and  O_29
REMARK   10  A    between atoms: O_29  and  C_30
REMARK   11  A    between atoms: C_30  and  C_31
REMARK   12  A    between atoms: C_31  and  N_32
REMARK   13  A    between atoms: N_32  and  C_33
REMARK   14  A    between atoms: N_32  and  C_40
REMARK   15  A    between atoms: C_33  and  C_34
REMARK                            x       y       z     vdW  Elec       q    Type
REMARK                         _______ _______ _______ _____ _____    ______ ____
ROOT
ATOM      1  C   UNL     1      11.061   0.383  24.801  0.00  0.00    +0.061 C 
ATOM      2  C   UNL     1       9.648  -0.138  24.928  0.00  0.00    +0.016 C 
ATOM      3  N   UNL     1       9.224  -0.238  26.250  0.00  0.00    -0.321 N 
ATOM      4  H   UNL     1       9.873   0.159  26.933  0.00  0.00    +0.152 HD
ATOM      5  C   UNL     1       7.896  -0.247  26.635  0.00  0.00    +0.017 C 
ATOM      6  C   UNL     1       7.658   0.309  28.012  0.00  0.00    +0.061 C 
ATOM      7  C   UNL     1       6.952  -0.638  25.740  0.00  0.00    +0.070 C 
ATOM      8  C   UNL     1       7.396  -1.021  24.303  0.00  0.00    +0.097 C 
ATOM      9  C   UNL     1       8.800  -0.482  23.927  0.00  0.00    +0.065 C 
ENDROOT
BRANCH   7  10
ATOM     10  P   UNL     1       5.195  -0.457  25.889  0.00  0.00    +0.362 P 
ATOM     11  O   UNL     1       4.700  -0.631  27.414  0.00  0.00    -0.304 OA
ATOM     12  C   UNL     1       4.801  -1.837  28.136  0.00  0.00    +0.179 C 
ATOM     13  C   UNL     1       4.655  -3.152  27.347  0.00  0.00    +0.013 C 
ATOM     14  C   UNL     1       3.251  -3.740  27.561  0.00  0.00    +0.015 C 
ATOM     15  C   UNL     1       5.689  -4.165  27.905  0.00  0.00    +0.015 C 
ATOM     16  C   UNL     1       4.894  -3.017  25.843  0.00  0.00    +0.179 C 
ATOM     17  O   UNL     1       4.507  -1.786  25.286  0.00  0.00    -0.304 OA
ATOM     18  O   UNL     1       4.553   0.768  25.296  0.00  0.00    -0.253 OA
ENDBRANCH   7  10
BRANCH   8  19
ATOM     19  C   UNL     1       7.353  -2.539  23.993  0.00  0.00    -0.029 A 
ATOM     20  C   UNL     1       6.551  -3.010  22.938  0.00  0.00    +0.088 A 
ATOM     21  C   UNL     1       6.721  -4.317  22.464  0.00  0.00    +0.273 A 
ATOM     22  C   UNL     1       7.536  -5.237  23.119  0.00  0.00    +0.084 A 
ATOM     23  C   UNL     1       8.241  -4.816  24.241  0.00  0.00    +0.007 A 
ATOM     24  C   UNL     1       8.203  -3.469  24.631  0.00  0.00    +0.005 A 
BRANCH  21  25
ATOM     25  N   UNL     1       6.156  -4.679  21.176  0.00  0.00    +0.080 N 
ATOM     26  O   UNL     1       6.175  -5.873  20.869  0.00  0.00    +0.041 OA
ATOM     27  O   UNL     1       5.690  -3.754  20.494  0.00  0.00    -0.576 OA
ENDBRANCH  21  25
ENDBRANCH   8  19
BRANCH   9  28
ATOM     28  C   UNL     1       9.183  -0.449  22.467  0.00  0.00    +0.338 C 
ATOM     29  O   UNL     1       9.440  -1.436  21.794  0.00  0.00    -0.245 OA
BRANCH  28  30
ATOM     30  O   UNL     1       9.130   0.815  21.957  0.00  0.00    -0.460 OA
BRANCH  30  31
ATOM     31  C   UNL     1       7.837   1.478  21.904  0.00  0.00    +0.251 C 
BRANCH  31  32
ATOM     32  C   UNL     1       7.948   2.969  22.281  0.00  0.00    +0.146 C 
BRANCH  32  33
ATOM     33  N   UNL     1       8.684   3.186  23.555  0.00  0.00    -0.322 N 
BRANCH  33  34
ATOM     34  C   UNL     1       9.788   4.046  23.651  0.00  0.00    +0.030 A 
ATOM     35  C   UNL     1      11.078   3.610  23.286  0.00  0.00    +0.023 A 
ATOM     36  C   UNL     1      12.202   4.453  23.347  0.00  0.00    +0.002 A 
ATOM     37  C   UNL     1      12.070   5.751  23.781  0.00  0.00    +0.000 A 
ATOM     38  C   UNL     1      10.819   6.219  24.168  0.00  0.00    +0.002 A 
ATOM     39  C   UNL     1       9.702   5.374  24.102  0.00  0.00    +0.023 A 
ENDBRANCH  33  34
BRANCH  33  40
ATOM     40  C   UNL     1       7.954   2.912  24.814  0.00  0.00    +0.140 C 
BRANCH  40  41
ATOM     41  C   UNL     1       6.832   3.882  25.148  0.00  0.00    -0.030 A 
ATOM     42  C   UNL     1       7.010   4.796  26.203  0.00  0.00    +0.005 A 
ATOM     43  C   UNL     1       6.119   5.857  26.391  0.00  0.00    +0.000 A 
ATOM     44  C   UNL     1       5.049   6.030  25.517  0.00  0.00    +0.000 A 
ATOM     45  C   UNL     1       4.813   5.086  24.523  0.00  0.00    +0.000 A 
ATOM     46  C   UNL     1       5.675   4.000  24.370  0.00  0.00    +0.005 A 
ENDBRANCH  40  41
ENDBRANCH  33  40
ENDBRANCH  32  33
ENDBRANCH  31  32
ENDBRANCH  30  31
ENDBRANCH  28  30
ENDBRANCH   9  28
TORSDOF 11
ENDMDL
MODEL 3
REMARK VINA RESULT:      -7.8      2.281      5.398
REMARK  Name = 
REMARK  15 active torsions:
REMARK  status: ('A' for Active; 'I' for Inactive)
REMARK    1  A    between atoms: C_1  and  C_2
REMARK    2  A    between atoms: C_3  and  C_27
REMARK    3  A    between atoms: C_4  and  C_5
REMARK    4  A    between atoms: C_9  and  N_11
REMARK    5  A    between atoms: C_14  and  P_18
REMARK    6  A    between atoms: C_15  and  C_16
REMARK    7  A    between atoms: C_22  and  C_23
REMARK    8  A    between atoms: C_22  and  C_24
REMARK    9  A    between atoms: C_27  and  O_29
REMARK   10  A    between atoms: O_29  and  C_30
REMARK   11  A    between atoms: C_30  and  C_31
REMARK   12  A    between atoms: C_31  and  N_32
REMARK   13  A    between atoms: N_32  and  C_33
REMARK   14  A    between atoms: N_32  and  C_40
REMARK   15  A    between atoms: C_33  and  C_34
REMARK                            x       y       z     vdW  Elec       q    Type
REMARK                         _______ _______ _______ _____ _____    ______ ____
ROOT
ATOM      1  C   UNL     1       9.523  -0.706  21.337  0.00  0.00    +0.061 C 
ATOM      2  C   UNL     1       8.924  -1.253  22.612  0.00  0.00    +0.016 C 
ATOM      3  N   UNL     1       8.053  -2.316  22.389  0.00  0.00    -0.321 N 
ATOM      4  H   UNL     1       8.031  -2.648  21.423  0.00  0.00    +0.152 HD
ATOM      5  C   UNL     1       7.729  -3.261  23.345  0.00  0.00    +0.017 C 
ATOM      6  C   UNL     1       7.374  -4.607  22.774  0.00  0.00    +0.061 C 
ATOM      7  C   UNL     1       7.858  -2.942  24.659  0.00  0.00    +0.070 C 
ATOM      8  C   UNL     1       8.403  -1.539  25.039  0.00  0.00    +0.097 C 
ATOM      9  C   UNL     1       9.160  -0.837  23.882  0.00  0.00    +0.065 C 
ENDROOT
BRANCH   7  10
ATOM     10  P   UNL     1       7.794  -4.049  26.041  0.00  0.00    +0.362 P 
ATOM     11  O   UNL     1       6.956  -5.385  25.703  0.00  0.00    -0.304 OA
ATOM     12  C   UNL     1       5.574  -5.392  25.425  0.00  0.00    +0.179 C 
ATOM     13  C   UNL     1       4.699  -4.350  26.148  0.00  0.00    +0.013 C 
ATOM     14  C   UNL     1       3.947  -5.014  27.313  0.00  0.00    +0.015 C 
ATOM     15  C   UNL     1       3.649  -3.821  25.138  0.00  0.00    +0.015 C 
ATOM     16  C   UNL     1       5.469  -3.149  26.698  0.00  0.00    +0.179 C 
ATOM     17  O   UNL     1       6.777  -3.427  27.129  0.00  0.00    -0.304 OA
ATOM     18  O   UNL     1       9.088  -4.432  26.707  0.00  0.00    -0.253 OA
ENDBRANCH   7  10
BRANCH   8  19
ATOM     19  C   UNL     1       7.340  -0.559  25.598  0.00  0.00    -0.029 A 
ATOM     20  C   UNL     1       7.533   0.028  26.862  0.00  0.00    +0.088 A 
ATOM     21  C   UNL     1       6.746   1.118  27.251  0.00  0.00    +0.273 A 
ATOM     22  C   UNL     1       5.649   1.538  26.503  0.00  0.00    +0.084 A 
ATOM     23  C   UNL     1       5.373   0.883  25.308  0.00  0.00    +0.007 A 
ATOM     24  C   UNL     1       6.247  -0.105  24.829  0.00  0.00    +0.005 A 
BRANCH  21  25
ATOM     25  N   UNL     1       7.172   1.927  28.380  0.00  0.00    +0.080 N 
ATOM     26  O   UNL     1       7.248   3.146  28.200  0.00  0.00    +0.041 OA
ATOM     27  O   UNL     1       7.413   1.325  29.436  0.00  0.00    -0.576 OA
ENDBRANCH  21  25
ENDBRANCH   8  19
BRANCH   9  28
ATOM     28  C   UNL     1      10.052   0.332  24.220  0.00  0.00    +0.338 C 
ATOM     29  O   UNL     1      10.899   0.328  25.100  0.00  0.00    -0.245 OA
BRANCH  28  30
ATOM     30  O   UNL     1       9.860   1.380  23.367  0.00  0.00    -0.460 OA
BRANCH  30  31
ATOM     31  C   UNL     1       8.578   2.065  23.405  0.00  0.00    +0.251 C 
BRANCH  31  32
ATOM     32  C   UNL     1       8.478   3.014  24.616  0.00  0.00    +0.146 C 
BRANCH  32  33
ATOM     33  N   UNL     1       8.551   4.449  24.231  0.00  0.00    -0.322 N 
BRANCH  33  34
ATOM     34  C   UNL     1       9.689   5.235  24.461  0.00  0.00    +0.030 A 
ATOM     35  C   UNL     1      10.882   5.007  23.744  0.00  0.00    +0.023 A 
ATOM     36  C   UNL     1      12.034   5.791  23.933  0.00  0.00    +0.002 A 
ATOM     37  C   UNL     1      12.030   6.817  24.848  0.00  0.00    +0.000 A 
ATOM     38  C   UNL     1      10.881   7.066  25.592  0.00  0.00    +0.002 A 
ATOM     39  C   UNL     1       9.735   6.282  25.396  0.00  0.00    +0.023 A 
ENDBRANCH  33  34
BRANCH  33  40
ATOM     40  C   UNL     1       7.644   4.906  23.153  0.00  0.00    +0.140 C 
BRANCH  40  41
ATOM     41  C   UNL     1       6.162   4.676  23.399  0.00  0.00    -0.030 A 
ATOM     42  C   UNL     1       5.455   3.805  22.550  0.00  0.00    +0.005 A 
ATOM     43  C   UNL     1       4.164   3.376  22.875  0.00  0.00    +0.000 A 
ATOM     44  C   UNL     1       3.571   3.797  24.062  0.00  0.00    +0.000 A 
ATOM     45  C   UNL     1       4.223   4.724  24.868  0.00  0.00    +0.000 A 
ATOM     46  C   UNL     1       5.490   5.189  24.514  0.00  0.00    +0.005 A 
ENDBRANCH  40  41
ENDBRANCH  33  40
ENDBRANCH  32  33
ENDBRANCH  31  32
ENDBRANCH  30  31
ENDBRANCH  28  30
ENDBRANCH   9  28
TORSDOF 11
ENDMDL
MODEL 4
REMARK VINA RESULT:      -7.7      2.471      4.584
REMARK  Name = 
REMARK  15 active torsions:
REMARK  status: ('A' for Active; 'I' for Inactive)
REMARK    1  A    between atoms: C_1  and  C_2
REMARK    2  A    between atoms: C_3  and  C_27
REMARK    3  A    between atoms: C_4  and  C_5
REMARK    4  A    between atoms: C_9  and  N_11
REMARK    5  A    between atoms: C_14  and  P_18
REMARK    6  A    between atoms: C_15  and  C_16
REMARK    7  A    between atoms: C_22  and  C_23
REMARK    8  A    between atoms: C_22  and  C_24
REMARK    9  A    between atoms: C_27  and  O_29
REMARK   10  A    between atoms: O_29  and  C_30
REMARK   11  A    between atoms: C_30  and  C_31
REMARK   12  A    between atoms: C_31  and  N_32
REMARK   13  A    between atoms: N_32  and  C_33
REMARK   14  A    between atoms: N_32  and  C_40
REMARK   15  A    between atoms: C_33  and  C_34
REMARK                            x       y       z     vdW  Elec       q    Type
REMARK                         _______ _______ _______ _____ _____    ______ ____
ROOT
ATOM      1  C   UNL     1       6.733  -3.660  21.462  0.00  0.00    +0.061 C 
ATOM      2  C   UNL     1       6.693  -3.765  22.969  0.00  0.00    +0.016 C 
ATOM      3  N   UNL     1       5.571  -4.445  23.434  0.00  0.00    -0.321 N 
ATOM      4  H   UNL     1       5.002  -4.873  22.702  0.00  0.00    +0.152 HD
ATOM      5  C   UNL     1       5.501  -5.062  24.670  0.00  0.00    +0.017 C 
ATOM      6  C   UNL     1       4.569  -6.242  24.710  0.00  0.00    +0.061 C 
ATOM      7  C   UNL     1       6.322  -4.639  25.667  0.00  0.00    +0.070 C 
ATOM      8  C   UNL     1       7.337  -3.504  25.369  0.00  0.00    +0.097 C 
ATOM      9  C   UNL     1       7.607  -3.299  23.856  0.00  0.00    +0.065 C 
ENDROOT
BRANCH   7  10
ATOM     10  P   UNL     1       6.629  -5.444  27.215  0.00  0.00    +0.362 P 
ATOM     11  O   UNL     1       5.626  -6.683  27.458  0.00  0.00    -0.304 OA
ATOM     12  C   UNL     1       4.233  -6.542  27.622  0.00  0.00    +0.179 C 
ATOM     13  C   UNL     1       3.726  -5.266  28.322  0.00  0.00    +0.013 C 
ATOM     14  C   UNL     1       3.348  -5.581  29.778  0.00  0.00    +0.015 C 
ATOM     15  C   UNL     1       2.447  -4.790  27.586  0.00  0.00    +0.015 C 
ATOM     16  C   UNL     1       4.724  -4.108  28.326  0.00  0.00    +0.179 C 
ATOM     17  O   UNL     1       6.076  -4.486  28.390  0.00  0.00    -0.304 OA
ATOM     18  O   UNL     1       8.036  -5.877  27.525  0.00  0.00    -0.253 OA
ENDBRANCH   7  10
BRANCH   8  19
ATOM     19  C   UNL     1       6.979  -2.131  25.995  0.00  0.00    -0.029 A 
ATOM     20  C   UNL     1       5.641  -1.699  26.000  0.00  0.00    +0.088 A 
ATOM     21  C   UNL     1       5.262  -0.617  26.804  0.00  0.00    +0.273 A 
ATOM     22  C   UNL     1       6.199   0.168  27.471  0.00  0.00    +0.084 A 
ATOM     23  C   UNL     1       7.542  -0.177  27.373  0.00  0.00    +0.007 A 
ATOM     24  C   UNL     1       7.920  -1.350  26.700  0.00  0.00    +0.005 A 
BRANCH  21  25
ATOM     25  N   UNL     1       3.852  -0.400  27.075  0.00  0.00    +0.080 N 
ATOM     26  O   UNL     1       3.291   0.500  26.444  0.00  0.00    +0.041 OA
ATOM     27  O   UNL     1       3.325  -1.147  27.912  0.00  0.00    -0.576 OA
ENDBRANCH  21  25
ENDBRANCH   8  19
BRANCH   9  28
ATOM     28  C   UNL     1       8.831  -2.513  23.450  0.00  0.00    +0.338 C 
ATOM     29  O   UNL     1       9.982  -2.880  23.627  0.00  0.00    -0.245 OA
BRANCH  28  30
ATOM     30  O   UNL     1       8.501  -1.370  22.783  0.00  0.00    -0.460 OA
BRANCH  30  31
ATOM     31  C   UNL     1       9.518  -0.744  21.954  0.00  0.00    +0.251 C 
BRANCH  31  32
ATOM     32  C   UNL     1       9.037   0.607  21.387  0.00  0.00    +0.146 C 
BRANCH  32  33
ATOM     33  N   UNL     1       8.784   1.618  22.449  0.00  0.00    -0.322 N 
BRANCH  33  34
ATOM     34  C   UNL     1       7.492   2.033  22.803  0.00  0.00    +0.030 A 
ATOM     35  C   UNL     1       6.817   3.015  22.049  0.00  0.00    +0.023 A 
ATOM     36  C   UNL     1       5.512   3.437  22.362  0.00  0.00    +0.002 A 
ATOM     37  C   UNL     1       4.850   2.897  23.440  0.00  0.00    +0.000 A 
ATOM     38  C   UNL     1       5.485   1.939  24.222  0.00  0.00    +0.002 A 
ATOM     39  C   UNL     1       6.785   1.520  23.902  0.00  0.00    +0.023 A 
ENDBRANCH  33  34
BRANCH  33  40
ATOM     40  C   UNL     1       9.837   1.799  23.474  0.00  0.00    +0.140 C 
BRANCH  40  41
ATOM     41  C   UNL     1      10.241   3.236  23.757  0.00  0.00    -0.030 A 
ATOM     42  C   UNL     1      11.515   3.680  23.357  0.00  0.00    +0.005 A 
ATOM     43  C   UNL     1      11.839   5.040  23.374  0.00  0.00    +0.000 A 
ATOM     44  C   UNL     1      10.889   5.976  23.773  0.00  0.00    +0.000 A 
ATOM     45  C   UNL     1       9.656   5.545  24.252  0.00  0.00    +0.000 A 
ATOM     46  C   UNL     1       9.354   4.184  24.281  0.00  0.00    +0.005 A 
ENDBRANCH  40  41
ENDBRANCH  33  40
ENDBRANCH  32  33
ENDBRANCH  31  32
ENDBRANCH  30  31
ENDBRANCH  28  30
ENDBRANCH   9  28
TORSDOF 11
ENDMDL
MODEL 5
REMARK VINA RESULT:      -7.7      2.324      4.979
REMARK  Name = 
REMARK  15 active torsions:
REMARK  status: ('A' for Active; 'I' for Inactive)
REMARK    1  A    between atoms: C_1  and  C_2
REMARK    2  A    between atoms: C_3  and  C_27
REMARK    3  A    between atoms: C_4  and  C_5
REMARK    4  A    between atoms: C_9  and  N_11
REMARK    5  A    between atoms: C_14  and  P_18
REMARK    6  A    between atoms: C_15  and  C_16
REMARK    7  A    between atoms: C_22  and  C_23
REMARK    8  A    between atoms: C_22  and  C_24
REMARK    9  A    between atoms: C_27  and  O_29
REMARK   10  A    between atoms: O_29  and  C_30
REMARK   11  A    between atoms: C_30  and  C_31
REMARK   12  A    between atoms: C_31  and  N_32
REMARK   13  A    between atoms: N_32  and  C_33
REMARK   14  A    between atoms: N_32  and  C_40
REMARK   15  A    between atoms: C_33  and  C_34
REMARK                            x       y       z     vdW  Elec       q    Type
REMARK                         _______ _______ _______ _____ _____    ______ ____
ROOT
ATOM      1  C   UNL     1       9.069   0.734  21.214  0.00  0.00    +0.061 C 
ATOM      2  C   UNL     1       8.839  -0.213  22.369  0.00  0.00    +0.016 C 
ATOM      3  N   UNL     1       7.921  -1.217  22.071  0.00  0.00    -0.321 N 
ATOM      4  H   UNL     1       7.625  -1.242  21.094  0.00  0.00    +0.152 HD
ATOM      5  C   UNL     1       7.859  -2.427  22.738  0.00  0.00    +0.017 C 
ATOM      6  C   UNL     1       7.335  -3.559  21.896  0.00  0.00    +0.061 C 
ATOM      7  C   UNL     1       8.353  -2.512  23.999  0.00  0.00    +0.070 C 
ATOM      8  C   UNL     1       9.008  -1.255  24.633  0.00  0.00    +0.097 C 
ATOM      9  C   UNL     1       9.425  -0.185  23.592  0.00  0.00    +0.065 C 
ENDROOT
BRANCH   7  10
ATOM     10  P   UNL     1       8.656  -3.987  24.934  0.00  0.00    +0.362 P 
ATOM     11  O   UNL     1       7.718  -5.207  24.452  0.00  0.00    -0.304 OA
ATOM     12  C   UNL     1       6.314  -5.215  24.586  0.00  0.00    +0.179 C 
ATOM     13  C   UNL     1       5.714  -4.496  25.809  0.00  0.00    +0.013 C 
ATOM     14  C   UNL     1       5.308  -5.526  26.876  0.00  0.00    +0.015 C 
ATOM     15  C   UNL     1       4.434  -3.752  25.349  0.00  0.00    +0.015 C 
ATOM     16  C   UNL     1       6.644  -3.473  26.462  0.00  0.00    +0.179 C 
ATOM     17  O   UNL     1       8.012  -3.786  26.400  0.00  0.00    -0.304 OA
ATOM     18  O   UNL     1      10.075  -4.472  25.058  0.00  0.00    -0.253 OA
ENDBRANCH   7  10
BRANCH   8  19
ATOM     19  C   UNL     1       8.160  -0.566  25.733  0.00  0.00    -0.029 A 
ATOM     20  C   UNL     1       6.871  -0.095  25.423  0.00  0.00    +0.088 A 
ATOM     21  C   UNL     1       5.993   0.260  26.454  0.00  0.00    +0.273 A 
ATOM     22  C   UNL     1       6.408   0.336  27.781  0.00  0.00    +0.084 A 
ATOM     23  C   UNL     1       7.720  -0.011  28.085  0.00  0.00    +0.007 A 
ATOM     24  C   UNL     1       8.563  -0.519  27.085  0.00  0.00    +0.005 A 
BRANCH  21  25
ATOM     25  N   UNL     1       4.579   0.405  26.157  0.00  0.00    +0.080 N 
ATOM     26  O   UNL     1       3.823  -0.474  26.578  0.00  0.00    +0.041 OA
ATOM     27  O   UNL     1       4.247   1.411  25.512  0.00  0.00    -0.576 OA
ENDBRANCH  21  25
ENDBRANCH   8  19
BRANCH   9  28
ATOM     28  C   UNL     1      10.397   0.886  24.021  0.00  0.00    +0.338 C 
ATOM     29  O   UNL     1      11.552   0.680  24.363  0.00  0.00    -0.245 OA
BRANCH  28  30
ATOM     30  O   UNL     1       9.859   2.135  23.906  0.00  0.00    -0.460 OA
BRANCH  30  31
ATOM     31  C   UNL     1      10.698   3.193  23.367  0.00  0.00    +0.251 C 
BRANCH  31  32
ATOM     32  C   UNL     1      10.342   4.564  23.975  0.00  0.00    +0.146 C 
BRANCH  32  33
ATOM     33  N   UNL     1       8.875   4.769  24.112  0.00  0.00    -0.322 N 
BRANCH  33  34
ATOM     34  C   UNL     1       8.235   4.831  25.358  0.00  0.00    +0.030 A 
ATOM     35  C   UNL     1       8.224   6.026  26.107  0.00  0.00    +0.023 A 
ATOM     36  C   UNL     1       7.571   6.129  27.348  0.00  0.00    +0.002 A 
ATOM     37  C   UNL     1       6.919   5.041  27.880  0.00  0.00    +0.000 A 
ATOM     38  C   UNL     1       6.921   3.837  27.185  0.00  0.00    +0.002 A 
ATOM     39  C   UNL     1       7.571   3.742  25.946  0.00  0.00    +0.023 A 
ENDBRANCH  33  34
BRANCH  33  40
ATOM     40  C   UNL     1       8.175   5.421  22.981  0.00  0.00    +0.140 C 
BRANCH  40  41
ATOM     41  C   UNL     1       6.776   4.905  22.687  0.00  0.00    -0.030 A 
ATOM     42  C   UNL     1       6.611   3.566  22.286  0.00  0.00    +0.005 A 
ATOM     43  C   UNL     1       5.342   2.982  22.239  0.00  0.00    +0.000 A 
ATOM     44  C   UNL     1       4.222   3.722  22.612  0.00  0.00    +0.000 A 
ATOM     45  C   UNL     1       4.361   5.070  22.928  0.00  0.00    +0.000 A 
ATOM     46  C   UNL     1       5.624   5.663  22.924  0.00  0.00    +0.005 A 
ENDBRANCH  40  41
ENDBRANCH  33  40
ENDBRANCH  32  33
ENDBRANCH  31  32
ENDBRANCH  30  31
ENDBRANCH  28  30
ENDBRANCH   9  28
TORSDOF 11
ENDMDL
MODEL 6
REMARK VINA RESULT:      -7.7      2.420      5.226
REMARK  Name = 
REMARK  15 active torsions:
REMARK  status: ('A' for Active; 'I' for Inactive)
REMARK    1  A    between atoms: C_1  and  C_2
REMARK    2  A    between atoms: C_3  and  C_27
REMARK    3  A    between atoms: C_4  and  C_5
REMARK    4  A    between atoms: C_9  and  N_11
REMARK    5  A    between atoms: C_14  and  P_18
REMARK    6  A    between atoms: C_15  and  C_16
REMARK    7  A    between atoms: C_22  and  C_23
REMARK    8  A    between atoms: C_22  and  C_24
REMARK    9  A    between atoms: C_27  and  O_29
REMARK   10  A    between atoms: O_29  and  C_30
REMARK   11  A    between atoms: C_30  and  C_31
REMARK   12  A    between atoms: C_31  and  N_32
REMARK   13  A    between atoms: N_32  and  C_33
REMARK   14  A    between atoms: N_32  and  C_40
REMARK   15  A    between atoms: C_33  and  C_34
REMARK                            x       y       z     vdW  Elec       q    Type
REMARK                         _______ _______ _______ _____ _____    ______ ____
ROOT
ATOM      1  C   UNL     1       7.232  -3.424  21.569  0.00  0.00    +0.061 C 
ATOM      2  C   UNL     1       7.072  -3.575  23.064  0.00  0.00    +0.016 C 
ATOM      3  N   UNL     1       5.886  -4.211  23.420  0.00  0.00    -0.321 N 
ATOM      4  H   UNL     1       5.355  -4.586  22.632  0.00  0.00    +0.152 HD
ATOM      5  C   UNL     1       5.693  -4.863  24.625  0.00  0.00    +0.017 C 
ATOM      6  C   UNL     1       4.704  -5.994  24.552  0.00  0.00    +0.061 C 
ATOM      7  C   UNL     1       6.454  -4.514  25.693  0.00  0.00    +0.070 C 
ATOM      8  C   UNL     1       7.544  -3.423  25.513  0.00  0.00    +0.097 C 
ATOM      9  C   UNL     1       7.938  -3.185  24.032  0.00  0.00    +0.065 C 
ENDROOT
BRANCH   7  10
ATOM     10  P   UNL     1       6.603  -5.382  27.231  0.00  0.00    +0.362 P 
ATOM     11  O   UNL     1       5.550  -6.599  27.339  0.00  0.00    -0.304 OA
ATOM     12  C   UNL     1       4.152  -6.421  27.387  0.00  0.00    +0.179 C 
ATOM     13  C   UNL     1       3.620  -5.156  28.088  0.00  0.00    +0.013 C 
ATOM     14  C   UNL     1       3.108  -5.511  29.494  0.00  0.00    +0.015 C 
ATOM     15  C   UNL     1       2.424  -4.616  27.264  0.00  0.00    +0.015 C 
ATOM     16  C   UNL     1       4.645  -4.030  28.223  0.00  0.00    +0.179 C 
ATOM     17  O   UNL     1       5.975  -4.450  28.390  0.00  0.00    -0.304 OA
ATOM     18  O   UNL     1       7.966  -5.869  27.645  0.00  0.00    -0.253 OA
ENDBRANCH   7  10
BRANCH   8  19
ATOM     19  C   UNL     1       7.206  -2.055  26.159  0.00  0.00    -0.029 A 
ATOM     20  C   UNL     1       5.866  -1.633  26.230  0.00  0.00    +0.088 A 
ATOM     21  C   UNL     1       5.518  -0.555  27.054  0.00  0.00    +0.273 A 
ATOM     22  C   UNL     1       6.481   0.235  27.676  0.00  0.00    +0.084 A 
ATOM     23  C   UNL     1       7.820  -0.100  27.512  0.00  0.00    +0.007 A 
ATOM     24  C   UNL     1       8.174  -1.268  26.820  0.00  0.00    +0.005 A 
BRANCH  21  25
ATOM     25  N   UNL     1       4.121  -0.350  27.393  0.00  0.00    +0.080 N 
ATOM     26  O   UNL     1       3.834  -0.313  28.592  0.00  0.00    +0.041 OA
ATOM     27  O   UNL     1       3.333  -0.218  26.445  0.00  0.00    -0.576 OA
ENDBRANCH  21  25
ENDBRANCH   8  19
BRANCH   9  28
ATOM     28  C   UNL     1       9.225  -2.450  23.747  0.00  0.00    +0.338 C 
ATOM     29  O   UNL     1      10.334  -2.964  23.751  0.00  0.00    -0.245 OA
BRANCH  28  30
ATOM     30  O   UNL     1       9.001  -1.149  23.402  0.00  0.00    -0.460 OA
BRANCH  30  31
ATOM     31  C   UNL     1      10.155  -0.301  23.149  0.00  0.00    +0.251 C 
BRANCH  31  32
ATOM     32  C   UNL     1      10.195   0.903  24.111  0.00  0.00    +0.146 C 
BRANCH  32  33
ATOM     33  N   UNL     1       9.575   2.125  23.530  0.00  0.00    -0.322 N 
BRANCH  33  34
ATOM     34  C   UNL     1      10.166   3.392  23.633  0.00  0.00    +0.030 A 
ATOM     35  C   UNL     1       9.427   4.498  24.100  0.00  0.00    +0.023 A 
ATOM     36  C   UNL     1       9.995   5.778  24.238  0.00  0.00    +0.002 A 
ATOM     37  C   UNL     1      11.312   5.989  23.906  0.00  0.00    +0.000 A 
ATOM     38  C   UNL     1      12.074   4.931  23.423  0.00  0.00    +0.002 A 
ATOM     39  C   UNL     1      11.502   3.657  23.291  0.00  0.00    +0.023 A 
ENDBRANCH  33  34
BRANCH  33  40
ATOM     40  C   UNL     1       8.622   1.933  22.413  0.00  0.00    +0.140 C 
BRANCH  40  41
ATOM     41  C   UNL     1       7.159   2.174  22.748  0.00  0.00    -0.030 A 
ATOM     42  C   UNL     1       6.572   1.457  23.807  0.00  0.00    +0.005 A 
ATOM     43  C   UNL     1       5.315   1.814  24.306  0.00  0.00    +0.000 A 
ATOM     44  C   UNL     1       4.637   2.903  23.766  0.00  0.00    +0.000 A 
ATOM     45  C   UNL     1       5.166   3.567  22.664  0.00  0.00    +0.000 A 
ATOM     46  C   UNL     1       6.397   3.176  22.137  0.00  0.00    +0.005 A 
ENDBRANCH  40  41
ENDBRANCH  33  40
ENDBRANCH  32  33
ENDBRANCH  31  32
ENDBRANCH  30  31
ENDBRANCH  28  30
ENDBRANCH   9  28
TORSDOF 11
ENDMDL
MODEL 7
REMARK VINA RESULT:      -7.6      3.085      8.358
REMARK  Name = 
REMARK  15 active torsions:
REMARK  status: ('A' for Active; 'I' for Inactive)
REMARK    1  A    between atoms: C_1  and  C_2
REMARK    2  A    between atoms: C_3  and  C_27
REMARK    3  A    between atoms: C_4  and  C_5
REMARK    4  A    between atoms: C_9  and  N_11
REMARK    5  A    between atoms: C_14  and  P_18
REMARK    6  A    between atoms: C_15  and  C_16
REMARK    7  A    between atoms: C_22  and  C_23
REMARK    8  A    between atoms: C_22  and  C_24
REMARK    9  A    between atoms: C_27  and  O_29
REMARK   10  A    between atoms: O_29  and  C_30
REMARK   11  A    between atoms: C_30  and  C_31
REMARK   12  A    between atoms: C_31  and  N_32
REMARK   13  A    between atoms: N_32  and  C_33
REMARK   14  A    between atoms: N_32  and  C_40
REMARK   15  A    between atoms: C_33  and  C_34
REMARK                            x       y       z     vdW  Elec       q    Type
REMARK                         _______ _______ _______ _____ _____    ______ ____
ROOT
ATOM      1  C   UNL     1       4.790   3.829  27.950  0.00  0.00    +0.061 C 
ATOM      2  C   UNL     1       5.122   4.166  26.515  0.00  0.00    +0.016 C 
ATOM      3  N   UNL     1       5.725   5.413  26.377  0.00  0.00    -0.321 N 
ATOM      4  H   UNL     1       5.962   5.868  27.260  0.00  0.00    +0.152 HD
ATOM      5  C   UNL     1       6.513   5.773  25.299  0.00  0.00    +0.017 C 
ATOM      6  C   UNL     1       7.563   6.799  25.628  0.00  0.00    +0.061 C 
ATOM      7  C   UNL     1       6.352   5.123  24.117  0.00  0.00    +0.070 C 
ATOM      8  C   UNL     1       5.317   3.970  24.032  0.00  0.00    +0.097 C 
ATOM      9  C   UNL     1       4.914   3.399  25.416  0.00  0.00    +0.065 C 
ENDROOT
BRANCH   7  10
ATOM     10  P   UNL     1       7.419   5.191  22.704  0.00  0.00    +0.362 P 
ATOM     11  O   UNL     1       7.469   3.782  21.919  0.00  0.00    -0.304 OA
ATOM     12  C   UNL     1       8.004   2.600  22.470  0.00  0.00    +0.179 C 
ATOM     13  C   UNL     1       9.190   2.741  23.442  0.00  0.00    +0.013 C 
ATOM     14  C   UNL     1      10.503   2.391  22.723  0.00  0.00    +0.015 C 
ATOM     15  C   UNL     1       8.990   1.727  24.597  0.00  0.00    +0.015 C 
ATOM     16  C   UNL     1       9.340   4.133  24.059  0.00  0.00    +0.179 C 
ATOM     17  O   UNL     1       8.944   5.197  23.232  0.00  0.00    -0.304 OA
ATOM     18  O   UNL     1       7.215   6.303  21.711  0.00  0.00    -0.253 OA
ENDBRANCH   7  10
BRANCH   8  19
ATOM     19  C   UNL     1       4.025   4.315  23.247  0.00  0.00    -0.029 A 
ATOM     20  C   UNL     1       3.412   3.331  22.452  0.00  0.00    +0.088 A 
ATOM     21  C   UNL     1       2.110   3.530  21.976  0.00  0.00    +0.273 A 
ATOM     22  C   UNL     1       1.456   4.752  22.112  0.00  0.00    +0.084 A 
ATOM     23  C   UNL     1       2.104   5.777  22.792  0.00  0.00    +0.007 A 
ATOM     24  C   UNL     1       3.342   5.540  23.409  0.00  0.00    +0.005 A 
BRANCH  21  25
ATOM     25  N   UNL     1       1.364   2.394  21.466  0.00  0.00    +0.080 N 
ATOM     26  O   UNL     1       1.630   2.014  20.322  0.00  0.00    +0.041 OA
ATOM     27  O   UNL     1       0.526   1.891  22.229  0.00  0.00    -0.576 OA
ENDBRANCH  21  25
ENDBRANCH   8  19
BRANCH   9  28
ATOM     28  C   UNL     1       4.229   2.055  25.460  0.00  0.00    +0.338 C 
ATOM     29  O   UNL     1       3.050   1.884  25.729  0.00  0.00    -0.245 OA
BRANCH  28  30
ATOM     30  O   UNL     1       5.067   1.046  25.080  0.00  0.00    -0.460 OA
BRANCH  30  31
ATOM     31  C   UNL     1       6.001   0.527  26.066  0.00  0.00    +0.251 C 
BRANCH  31  32
ATOM     32  C   UNL     1       6.113  -1.009  25.986  0.00  0.00    +0.146 C 
BRANCH  32  33
ATOM     33  N   UNL     1       6.264  -1.503  24.591  0.00  0.00    -0.322 N 
BRANCH  33  34
ATOM     34  C   UNL     1       7.492  -1.488  23.915  0.00  0.00    +0.030 A 
ATOM     35  C   UNL     1       8.662  -1.978  24.531  0.00  0.00    +0.023 A 
ATOM     36  C   UNL     1       9.905  -2.000  23.872  0.00  0.00    +0.002 A 
ATOM     37  C   UNL     1      10.015  -1.527  22.586  0.00  0.00    +0.000 A 
ATOM     38  C   UNL     1       8.890  -1.018  21.946  0.00  0.00    +0.002 A 
ATOM     39  C   UNL     1       7.654  -1.002  22.607  0.00  0.00    +0.023 A 
ENDBRANCH  33  34
BRANCH  33  40
ATOM     40  C   UNL     1       5.258  -2.476  24.107  0.00  0.00    +0.140 C 
BRANCH  40  41
ATOM     41  C   UNL     1       5.816  -3.722  23.439  0.00  0.00    -0.030 A 
ATOM     42  C   UNL     1       5.644  -3.890  22.052  0.00  0.00    +0.005 A 
ATOM     43  C   UNL     1       6.340  -4.885  21.358  0.00  0.00    +0.000 A 
ATOM     44  C   UNL     1       7.230  -5.712  22.037  0.00  0.00    +0.000 A 
ATOM     45  C   UNL     1       7.346  -5.614  23.420  0.00  0.00    +0.000 A 
ATOM     46  C   UNL     1       6.612  -4.653  24.116  0.00  0.00    +0.005 A 
ENDBRANCH  40  41
ENDBRANCH  33  40
ENDBRANCH  32  33
ENDBRANCH  31  32
ENDBRANCH  30  31
ENDBRANCH  28  30
ENDBRANCH   9  28
TORSDOF 11
ENDMDL
MODEL 8
REMARK VINA RESULT:      -7.4      2.976      8.429
REMARK  Name = 
REMARK  15 active torsions:
REMARK  status: ('A' for Active; 'I' for Inactive)
REMARK    1  A    between atoms: C_1  and  C_2
REMARK    2  A    between atoms: C_3  and  C_27
REMARK    3  A    between atoms: C_4  and  C_5
REMARK    4  A    between atoms: C_9  and  N_11
REMARK    5  A    between atoms: C_14  and  P_18
REMARK    6  A    between atoms: C_15  and  C_16
REMARK    7  A    between atoms: C_22  and  C_23
REMARK    8  A    between atoms: C_22  and  C_24
REMARK    9  A    between atoms: C_27  and  O_29
REMARK   10  A    between atoms: O_29  and  C_30
REMARK   11  A    between atoms: C_30  and  C_31
REMARK   12  A    between atoms: C_31  and  N_32
REMARK   13  A    between atoms: N_32  and  C_33
REMARK   14  A    between atoms: N_32  and  C_40
REMARK   15  A    between atoms: C_33  and  C_34
REMARK                            x       y       z     vdW  Elec       q    Type
REMARK                         _______ _______ _______ _____ _____    ______ ____
ROOT
ATOM      1  C   UNL     1       8.219   1.427  21.394  0.00  0.00    +0.061 C 
ATOM      2  C   UNL     1       7.620   2.344  22.435  0.00  0.00    +0.016 C 
ATOM      3  N   UNL     1       6.442   2.950  22.009  0.00  0.00    -0.321 N 
ATOM      4  H   UNL     1       6.090   2.607  21.113  0.00  0.00    +0.152 HD
ATOM      5  C   UNL     1       5.480   3.454  22.866  0.00  0.00    +0.017 C 
ATOM      6  C   UNL     1       4.086   3.426  22.300  0.00  0.00    +0.061 C 
ATOM      7  C   UNL     1       5.841   3.813  24.125  0.00  0.00    +0.070 C 
ATOM      8  C   UNL     1       7.313   3.606  24.570  0.00  0.00    +0.097 C 
ATOM      9  C   UNL     1       8.091   2.600  23.681  0.00  0.00    +0.065 C 
ENDROOT
BRANCH   7  10
ATOM     10  P   UNL     1       4.764   4.195  25.479  0.00  0.00    +0.362 P 
ATOM     11  O   UNL     1       5.522   4.089  26.899  0.00  0.00    -0.304 OA
ATOM     12  C   UNL     1       6.026   2.883  27.428  0.00  0.00    +0.179 C 
ATOM     13  C   UNL     1       5.255   1.589  27.107  0.00  0.00    +0.013 C 
ATOM     14  C   UNL     1       4.407   1.168  28.319  0.00  0.00    +0.015 C 
ATOM     15  C   UNL     1       6.289   0.468  26.832  0.00  0.00    +0.015 C 
ATOM     16  C   UNL     1       4.333   1.687  25.890  0.00  0.00    +0.179 C 
ATOM     17  O   UNL     1       3.757   2.950  25.679  0.00  0.00    -0.304 OA
ATOM     18  O   UNL     1       3.986   5.482  25.429  0.00  0.00    -0.253 OA
ENDBRANCH   7  10
BRANCH   8  19
ATOM     19  C   UNL     1       8.146   4.908  24.683  0.00  0.00    -0.029 A 
ATOM     20  C   UNL     1       8.336   5.504  25.943  0.00  0.00    +0.088 A 
ATOM     21  C   UNL     1       9.308   6.498  26.105  0.00  0.00    +0.273 A 
ATOM     22  C   UNL     1       9.981   7.052  25.019  0.00  0.00    +0.084 A 
ATOM     23  C   UNL     1       9.711   6.555  23.749  0.00  0.00    +0.007 A 
ATOM     24  C   UNL     1       8.857   5.453  23.592  0.00  0.00    +0.005 A 
BRANCH  21  25
ATOM     25  N   UNL     1       9.738   6.853  27.446  0.00  0.00    +0.080 N 
ATOM     26  O   UNL     1       8.874   6.866  28.327  0.00  0.00    +0.041 OA
ATOM     27  O   UNL     1      10.942   7.104  27.596  0.00  0.00    -0.576 OA
ENDBRANCH  21  25
ENDBRANCH   8  19
BRANCH   9  28
ATOM     28  C   UNL     1       9.380   2.026  24.216  0.00  0.00    +0.338 C 
ATOM     29  O   UNL     1      10.494   2.449  23.946  0.00  0.00    -0.245 OA
BRANCH  28  30
ATOM     30  O   UNL     1       9.154   1.020  25.110  0.00  0.00    -0.460 OA
BRANCH  30  31
ATOM     31  C   UNL     1       9.881  -0.227  24.933  0.00  0.00    +0.251 C 
BRANCH  31  32
ATOM     32  C   UNL     1       9.602  -0.856  23.554  0.00  0.00    +0.146 C 
BRANCH  32  33
ATOM     33  N   UNL     1       8.608  -1.961  23.617  0.00  0.00    -0.322 N 
BRANCH  33  34
ATOM     34  C   UNL     1       8.600  -2.911  24.648  0.00  0.00    +0.030 A 
ATOM     35  C   UNL     1       7.668  -2.825  25.702  0.00  0.00    +0.023 A 
ATOM     36  C   UNL     1       7.616  -3.773  26.740  0.00  0.00    +0.002 A 
ATOM     37  C   UNL     1       8.499  -4.828  26.758  0.00  0.00    +0.000 A 
ATOM     38  C   UNL     1       9.448  -4.942  25.748  0.00  0.00    +0.002 A 
ATOM     39  C   UNL     1       9.491  -3.994  24.715  0.00  0.00    +0.023 A 
ENDBRANCH  33  34
BRANCH  33  40
ATOM     40  C   UNL     1       7.329  -1.761  22.898  0.00  0.00    +0.140 C 
BRANCH  40  41
ATOM     41  C   UNL     1       6.536  -3.024  22.602  0.00  0.00    -0.030 A 
ATOM     42  C   UNL     1       7.143  -4.056  21.863  0.00  0.00    +0.005 A 
ATOM     43  C   UNL     1       6.550  -5.319  21.774  0.00  0.00    +0.000 A 
ATOM     44  C   UNL     1       5.353  -5.573  22.437  0.00  0.00    +0.000 A 
ATOM     45  C   UNL     1       4.699  -4.539  23.099  0.00  0.00    +0.000 A 
ATOM     46  C   UNL     1       5.269  -3.267  23.144  0.00  0.00    +0.005 A 
ENDBRANCH  40  41
ENDBRANCH  33  40
ENDBRANCH  32  33
ENDBRANCH  31  32
ENDBRANCH  30  31
ENDBRANCH  28  30
ENDBRANCH   9  28
TORSDOF 11
ENDMDL
MODEL 9
REMARK VINA RESULT:      -7.3      2.217      5.462
REMARK  Name = 
REMARK  15 active torsions:
REMARK  status: ('A' for Active; 'I' for Inactive)
REMARK    1  A    between atoms: C_1  and  C_2
REMARK    2  A    between atoms: C_3  and  C_27
REMARK    3  A    between atoms: C_4  and  C_5
REMARK    4  A    between atoms: C_9  and  N_11
REMARK    5  A    between atoms: C_14  and  P_18
REMARK    6  A    between atoms: C_15  and  C_16
REMARK    7  A    between atoms: C_22  and  C_23
REMARK    8  A    between atoms: C_22  and  C_24
REMARK    9  A    between atoms: C_27  and  O_29
REMARK   10  A    between atoms: O_29  and  C_30
REMARK   11  A    between atoms: C_30  and  C_31
REMARK   12  A    between atoms: C_31  and  N_32
REMARK   13  A    between atoms: N_32  and  C_33
REMARK   14  A    between atoms: N_32  and  C_40
REMARK   15  A    between atoms: C_33  and  C_34
REMARK                            x       y       z     vdW  Elec       q    Type
REMARK                         _______ _______ _______ _____ _____    ______ ____
ROOT
ATOM      1  C   UNL     1       9.634  -0.638  21.863  0.00  0.00    +0.061 C 
ATOM      2  C   UNL     1       8.412  -0.899  22.714  0.00  0.00    +0.016 C 
ATOM      3  N   UNL     1       7.403  -1.564  22.023  0.00  0.00    -0.321 N 
ATOM      4  H   UNL     1       7.669  -1.883  21.090  0.00  0.00    +0.152 HD
ATOM      5  C   UNL     1       6.407  -2.303  22.636  0.00  0.00    +0.017 C 
ATOM      6  C   UNL     1       5.879  -3.430  21.792  0.00  0.00    +0.061 C 
ATOM      7  C   UNL     1       6.081  -2.029  23.926  0.00  0.00    +0.070 C 
ATOM      8  C   UNL     1       6.869  -0.924  24.679  0.00  0.00    +0.097 C 
ATOM      9  C   UNL     1       8.228  -0.576  24.019  0.00  0.00    +0.065 C 
ENDROOT
BRANCH   7  10
ATOM     10  P   UNL     1       5.072  -3.007  25.006  0.00  0.00    +0.362 P 
ATOM     11  O   UNL     1       5.460  -2.786  26.556  0.00  0.00    -0.304 OA
ATOM     12  C   UNL     1       6.701  -3.159  27.111  0.00  0.00    +0.179 C 
ATOM     13  C   UNL     1       7.392  -4.410  26.533  0.00  0.00    +0.013 C 
ATOM     14  C   UNL     1       7.189  -5.605  27.479  0.00  0.00    +0.015 C 
ATOM     15  C   UNL     1       8.912  -4.121  26.443  0.00  0.00    +0.015 C 
ATOM     16  C   UNL     1       6.906  -4.814  25.141  0.00  0.00    +0.179 C 
ATOM     17  O   UNL     1       5.552  -4.542  24.879  0.00  0.00    -0.304 OA
ATOM     18  O   UNL     1       3.577  -2.922  24.853  0.00  0.00    -0.253 OA
ENDBRANCH   7  10
BRANCH   8  19
ATOM     19  C   UNL     1       6.082   0.392  24.907  0.00  0.00    -0.029 A 
ATOM     20  C   UNL     1       5.814   0.822  26.219  0.00  0.00    +0.088 A 
ATOM     21  C   UNL     1       5.369   2.130  26.447  0.00  0.00    +0.273 A 
ATOM     22  C   UNL     1       5.007   2.976  25.402  0.00  0.00    +0.084 A 
ATOM     23  C   UNL     1       5.152   2.516  24.097  0.00  0.00    +0.007 A 
ATOM     24  C   UNL     1       5.744   1.268  23.853  0.00  0.00    +0.005 A 
BRANCH  21  25
ATOM     25  N   UNL     1       5.430   2.672  27.793  0.00  0.00    +0.080 N 
ATOM     26  O   UNL     1       6.164   2.093  28.598  0.00  0.00    +0.041 OA
ATOM     27  O   UNL     1       4.744   3.680  28.018  0.00  0.00    -0.576 OA
ENDBRANCH  21  25
ENDBRANCH   8  19
BRANCH   9  28
ATOM     28  C   UNL     1       9.244   0.183  24.837  0.00  0.00    +0.338 C 
ATOM     29  O   UNL     1       9.698  -0.196  25.906  0.00  0.00    -0.245 OA
BRANCH  28  30
ATOM     30  O   UNL     1       9.663   1.315  24.201  0.00  0.00    -0.460 OA
BRANCH  30  31
ATOM     31  C   UNL     1       9.036   2.576  24.564  0.00  0.00    +0.251 C 
BRANCH  31  32
ATOM     32  C   UNL     1       8.644   3.394  23.318  0.00  0.00    +0.146 C 
BRANCH  32  33
ATOM     33  N   UNL     1       8.735   4.862  23.542  0.00  0.00    -0.322 N 
BRANCH  33  34
ATOM     34  C   UNL     1       9.880   5.475  24.070  0.00  0.00    +0.030 A 
ATOM     35  C   UNL     1      11.153   5.229  23.514  0.00  0.00    +0.023 A 
ATOM     36  C   UNL     1      12.318   5.846  24.004  0.00  0.00    +0.002 A 
ATOM     37  C   UNL     1      12.247   6.716  25.066  0.00  0.00    +0.000 A 
ATOM     38  C   UNL     1      11.015   6.974  25.657  0.00  0.00    +0.002 A 
ATOM     39  C   UNL     1       9.856   6.358  25.162  0.00  0.00    +0.023 A 
ENDBRANCH  33  34
BRANCH  33  40
ATOM     40  C   UNL     1       7.839   5.725  22.738  0.00  0.00    +0.140 C 
BRANCH  40  41
ATOM     41  C   UNL     1       6.533   6.120  23.406  0.00  0.00    -0.030 A 
ATOM     42  C   UNL     1       5.329   5.982  22.690  0.00  0.00    +0.005 A 
ATOM     43  C   UNL     1       4.094   6.100  23.334  0.00  0.00    +0.000 A 
ATOM     44  C   UNL     1       4.044   6.339  24.705  0.00  0.00    +0.000 A 
ATOM     45  C   UNL     1       5.224   6.563  25.408  0.00  0.00    +0.000 A 
ATOM     46  C   UNL     1       6.453   6.494  24.752  0.00  0.00    +0.005 A 
ENDBRANCH  40  41
ENDBRANCH  33  40
ENDBRANCH  32  33
ENDBRANCH  31  32
ENDBRANCH  30  31
ENDBRANCH  28  30
ENDBRANCH   9  28
TORSDOF 11
ENDMDL
