MODEL 1
REMARK VINA RESULT:      -5.9      0.000      0.000
REMARK  Name = 
REMARK  8 active torsions:
REMARK  status: ('A' for Active; 'I' for Inactive)
REMARK    1  A    between atoms: N_1  and  C_2
REMARK    2  A    between atoms: C_2  and  C_4
REMARK    3  A    between atoms: C_2  and  C_16
REMARK    4  A    between atoms: C_4  and  O_5
REMARK    5  A    between atoms: O_5  and  S_6
REMARK    6  A    between atoms: S_6  and  C_9
REMARK    7  A    between atoms: C_9  and  C_10
REMARK    8  A    between atoms: C_16  and  O_17
REMARK                            x       y       z     vdW  Elec       q    Type
REMARK                         _______ _______ _______ _____ _____    ______ ____
ROOT
ATOM      1  O   UNK     1       8.300  -3.678  24.313  0.00  0.00    -0.236 OA
ENDROOT
BRANCH   1   2
ATOM      2  S   UNK     1       8.246  -2.361  23.336  0.00  0.00    +0.086 S 
ATOM      3  O   UNK     1       7.555  -1.328  24.082  0.00  0.00    -0.147 OA
ATOM      4  O   UNK     1       7.779  -2.807  22.038  0.00  0.00    -0.147 OA
BRANCH   2   5
ATOM      5  C   UNK     1      10.006  -1.985  23.258  0.00  0.00    +0.233 C 
BRANCH   5   6
ATOM      6  C   UNK     1      10.152  -0.488  23.111  0.00  0.00    -0.024 A 
ATOM      7  C   UNK     1       9.753   0.152  21.928  0.00  0.00    +0.005 A 
ATOM      8  C   UNK     1       9.811   1.545  21.816  0.00  0.00    +0.000 A 
ATOM      9  C   UNK     1      10.268   2.313  22.884  0.00  0.00    +0.000 A 
ATOM     10  C   UNK     1      10.677   1.690  24.061  0.00  0.00    +0.000 A 
ATOM     11  C   UNK     1      10.621   0.297  24.175  0.00  0.00    +0.005 A 
ENDBRANCH   5   6
ENDBRANCH   2   5
ENDBRANCH   1   2
BRANCH   1  12
ATOM     12  C   UNK     1       8.687  -3.406  25.665  0.00  0.00    +0.223 C 
BRANCH  12  13
ATOM     13  C   UNK     1       8.973  -4.687  26.454  0.00  0.00    +0.189 C 
BRANCH  13  14
ATOM     14  N   UNK     1       9.851  -5.650  25.713  0.00  0.00    -0.317 NA
ATOM     15  H   UNK     1      10.366  -5.114  25.004  0.00  0.00    +0.119 HD
ATOM     16  H   UNK     1      10.581  -5.960  26.361  0.00  0.00    +0.119 HD
ENDBRANCH  13  14
BRANCH  13  17
ATOM     17  C   UNK     1       7.663  -5.390  26.827  0.00  0.00    +0.324 C 
ATOM     18  O   UNK     1       7.415  -5.893  27.910  0.00  0.00    -0.249 OA
BRANCH  17  19
ATOM     19  O   UNK     1       6.803  -5.418  25.774  0.00  0.00    -0.479 OA
ATOM     20  H   UNK     1       6.710  -4.478  25.478  0.00  0.00    +0.295 HD
ENDBRANCH  17  19
ENDBRANCH  13  17
ENDBRANCH  12  13
ENDBRANCH   1  12
TORSDOF 8
ENDMDL
MODEL 2
REMARK VINA RESULT:      -5.9      1.413      1.663
REMARK  Name = 
REMARK  8 active torsions:
REMARK  status: ('A' for Active; 'I' for Inactive)
REMARK    1  A    between atoms: N_1  and  C_2
REMARK    2  A    between atoms: C_2  and  C_4
REMARK    3  A    between atoms: C_2  and  C_16
REMARK    4  A    between atoms: C_4  and  O_5
REMARK    5  A    between atoms: O_5  and  S_6
REMARK    6  A    between atoms: S_6  and  C_9
REMARK    7  A    between atoms: C_9  and  C_10
REMARK    8  A    between atoms: C_16  and  O_17
REMARK                            x       y       z     vdW  Elec       q    Type
REMARK                         _______ _______ _______ _____ _____    ______ ____
ROOT
ATOM      1  O   UNK     1       8.800  -2.983  25.054  0.00  0.00    -0.236 OA
ENDROOT
BRANCH   1   2
ATOM      2  S   UNK     1       8.397  -2.237  23.649  0.00  0.00    +0.086 S 
ATOM      3  O   UNK     1       7.715  -1.013  24.019  0.00  0.00    -0.147 OA
ATOM      4  O   UNK     1       7.774  -3.230  22.797  0.00  0.00    -0.147 OA
BRANCH   2   5
ATOM      5  C   UNK     1      10.049  -1.855  23.038  0.00  0.00    +0.233 C 
BRANCH   5   6
ATOM      6  C   UNK     1      10.187  -0.351  22.991  0.00  0.00    -0.024 A 
ATOM      7  C   UNK     1       9.771   0.365  21.858  0.00  0.00    +0.005 A 
ATOM      8  C   UNK     1       9.823   1.762  21.840  0.00  0.00    +0.000 A 
ATOM      9  C   UNK     1      10.289   2.459  22.952  0.00  0.00    +0.000 A 
ATOM     10  C   UNK     1      10.714   1.760  24.080  0.00  0.00    +0.000 A 
ATOM     11  C   UNK     1      10.666   0.362  24.099  0.00  0.00    +0.005 A 
ENDBRANCH   5   6
ENDBRANCH   2   5
ENDBRANCH   1   2
BRANCH   1  12
ATOM     12  C   UNK     1       7.709  -3.614  25.733  0.00  0.00    +0.223 C 
BRANCH  12  13
ATOM     13  C   UNK     1       7.906  -5.127  25.865  0.00  0.00    +0.189 C 
BRANCH  13  14
ATOM     14  N   UNK     1       7.999  -5.585  27.289  0.00  0.00    -0.317 NA
ATOM     15  H   UNK     1       8.967  -5.432  27.598  0.00  0.00    +0.119 HD
ATOM     16  H   UNK     1       7.456  -4.928  27.858  0.00  0.00    +0.119 HD
ENDBRANCH  13  14
BRANCH  13  17
ATOM     17  C   UNK     1       9.166  -5.570  25.114  0.00  0.00    +0.324 C 
ATOM     18  O   UNK     1       9.190  -6.023  23.982  0.00  0.00    -0.249 OA
BRANCH  17  19
ATOM     19  O   UNK     1      10.275  -5.428  25.887  0.00  0.00    -0.479 OA
ATOM     20  H   UNK     1      10.101  -4.642  26.464  0.00  0.00    +0.295 HD
ENDBRANCH  17  19
ENDBRANCH  13  17
ENDBRANCH  12  13
ENDBRANCH   1  12
TORSDOF 8
ENDMDL
MODEL 3
REMARK VINA RESULT:      -5.8      2.556      3.486
REMARK  Name = 
REMARK  8 active torsions:
REMARK  status: ('A' for Active; 'I' for Inactive)
REMARK    1  A    between atoms: N_1  and  C_2
REMARK    2  A    between atoms: C_2  and  C_4
REMARK    3  A    between atoms: C_2  and  C_16
REMARK    4  A    between atoms: C_4  and  O_5
REMARK    5  A    between atoms: O_5  and  S_6
REMARK    6  A    between atoms: S_6  and  C_9
REMARK    7  A    between atoms: C_9  and  C_10
REMARK    8  A    between atoms: C_16  and  O_17
REMARK                            x       y       z     vdW  Elec       q    Type
REMARK                         _______ _______ _______ _____ _____    ______ ____
ROOT
ATOM      1  O   UNK     1       7.912  -2.881  22.204  0.00  0.00    -0.236 OA
ENDROOT
BRANCH   1   2
ATOM      2  S   UNK     1       8.795  -2.667  23.570  0.00  0.00    +0.086 S 
ATOM      3  O   UNK     1       9.068  -3.993  24.091  0.00  0.00    -0.147 OA
ATOM      4  O   UNK     1       8.122  -1.660  24.365  0.00  0.00    -0.147 OA
BRANCH   2   5
ATOM      5  C   UNK     1      10.292  -1.976  22.844  0.00  0.00    +0.233 C 
BRANCH   5   6
ATOM      6  C   UNK     1      10.174  -0.471  22.889  0.00  0.00    -0.024 A 
ATOM      7  C   UNK     1      10.676   0.249  23.984  0.00  0.00    +0.005 A 
ATOM      8  C   UNK     1      10.643   1.647  23.995  0.00  0.00    +0.000 A 
ATOM      9  C   UNK     1      10.108   2.341  22.912  0.00  0.00    +0.000 A 
ATOM     10  C   UNK     1       9.597   1.639  21.823  0.00  0.00    +0.000 A 
ATOM     11  C   UNK     1       9.628   0.241  21.811  0.00  0.00    +0.005 A 
ENDBRANCH   5   6
ENDBRANCH   2   5
ENDBRANCH   1   2
BRANCH   1  12
ATOM     12  C   UNK     1       6.496  -2.750  22.378  0.00  0.00    +0.223 C 
BRANCH  12  13
ATOM     13  C   UNK     1       5.806  -4.105  22.556  0.00  0.00    +0.189 C 
BRANCH  13  14
ATOM     14  N   UNK     1       5.880  -4.623  23.961  0.00  0.00    -0.317 NA
ATOM     15  H   UNK     1       4.916  -4.728  24.299  0.00  0.00    +0.119 HD
ATOM     16  H   UNK     1       6.227  -5.586  23.914  0.00  0.00    +0.119 HD
ENDBRANCH  13  14
BRANCH  13  17
ATOM     17  C   UNK     1       6.417  -5.145  21.608  0.00  0.00    +0.324 C 
ATOM     18  O   UNK     1       6.013  -5.400  20.486  0.00  0.00    -0.249 OA
BRANCH  17  19
ATOM     19  O   UNK     1       7.463  -5.788  22.192  0.00  0.00    -0.479 OA
ATOM     20  H   UNK     1       7.636  -5.304  23.039  0.00  0.00    +0.295 HD
ENDBRANCH  17  19
ENDBRANCH  13  17
ENDBRANCH  12  13
ENDBRANCH   1  12
TORSDOF 8
ENDMDL
MODEL 4
REMARK VINA RESULT:      -5.7      3.805      6.626
REMARK  Name = 
REMARK  8 active torsions:
REMARK  status: ('A' for Active; 'I' for Inactive)
REMARK    1  A    between atoms: N_1  and  C_2
REMARK    2  A    between atoms: C_2  and  C_4
REMARK    3  A    between atoms: C_2  and  C_16
REMARK    4  A    between atoms: C_4  and  O_5
REMARK    5  A    between atoms: O_5  and  S_6
REMARK    6  A    between atoms: S_6  and  C_9
REMARK    7  A    between atoms: C_9  and  C_10
REMARK    8  A    between atoms: C_16  and  O_17
REMARK                            x       y       z     vdW  Elec       q    Type
REMARK                         _______ _______ _______ _____ _____    ______ ____
ROOT
ATOM      1  O   UNK     1      10.700   0.255  23.525  0.00  0.00    -0.236 OA
ENDROOT
BRANCH   1   2
ATOM      2  S   UNK     1       9.887  -0.829  22.600  0.00  0.00    +0.086 S 
ATOM      3  O   UNK     1      10.803  -1.926  22.356  0.00  0.00    -0.147 OA
ATOM      4  O   UNK     1       9.272  -0.093  21.513  0.00  0.00    -0.147 OA
BRANCH   2   5
ATOM      5  C   UNK     1       8.628  -1.337  23.785  0.00  0.00    +0.233 C 
BRANCH   5   6
ATOM      6  C   UNK     1       8.239  -2.761  23.464  0.00  0.00    -0.024 A 
ATOM      7  C   UNK     1       8.618  -3.811  24.315  0.00  0.00    +0.005 A 
ATOM      8  C   UNK     1       8.193  -5.119  24.066  0.00  0.00    +0.000 A 
ATOM      9  C   UNK     1       7.386  -5.394  22.965  0.00  0.00    +0.000 A 
ATOM     10  C   UNK     1       7.011  -4.364  22.106  0.00  0.00    +0.000 A 
ATOM     11  C   UNK     1       7.436  -3.054  22.352  0.00  0.00    +0.005 A 
ENDBRANCH   5   6
ENDBRANCH   2   5
ENDBRANCH   1   2
BRANCH   1  12
ATOM     12  C   UNK     1       9.893   0.952  24.481  0.00  0.00    +0.223 C 
BRANCH  12  13
ATOM     13  C   UNK     1       9.497   2.349  23.996  0.00  0.00    +0.189 C 
BRANCH  13  14
ATOM     14  N   UNK     1       8.187   2.368  23.268  0.00  0.00    -0.317 NA
ATOM     15  H   UNK     1       7.678   1.515  23.529  0.00  0.00    +0.119 HD
ATOM     16  H   UNK     1       7.623   3.122  23.674  0.00  0.00    +0.119 HD
ENDBRANCH  13  14
BRANCH  13  17
ATOM     17  C   UNK     1      10.584   2.927  23.083  0.00  0.00    +0.324 C 
ATOM     18  O   UNK     1      11.492   3.658  23.442  0.00  0.00    -0.249 OA
BRANCH  17  19
ATOM     19  O   UNK     1      10.395   2.548  21.791  0.00  0.00    -0.479 OA
ATOM     20  H   UNK     1      10.436   3.382  21.259  0.00  0.00    +0.295 HD
ENDBRANCH  17  19
ENDBRANCH  13  17
ENDBRANCH  12  13
ENDBRANCH   1  12
TORSDOF 8
ENDMDL
MODEL 5
REMARK VINA RESULT:      -5.6      2.505      3.219
REMARK  Name = 
REMARK  8 active torsions:
REMARK  status: ('A' for Active; 'I' for Inactive)
REMARK    1  A    between atoms: N_1  and  C_2
REMARK    2  A    between atoms: C_2  and  C_4
REMARK    3  A    between atoms: C_2  and  C_16
REMARK    4  A    between atoms: C_4  and  O_5
REMARK    5  A    between atoms: O_5  and  S_6
REMARK    6  A    between atoms: S_6  and  C_9
REMARK    7  A    between atoms: C_9  and  C_10
REMARK    8  A    between atoms: C_16  and  O_17
REMARK                            x       y       z     vdW  Elec       q    Type
REMARK                         _______ _______ _______ _____ _____    ______ ____
ROOT
ATOM      1  O   UNK     1       7.920  -4.103  23.166  0.00  0.00    -0.236 OA
ENDROOT
BRANCH   1   2
ATOM      2  S   UNK     1       8.077  -2.557  23.691  0.00  0.00    +0.086 S 
ATOM      3  O   UNK     1       8.031  -2.610  25.139  0.00  0.00    -0.147 OA
ATOM      4  O   UNK     1       7.149  -1.746  22.928  0.00  0.00    -0.147 OA
BRANCH   2   5
ATOM      5  C   UNK     1       9.764  -2.234  23.146  0.00  0.00    +0.233 C 
BRANCH   5   6
ATOM      6  C   UNK     1       9.972  -0.738  23.148  0.00  0.00    -0.024 A 
ATOM      7  C   UNK     1       9.839  -0.000  21.961  0.00  0.00    +0.005 A 
ATOM      8  C   UNK     1       9.952   1.393  21.972  0.00  0.00    +0.000 A 
ATOM      9  C   UNK     1      10.198   2.065  23.166  0.00  0.00    +0.000 A 
ATOM     10  C   UNK     1      10.343   1.345  24.350  0.00  0.00    +0.000 A 
ATOM     11  C   UNK     1      10.233  -0.049  24.341  0.00  0.00    +0.005 A 
ENDBRANCH   5   6
ENDBRANCH   2   5
ENDBRANCH   1   2
BRANCH   1  12
ATOM     12  C   UNK     1       6.950  -4.882  23.876  0.00  0.00    +0.223 C 
BRANCH  12  13
ATOM     13  C   UNK     1       5.699  -5.153  23.038  0.00  0.00    +0.189 C 
BRANCH  13  14
ATOM     14  N   UNK     1       5.146  -6.532  23.235  0.00  0.00    -0.317 NA
ATOM     15  H   UNK     1       5.113  -6.708  24.246  0.00  0.00    +0.119 HD
ATOM     16  H   UNK     1       4.158  -6.507  22.961  0.00  0.00    +0.119 HD
ENDBRANCH  13  14
BRANCH  13  17
ATOM     17  C   UNK     1       5.996  -4.942  21.549  0.00  0.00    +0.324 C 
ATOM     18  O   UNK     1       6.435  -5.790  20.789  0.00  0.00    -0.249 OA
BRANCH  17  19
ATOM     19  O   UNK     1       5.741  -3.661  21.173  0.00  0.00    -0.479 OA
ATOM     20  H   UNK     1       6.604  -3.301  20.844  0.00  0.00    +0.295 HD
ENDBRANCH  17  19
ENDBRANCH  13  17
ENDBRANCH  12  13
ENDBRANCH   1  12
TORSDOF 8
ENDMDL
MODEL 6
REMARK VINA RESULT:      -5.6      1.155      1.367
REMARK  Name = 
REMARK  8 active torsions:
REMARK  status: ('A' for Active; 'I' for Inactive)
REMARK    1  A    between atoms: N_1  and  C_2
REMARK    2  A    between atoms: C_2  and  C_4
REMARK    3  A    between atoms: C_2  and  C_16
REMARK    4  A    between atoms: C_4  and  O_5
REMARK    5  A    between atoms: O_5  and  S_6
REMARK    6  A    between atoms: S_6  and  C_9
REMARK    7  A    between atoms: C_9  and  C_10
REMARK    8  A    between atoms: C_16  and  O_17
REMARK                            x       y       z     vdW  Elec       q    Type
REMARK                         _______ _______ _______ _____ _____    ______ ____
ROOT
ATOM      1  O   UNK     1       7.821  -2.935  24.951  0.00  0.00    -0.236 OA
ENDROOT
BRANCH   1   2
ATOM      2  S   UNK     1       8.388  -2.726  23.426  0.00  0.00    +0.086 S 
ATOM      3  O   UNK     1       7.851  -3.818  22.637  0.00  0.00    -0.147 OA
ATOM      4  O   UNK     1       9.814  -2.486  23.526  0.00  0.00    -0.147 OA
BRANCH   2   5
ATOM      5  C   UNK     1       7.537  -1.194  23.006  0.00  0.00    +0.233 C 
BRANCH   5   6
ATOM      6  C   UNK     1       8.542  -0.069  23.092  0.00  0.00    -0.024 A 
ATOM      7  C   UNK     1       9.141   0.439  21.929  0.00  0.00    +0.005 A 
ATOM      8  C   UNK     1      10.010   1.532  21.993  0.00  0.00    +0.000 A 
ATOM      9  C   UNK     1      10.290   2.130  23.219  0.00  0.00    +0.000 A 
ATOM     10  C   UNK     1       9.710   1.631  24.383  0.00  0.00    +0.000 A 
ATOM     11  C   UNK     1       8.842   0.535  24.321  0.00  0.00    +0.005 A 
ENDBRANCH   5   6
ENDBRANCH   2   5
ENDBRANCH   1   2
BRANCH   1  12
ATOM     12  C   UNK     1       8.830  -3.166  25.941  0.00  0.00    +0.223 C 
BRANCH  12  13
ATOM     13  C   UNK     1       9.069  -4.658  26.187  0.00  0.00    +0.189 C 
BRANCH  13  14
ATOM     14  N   UNK     1       9.654  -5.364  25.000  0.00  0.00    -0.317 NA
ATOM     15  H   UNK     1       9.096  -6.211  24.842  0.00  0.00    +0.119 HD
ATOM     16  H   UNK     1       9.460  -4.787  24.175  0.00  0.00    +0.119 HD
ENDBRANCH  13  14
BRANCH  13  17
ATOM     17  C   UNK     1       7.761  -5.351  26.585  0.00  0.00    +0.324 C 
ATOM     18  O   UNK     1       7.494  -5.768  27.699  0.00  0.00    -0.249 OA
BRANCH  17  19
ATOM     19  O   UNK     1       6.928  -5.480  25.517  0.00  0.00    -0.479 OA
ATOM     20  H   UNK     1       7.516  -5.636  24.736  0.00  0.00    +0.295 HD
ENDBRANCH  17  19
ENDBRANCH  13  17
ENDBRANCH  12  13
ENDBRANCH   1  12
TORSDOF 8
ENDMDL
MODEL 7
REMARK VINA RESULT:      -5.5      3.729      6.338
REMARK  Name = 
REMARK  8 active torsions:
REMARK  status: ('A' for Active; 'I' for Inactive)
REMARK    1  A    between atoms: N_1  and  C_2
REMARK    2  A    between atoms: C_2  and  C_4
REMARK    3  A    between atoms: C_2  and  C_16
REMARK    4  A    between atoms: C_4  and  O_5
REMARK    5  A    between atoms: O_5  and  S_6
REMARK    6  A    between atoms: S_6  and  C_9
REMARK    7  A    between atoms: C_9  and  C_10
REMARK    8  A    between atoms: C_16  and  O_17
REMARK                            x       y       z     vdW  Elec       q    Type
REMARK                         _______ _______ _______ _____ _____    ______ ____
ROOT
ATOM      1  O   UNK     1      10.279  -1.013  23.367  0.00  0.00    -0.236 OA
ENDROOT
BRANCH   1   2
ATOM      2  S   UNK     1       9.287  -2.235  23.832  0.00  0.00    +0.086 S 
ATOM      3  O   UNK     1       8.421  -1.689  24.859  0.00  0.00    -0.147 OA
ATOM      4  O   UNK     1      10.119  -3.396  24.073  0.00  0.00    -0.147 OA
BRANCH   2   5
ATOM      5  C   UNK     1       8.358  -2.453  22.303  0.00  0.00    +0.233 C 
BRANCH   5   6
ATOM      6  C   UNK     1       7.224  -3.410  22.585  0.00  0.00    -0.024 A 
ATOM      7  C   UNK     1       5.931  -2.924  22.837  0.00  0.00    +0.005 A 
ATOM      8  C   UNK     1       4.861  -3.806  23.018  0.00  0.00    +0.000 A 
ATOM      9  C   UNK     1       5.070  -5.181  22.951  0.00  0.00    +0.000 A 
ATOM     10  C   UNK     1       6.350  -5.677  22.711  0.00  0.00    +0.000 A 
ATOM     11  C   UNK     1       7.422  -4.797  22.531  0.00  0.00    +0.005 A 
ENDBRANCH   5   6
ENDBRANCH   2   5
ENDBRANCH   1   2
BRANCH   1  12
ATOM     12  C   UNK     1       9.819  -0.264  22.235  0.00  0.00    +0.223 C 
BRANCH  12  13
ATOM     13  C   UNK     1       9.453   1.176  22.604  0.00  0.00    +0.189 C 
BRANCH  13  14
ATOM     14  N   UNK     1       9.796   2.163  21.529  0.00  0.00    -0.317 NA
ATOM     15  H   UNK     1       9.066   2.097  20.809  0.00  0.00    +0.119 HD
ATOM     16  H   UNK     1       9.665   3.101  21.922  0.00  0.00    +0.119 HD
ENDBRANCH  13  14
BRANCH  13  17
ATOM     17  C   UNK     1      10.152   1.590  23.903  0.00  0.00    +0.324 C 
ATOM     18  O   UNK     1      11.220   2.174  23.975  0.00  0.00    -0.249 OA
BRANCH  17  19
ATOM     19  O   UNK     1       9.443   1.190  24.992  0.00  0.00    -0.479 OA
ATOM     20  H   UNK     1       8.590   1.691  24.956  0.00  0.00    +0.295 HD
ENDBRANCH  17  19
ENDBRANCH  13  17
ENDBRANCH  12  13
ENDBRANCH   1  12
TORSDOF 8
ENDMDL
MODEL 8
REMARK VINA RESULT:      -5.4      1.397      2.039
REMARK  Name = 
REMARK  8 active torsions:
REMARK  status: ('A' for Active; 'I' for Inactive)
REMARK    1  A    between atoms: N_1  and  C_2
REMARK    2  A    between atoms: C_2  and  C_4
REMARK    3  A    between atoms: C_2  and  C_16
REMARK    4  A    between atoms: C_4  and  O_5
REMARK    5  A    between atoms: O_5  and  S_6
REMARK    6  A    between atoms: S_6  and  C_9
REMARK    7  A    between atoms: C_9  and  C_10
REMARK    8  A    between atoms: C_16  and  O_17
REMARK                            x       y       z     vdW  Elec       q    Type
REMARK                         _______ _______ _______ _____ _____    ______ ____
ROOT
ATOM      1  O   UNK     1       9.879  -2.966  23.886  0.00  0.00    -0.236 OA
ENDROOT
BRANCH   1   2
ATOM      2  S   UNK     1       9.345  -1.677  23.024  0.00  0.00    +0.086 S 
ATOM      3  O   UNK     1       7.963  -1.471  23.412  0.00  0.00    -0.147 OA
ATOM      4  O   UNK     1       9.726  -1.894  21.643  0.00  0.00    -0.147 OA
BRANCH   2   5
ATOM      5  C   UNK     1      10.380  -0.392  23.750  0.00  0.00    +0.233 C 
BRANCH   5   6
ATOM      6  C   UNK     1       9.656   0.925  23.597  0.00  0.00    -0.024 A 
ATOM      7  C   UNK     1       9.288   1.669  24.729  0.00  0.00    +0.005 A 
ATOM      8  C   UNK     1       8.690   2.925  24.593  0.00  0.00    +0.000 A 
ATOM      9  C   UNK     1       8.453   3.453  23.326  0.00  0.00    +0.000 A 
ATOM     10  C   UNK     1       8.804   2.721  22.194  0.00  0.00    +0.000 A 
ATOM     11  C   UNK     1       9.401   1.462  22.328  0.00  0.00    +0.005 A 
ENDBRANCH   5   6
ENDBRANCH   2   5
ENDBRANCH   1   2
BRANCH   1  12
ATOM     12  C   UNK     1       8.861  -3.901  24.262  0.00  0.00    +0.223 C 
BRANCH  12  13
ATOM     13  C   UNK     1       9.175  -4.596  25.590  0.00  0.00    +0.189 C 
BRANCH  13  14
ATOM     14  N   UNK     1      10.302  -5.579  25.487  0.00  0.00    -0.317 NA
ATOM     15  H   UNK     1      10.207  -6.062  24.585  0.00  0.00    +0.119 HD
ATOM     16  H   UNK     1      11.168  -5.040  25.383  0.00  0.00    +0.119 HD
ENDBRANCH  13  14
BRANCH  13  17
ATOM     17  C   UNK     1       7.932  -5.316  26.123  0.00  0.00    +0.324 C 
ATOM     18  O   UNK     1       6.873  -5.433  25.528  0.00  0.00    -0.249 OA
BRANCH  17  19
ATOM     19  O   UNK     1       8.140  -5.791  27.380  0.00  0.00    -0.479 OA
ATOM     20  H   UNK     1       8.861  -6.465  27.296  0.00  0.00    +0.295 HD
ENDBRANCH  17  19
ENDBRANCH  13  17
ENDBRANCH  12  13
ENDBRANCH   1  12
TORSDOF 8
ENDMDL
MODEL 9
REMARK VINA RESULT:      -5.4      1.560      2.190
REMARK  Name = 
REMARK  8 active torsions:
REMARK  status: ('A' for Active; 'I' for Inactive)
REMARK    1  A    between atoms: N_1  and  C_2
REMARK    2  A    between atoms: C_2  and  C_4
REMARK    3  A    between atoms: C_2  and  C_16
REMARK    4  A    between atoms: C_4  and  O_5
REMARK    5  A    between atoms: O_5  and  S_6
REMARK    6  A    between atoms: S_6  and  C_9
REMARK    7  A    between atoms: C_9  and  C_10
REMARK    8  A    between atoms: C_16  and  O_17
REMARK                            x       y       z     vdW  Elec       q    Type
REMARK                         _______ _______ _______ _____ _____    ______ ____
ROOT
ATOM      1  O   UNK     1       8.328  -3.076  24.810  0.00  0.00    -0.236 OA
ENDROOT
BRANCH   1   2
ATOM      2  S   UNK     1       9.419  -2.159  23.997  0.00  0.00    +0.086 S 
ATOM      3  O   UNK     1      10.527  -3.037  23.671  0.00  0.00    -0.147 OA
ATOM      4  O   UNK     1       9.610  -0.941  24.758  0.00  0.00    -0.147 OA
BRANCH   2   5
ATOM      5  C   UNK     1       8.459  -1.811  22.513  0.00  0.00    +0.233 C 
BRANCH   5   6
ATOM      6  C   UNK     1       8.345  -0.311  22.377  0.00  0.00    -0.024 A 
ATOM      7  C   UNK     1       9.362   0.425  21.750  0.00  0.00    +0.005 A 
ATOM      8  C   UNK     1       9.226   1.802  21.551  0.00  0.00    +0.000 A 
ATOM      9  C   UNK     1       8.073   2.459  21.974  0.00  0.00    +0.000 A 
ATOM     10  C   UNK     1       7.060   1.743  22.608  0.00  0.00    +0.000 A 
ATOM     11  C   UNK     1       7.195   0.365  22.810  0.00  0.00    +0.005 A 
ENDBRANCH   5   6
ENDBRANCH   2   5
ENDBRANCH   1   2
BRANCH   1  12
ATOM     12  C   UNK     1       8.645  -3.305  26.188  0.00  0.00    +0.223 C 
BRANCH  12  13
ATOM     13  C   UNK     1       8.926  -4.782  26.479  0.00  0.00    +0.189 C 
BRANCH  13  14
ATOM     14  N   UNK     1       9.737  -5.448  25.409  0.00  0.00    -0.317 NA
ATOM     15  H   UNK     1       9.906  -6.415  25.709  0.00  0.00    +0.119 HD
ATOM     16  H   UNK     1       9.133  -5.550  24.587  0.00  0.00    +0.119 HD
ENDBRANCH  13  14
BRANCH  13  17
ATOM     17  C   UNK     1       7.614  -5.551  26.663  0.00  0.00    +0.324 C 
ATOM     18  O   UNK     1       6.722  -5.635  25.834  0.00  0.00    -0.249 OA
BRANCH  17  19
ATOM     19  O   UNK     1       7.542  -6.113  27.899  0.00  0.00    -0.479 OA
ATOM     20  H   UNK     1       7.611  -5.362  28.540  0.00  0.00    +0.295 HD
ENDBRANCH  17  19
ENDBRANCH  13  17
ENDBRANCH  12  13
ENDBRANCH   1  12
TORSDOF 8
ENDMDL
