MODEL 1
REMARK VINA RESULT:      -7.1      0.000      0.000
REMARK  Name = 
REMARK  6 active torsions:
REMARK  status: ('A' for Active; 'I' for Inactive)
REMARK    1  A    between atoms: C_1  and  C_2
REMARK    2  A    between atoms: C_7  and  C_8
REMARK    3  A    between atoms: C_8  and  C_9
REMARK    4  A    between atoms: C_9  and  N_10
REMARK    5  A    between atoms: C_11  and  C_13
REMARK    6  A    between atoms: C_16  and  C_19
REMARK                            x       y       z     vdW  Elec       q    Type
REMARK                         _______ _______ _______ _____ _____    ______ ____
ROOT
ATOM      1  C   UNL     1       7.571  -3.375  22.194  0.00  0.00    +0.110 C 
ENDROOT
BRANCH   1   2
ATOM      2  N   UNL     1       8.074  -2.029  22.412  0.00  0.00    -0.311 N 
ATOM      3  H   UNL     1       7.403  -1.279  22.318  0.00  0.00    +0.149 HD
ATOM      4  C   UNL     1       9.385  -1.782  22.751  0.00  0.00    +0.244 C 
ATOM      5  O   UNL     1      10.218  -2.669  22.909  0.00  0.00    -0.270 OA
BRANCH   4   6
ATOM      6  C   UNL     1       9.789  -0.354  22.876  0.00  0.00    +0.037 A 
ATOM      7  C   UNL     1      10.339   0.065  24.095  0.00  0.00    +0.014 A 
ATOM      8  C   UNL     1      10.766   1.385  24.264  0.00  0.00    +0.019 A 
ATOM      9  C   UNL     1      10.634   2.303  23.217  0.00  0.00    +0.052 A 
ATOM     10  C   UNL     1      10.062   1.894  22.005  0.00  0.00    +0.019 A 
ATOM     11  C   UNL     1       9.638   0.568  21.833  0.00  0.00    +0.014 A 
BRANCH   9  12
ATOM     12  C   UNL     1      11.086   3.652  23.383  0.00  0.00    +0.099 C 
ATOM     13  N   UNL     1      11.456   4.744  23.526  0.00  0.00    -0.191 NA
ENDBRANCH   9  12
ENDBRANCH   4   6
ENDBRANCH   1   2
BRANCH   1  14
ATOM     14  C   UNL     1       6.487  -3.781  23.195  0.00  0.00    +0.074 C 
BRANCH  14  18
ATOM     15  C   UNL     1       5.838  -4.826  28.060  0.00  0.00    +0.044 C 
ATOM     16  C   UNL     1       6.709  -4.776  26.843  0.00  0.00    -0.046 A 
ATOM     17  C   UNL     1       6.206  -4.294  25.634  0.00  0.00    +0.027 A 
ATOM     18  C   UNL     1       7.028  -4.296  24.509  0.00  0.00    +0.045 A 
ATOM     19  N   UNL     1       8.319  -4.712  24.554  0.00  0.00    -0.237 NA
ATOM     20  C   UNL     1       8.795  -5.166  25.725  0.00  0.00    +0.117 A 
ATOM     21  N   UNL     1      10.101  -5.652  25.719  0.00  0.00    -0.343 N 
ATOM     22  H   UNL     1      10.499  -5.431  24.811  0.00  0.00    +0.144 HD
ATOM     23  H   UNL     1      10.650  -5.266  26.479  0.00  0.00    +0.144 HD
ATOM     24  C   UNL     1       8.028  -5.230  26.878  0.00  0.00    +0.046 A 
ENDBRANCH  14  18
ENDBRANCH   1  14
TORSDOF 5
ENDMDL
MODEL 2
REMARK VINA RESULT:      -6.9      1.897      2.615
REMARK  Name = 
REMARK  6 active torsions:
REMARK  status: ('A' for Active; 'I' for Inactive)
REMARK    1  A    between atoms: C_1  and  C_2
REMARK    2  A    between atoms: C_7  and  C_8
REMARK    3  A    between atoms: C_8  and  C_9
REMARK    4  A    between atoms: C_9  and  N_10
REMARK    5  A    between atoms: C_11  and  C_13
REMARK    6  A    between atoms: C_16  and  C_19
REMARK                            x       y       z     vdW  Elec       q    Type
REMARK                         _______ _______ _______ _____ _____    ______ ____
ROOT
ATOM      1  C   UNL     1       9.258  -4.316  24.534  0.00  0.00    +0.110 C 
ENDROOT
BRANCH   1   2
ATOM      2  N   UNL     1       9.662  -2.931  24.360  0.00  0.00    -0.311 N 
ATOM      3  H   UNL     1      10.285  -2.554  25.063  0.00  0.00    +0.149 HD
ATOM      4  C   UNL     1       9.246  -2.174  23.289  0.00  0.00    +0.244 C 
ATOM      5  O   UNL     1       8.521  -2.607  22.399  0.00  0.00    -0.270 OA
BRANCH   4   6
ATOM      6  C   UNL     1       9.675  -0.748  23.268  0.00  0.00    +0.037 A 
ATOM      7  C   UNL     1      10.189  -0.203  24.453  0.00  0.00    +0.014 A 
ATOM      8  C   UNL     1      10.637   1.120  24.490  0.00  0.00    +0.019 A 
ATOM      9  C   UNL     1      10.562   1.916  23.342  0.00  0.00    +0.052 A 
ATOM     10  C   UNL     1      10.026   1.383  22.163  0.00  0.00    +0.019 A 
ATOM     11  C   UNL     1       9.581   0.054  22.124  0.00  0.00    +0.014 A 
BRANCH   9  12
ATOM     12  C   UNL     1      11.036   3.268  23.374  0.00  0.00    +0.099 C 
ATOM     13  N   UNL     1      11.419   4.364  23.409  0.00  0.00    -0.191 NA
ENDBRANCH   9  12
ENDBRANCH   4   6
ENDBRANCH   1   2
BRANCH   1  14
ATOM     14  C   UNL     1       8.540  -4.572  25.860  0.00  0.00    +0.074 C 
BRANCH  14  18
ATOM     15  C   UNL     1       4.508  -5.663  23.078  0.00  0.00    +0.044 C 
ATOM     16  C   UNL     1       5.259  -5.741  24.372  0.00  0.00    -0.046 A 
ATOM     17  C   UNL     1       6.499  -5.117  24.507  0.00  0.00    +0.027 A 
ATOM     18  C   UNL     1       7.192  -5.239  25.709  0.00  0.00    +0.045 A 
ATOM     19  N   UNL     1       6.685  -5.911  26.774  0.00  0.00    -0.237 NA
ATOM     20  C   UNL     1       5.486  -6.501  26.636  0.00  0.00    +0.117 A 
ATOM     21  N   UNL     1       5.027  -7.241  27.723  0.00  0.00    -0.343 N 
ATOM     22  H   UNL     1       5.666  -7.068  28.495  0.00  0.00    +0.144 HD
ATOM     23  H   UNL     1       4.070  -7.007  27.962  0.00  0.00    +0.144 HD
ATOM     24  C   UNL     1       4.754  -6.454  25.459  0.00  0.00    +0.046 A 
ENDBRANCH  14  18
ENDBRANCH   1  14
TORSDOF 5
ENDMDL
MODEL 3
REMARK VINA RESULT:      -6.7      1.866      2.458
REMARK  Name = 
REMARK  6 active torsions:
REMARK  status: ('A' for Active; 'I' for Inactive)
REMARK    1  A    between atoms: C_1  and  C_2
REMARK    2  A    between atoms: C_7  and  C_8
REMARK    3  A    between atoms: C_8  and  C_9
REMARK    4  A    between atoms: C_9  and  N_10
REMARK    5  A    between atoms: C_11  and  C_13
REMARK    6  A    between atoms: C_16  and  C_19
REMARK                            x       y       z     vdW  Elec       q    Type
REMARK                         _______ _______ _______ _____ _____    ______ ____
ROOT
ATOM      1  C   UNL     1       9.114  -4.093  24.332  0.00  0.00    +0.110 C 
ENDROOT
BRANCH   1   2
ATOM      2  N   UNL     1       9.547  -2.713  24.199  0.00  0.00    -0.311 N 
ATOM      3  H   UNL     1      10.122  -2.350  24.948  0.00  0.00    +0.149 HD
ATOM      4  C   UNL     1       9.219  -1.942  23.107  0.00  0.00    +0.244 C 
ATOM      5  O   UNL     1       8.554  -2.358  22.165  0.00  0.00    -0.270 OA
BRANCH   4   6
ATOM      6  C   UNL     1       9.666  -0.521  23.130  0.00  0.00    +0.037 A 
ATOM      7  C   UNL     1      10.217  -0.029  24.321  0.00  0.00    +0.014 A 
ATOM      8  C   UNL     1      10.685   1.286  24.396  0.00  0.00    +0.019 A 
ATOM      9  C   UNL     1      10.592   2.126  23.282  0.00  0.00    +0.052 A 
ATOM     10  C   UNL     1      10.018   1.646  22.098  0.00  0.00    +0.019 A 
ATOM     11  C   UNL     1       9.554   0.324  22.019  0.00  0.00    +0.014 A 
BRANCH   9  12
ATOM     12  C   UNL     1      11.084   3.470  23.353  0.00  0.00    +0.099 C 
ATOM     13  N   UNL     1      11.482   4.560  23.403  0.00  0.00    -0.191 NA
ENDBRANCH   9  12
ENDBRANCH   4   6
ENDBRANCH   1   2
BRANCH   1  14
ATOM     14  C   UNL     1       7.998  -4.278  25.362  0.00  0.00    +0.074 C 
BRANCH  14  18
ATOM     15  C   UNL     1       3.838  -6.936  26.270  0.00  0.00    +0.044 C 
ATOM     16  C   UNL     1       4.851  -6.387  25.312  0.00  0.00    -0.046 A 
ATOM     17  C   UNL     1       5.928  -5.633  25.780  0.00  0.00    +0.027 A 
ATOM     18  C   UNL     1       6.832  -5.102  24.863  0.00  0.00    +0.045 A 
ATOM     19  N   UNL     1       6.728  -5.325  23.528  0.00  0.00    -0.237 NA
ATOM     20  C   UNL     1       5.692  -6.059  23.090  0.00  0.00    +0.117 A 
ATOM     21  N   UNL     1       5.576  -6.210  21.710  0.00  0.00    -0.343 N 
ATOM     22  H   UNL     1       6.419  -5.824  21.294  0.00  0.00    +0.144 HD
ATOM     23  H   UNL     1       5.430  -7.178  21.447  0.00  0.00    +0.144 HD
ATOM     24  C   UNL     1       4.732  -6.590  23.938  0.00  0.00    +0.046 A 
ENDBRANCH  14  18
ENDBRANCH   1  14
TORSDOF 5
ENDMDL
MODEL 4
REMARK VINA RESULT:      -6.6      2.117      8.450
REMARK  Name = 
REMARK  6 active torsions:
REMARK  status: ('A' for Active; 'I' for Inactive)
REMARK    1  A    between atoms: C_1  and  C_2
REMARK    2  A    between atoms: C_7  and  C_8
REMARK    3  A    between atoms: C_8  and  C_9
REMARK    4  A    between atoms: C_9  and  N_10
REMARK    5  A    between atoms: C_11  and  C_13
REMARK    6  A    between atoms: C_16  and  C_19
REMARK                            x       y       z     vdW  Elec       q    Type
REMARK                         _______ _______ _______ _____ _____    ______ ____
ROOT
ATOM      1  C   UNL     1      10.652   1.034  24.435  0.00  0.00    +0.110 C 
ENDROOT
BRANCH   1   2
ATOM      2  N   UNL     1       9.861  -0.117  24.837  0.00  0.00    -0.311 N 
ATOM      3  H   UNL     1       9.315  -0.013  25.682  0.00  0.00    +0.149 HD
ATOM      4  C   UNL     1       9.831  -1.279  24.101  0.00  0.00    +0.244 C 
ATOM      5  O   UNL     1      10.450  -1.429  23.053  0.00  0.00    -0.270 OA
BRANCH   4   6
ATOM      6  C   UNL     1       9.036  -2.408  24.661  0.00  0.00    +0.037 A 
ATOM      7  C   UNL     1       8.468  -2.239  25.932  0.00  0.00    +0.014 A 
ATOM      8  C   UNL     1       7.686  -3.249  26.499  0.00  0.00    +0.019 A 
ATOM      9  C   UNL     1       7.476  -4.445  25.804  0.00  0.00    +0.052 A 
ATOM     10  C   UNL     1       8.063  -4.627  24.546  0.00  0.00    +0.019 A 
ATOM     11  C   UNL     1       8.844  -3.612  23.973  0.00  0.00    +0.014 A 
BRANCH   9  12
ATOM     12  C   UNL     1       6.662  -5.475  26.378  0.00  0.00    +0.099 C 
ATOM     13  N   UNL     1       6.000  -6.305  26.849  0.00  0.00    -0.191 NA
ENDBRANCH   9  12
ENDBRANCH   4   6
ENDBRANCH   1   2
BRANCH   1  14
ATOM     14  C   UNL     1       9.884   2.010  23.542  0.00  0.00    +0.074 C 
BRANCH  14  18
ATOM     15  C   UNL     1       9.048   6.869  24.482  0.00  0.00    +0.044 C 
ATOM     16  C   UNL     1       9.964   5.762  24.058  0.00  0.00    -0.046 A 
ATOM     17  C   UNL     1       9.497   4.450  23.981  0.00  0.00    +0.027 A 
ATOM     18  C   UNL     1      10.382   3.436  23.621  0.00  0.00    +0.045 A 
ATOM     19  N   UNL     1      11.677   3.682  23.303  0.00  0.00    -0.237 NA
ATOM     20  C   UNL     1      12.115   4.950  23.373  0.00  0.00    +0.117 A 
ATOM     21  N   UNL     1      13.466   5.158  23.108  0.00  0.00    -0.343 N 
ATOM     22  H   UNL     1      13.844   4.278  22.767  0.00  0.00    +0.144 HD
ATOM     23  H   UNL     1      13.610   5.915  22.449  0.00  0.00    +0.144 HD
ATOM     24  C   UNL     1      11.304   6.007  23.758  0.00  0.00    +0.046 A 
ENDBRANCH  14  18
ENDBRANCH   1  14
TORSDOF 5
ENDMDL
MODEL 5
REMARK VINA RESULT:      -6.5      2.318      2.899
REMARK  Name = 
REMARK  6 active torsions:
REMARK  status: ('A' for Active; 'I' for Inactive)
REMARK    1  A    between atoms: C_1  and  C_2
REMARK    2  A    between atoms: C_7  and  C_8
REMARK    3  A    between atoms: C_8  and  C_9
REMARK    4  A    between atoms: C_9  and  N_10
REMARK    5  A    between atoms: C_11  and  C_13
REMARK    6  A    between atoms: C_16  and  C_19
REMARK                            x       y       z     vdW  Elec       q    Type
REMARK                         _______ _______ _______ _____ _____    ______ ____
ROOT
ATOM      1  C   UNL     1       7.605  -3.848  22.860  0.00  0.00    +0.110 C 
ENDROOT
BRANCH   1   2
ATOM      2  N   UNL     1       8.083  -2.477  22.925  0.00  0.00    -0.311 N 
ATOM      3  H   UNL     1       7.430  -1.761  22.638  0.00  0.00    +0.149 HD
ATOM      4  C   UNL     1       9.345  -2.161  23.375  0.00  0.00    +0.244 C 
ATOM      5  O   UNL     1      10.151  -3.000  23.764  0.00  0.00    -0.270 OA
BRANCH   4   6
ATOM      6  C   UNL     1       9.735  -0.725  23.323  0.00  0.00    +0.037 A 
ATOM      7  C   UNL     1      10.187  -0.128  24.509  0.00  0.00    +0.014 A 
ATOM      8  C   UNL     1      10.597   1.208  24.519  0.00  0.00    +0.019 A 
ATOM      9  C   UNL     1      10.547   1.964  23.343  0.00  0.00    +0.052 A 
ATOM     10  C   UNL     1      10.073   1.379  22.163  0.00  0.00    +0.019 A 
ATOM     11  C   UNL     1       9.666   0.036  22.150  0.00  0.00    +0.014 A 
BRANCH   9  12
ATOM     12  C   UNL     1      10.982   3.329  23.349  0.00  0.00    +0.099 C 
ATOM     13  N   UNL     1      11.336   4.436  23.362  0.00  0.00    -0.191 NA
ENDBRANCH   9  12
ENDBRANCH   4   6
ENDBRANCH   1   2
BRANCH   1  14
ATOM     14  C   UNL     1       6.151  -3.957  22.397  0.00  0.00    +0.074 C 
BRANCH  14  18
ATOM     15  C   UNL     1       5.293  -6.462  26.661  0.00  0.00    +0.044 C 
ATOM     16  C   UNL     1       4.932  -6.140  25.243  0.00  0.00    -0.046 A 
ATOM     17  C   UNL     1       5.704  -5.243  24.504  0.00  0.00    +0.027 A 
ATOM     18  C   UNL     1       5.322  -4.934  23.201  0.00  0.00    +0.045 A 
ATOM     19  N   UNL     1       4.245  -5.505  22.605  0.00  0.00    -0.237 NA
ATOM     20  C   UNL     1       3.514  -6.373  23.323  0.00  0.00    +0.117 A 
ATOM     21  N   UNL     1       2.375  -6.887  22.706  0.00  0.00    -0.343 N 
ATOM     22  H   UNL     1       2.399  -6.588  21.735  0.00  0.00    +0.144 HD
ATOM     23  H   UNL     1       2.322  -7.896  22.792  0.00  0.00    +0.144 HD
ATOM     24  C   UNL     1       3.809  -6.703  24.637  0.00  0.00    +0.046 A 
ENDBRANCH  14  18
ENDBRANCH   1  14
TORSDOF 5
ENDMDL
MODEL 6
REMARK VINA RESULT:      -6.4      1.786      2.378
REMARK  Name = 
REMARK  6 active torsions:
REMARK  status: ('A' for Active; 'I' for Inactive)
REMARK    1  A    between atoms: C_1  and  C_2
REMARK    2  A    between atoms: C_7  and  C_8
REMARK    3  A    between atoms: C_8  and  C_9
REMARK    4  A    between atoms: C_9  and  N_10
REMARK    5  A    between atoms: C_11  and  C_13
REMARK    6  A    between atoms: C_16  and  C_19
REMARK                            x       y       z     vdW  Elec       q    Type
REMARK                         _______ _______ _______ _____ _____    ______ ____
ROOT
ATOM      1  C   UNL     1       9.670  -1.757  22.583  0.00  0.00    +0.110 C 
ENDROOT
BRANCH   1   2
ATOM      2  N   UNL     1       9.553  -0.324  22.792  0.00  0.00    -0.311 N 
ATOM      3  H   UNL     1       9.296   0.227  21.984  0.00  0.00    +0.149 HD
ATOM      4  C   UNL     1       9.753   0.256  24.023  0.00  0.00    +0.244 C 
ATOM      5  O   UNL     1      10.030  -0.383  25.033  0.00  0.00    -0.270 OA
BRANCH   4   6
ATOM      6  C   UNL     1       9.673   1.743  24.086  0.00  0.00    +0.037 A 
ATOM      7  C   UNL     1       8.605   2.309  24.796  0.00  0.00    +0.014 A 
ATOM      8  C   UNL     1       8.491   3.697  24.918  0.00  0.00    +0.019 A 
ATOM      9  C   UNL     1       9.438   4.532  24.318  0.00  0.00    +0.052 A 
ATOM     10  C   UNL     1      10.493   3.970  23.586  0.00  0.00    +0.019 A 
ATOM     11  C   UNL     1      10.611   2.578  23.468  0.00  0.00    +0.014 A 
BRANCH   9  12
ATOM     12  C   UNL     1       9.331   5.954  24.455  0.00  0.00    +0.099 C 
ATOM     13  N   UNL     1       9.253   7.108  24.567  0.00  0.00    -0.191 NA
ENDBRANCH   9  12
ENDBRANCH   4   6
ENDBRANCH   1   2
BRANCH   1  14
ATOM     14  C   UNL     1       8.323  -2.482  22.608  0.00  0.00    +0.074 C 
BRANCH  14  18
ATOM     15  C   UNL     1       5.448  -5.087  25.791  0.00  0.00    +0.044 C 
ATOM     16  C   UNL     1       6.798  -4.712  25.263  0.00  0.00    -0.046 A 
ATOM     17  C   UNL     1       6.919  -3.783  24.230  0.00  0.00    +0.027 A 
ATOM     18  C   UNL     1       8.185  -3.482  23.733  0.00  0.00    +0.045 A 
ATOM     19  N   UNL     1       9.315  -4.031  24.246  0.00  0.00    -0.237 NA
ATOM     20  C   UNL     1       9.188  -4.918  25.247  0.00  0.00    +0.117 A 
ATOM     21  N   UNL     1      10.361  -5.515  25.702  0.00  0.00    -0.343 N 
ATOM     22  H   UNL     1      11.136  -5.037  25.252  0.00  0.00    +0.144 HD
ATOM     23  H   UNL     1      10.432  -5.486  26.713  0.00  0.00    +0.144 HD
ATOM     24  C   UNL     1       7.960  -5.295  25.769  0.00  0.00    +0.046 A 
ENDBRANCH  14  18
ENDBRANCH   1  14
TORSDOF 5
ENDMDL
MODEL 7
REMARK VINA RESULT:      -6.3      2.434      8.082
REMARK  Name = 
REMARK  6 active torsions:
REMARK  status: ('A' for Active; 'I' for Inactive)
REMARK    1  A    between atoms: C_1  and  C_2
REMARK    2  A    between atoms: C_7  and  C_8
REMARK    3  A    between atoms: C_8  and  C_9
REMARK    4  A    between atoms: C_9  and  N_10
REMARK    5  A    between atoms: C_11  and  C_13
REMARK    6  A    between atoms: C_16  and  C_19
REMARK                            x       y       z     vdW  Elec       q    Type
REMARK                         _______ _______ _______ _____ _____    ______ ____
ROOT
ATOM      1  C   UNL     1       9.691  -1.204  22.131  0.00  0.00    +0.110 C 
ENDROOT
BRANCH   1   2
ATOM      2  N   UNL     1       8.717  -2.254  22.377  0.00  0.00    -0.311 N 
ATOM      3  H   UNL     1       7.916  -2.275  21.761  0.00  0.00    +0.149 HD
ATOM      4  C   UNL     1       8.882  -3.187  23.375  0.00  0.00    +0.244 C 
ATOM      5  O   UNL     1       9.858  -3.215  24.118  0.00  0.00    -0.270 OA
BRANCH   4   6
ATOM      6  C   UNL     1       7.775  -4.166  23.568  0.00  0.00    +0.037 A 
ATOM      7  C   UNL     1       7.347  -4.417  24.879  0.00  0.00    +0.014 A 
ATOM      8  C   UNL     1       6.292  -5.301  25.123  0.00  0.00    +0.019 A 
ATOM      9  C   UNL     1       5.665  -5.953  24.057  0.00  0.00    +0.052 A 
ATOM     10  C   UNL     1       6.107  -5.724  22.748  0.00  0.00    +0.019 A 
ATOM     11  C   UNL     1       7.161  -4.833  22.501  0.00  0.00    +0.014 A 
BRANCH   9  12
ATOM     12  C   UNL     1       4.573  -6.848  24.305  0.00  0.00    +0.099 C 
ATOM     13  N   UNL     1       3.687  -7.570  24.513  0.00  0.00    -0.191 NA
ENDBRANCH   9  12
ENDBRANCH   4   6
ENDBRANCH   1   2
BRANCH   1  14
ATOM     14  C   UNL     1       9.204  -0.152  21.133  0.00  0.00    +0.074 C 
BRANCH  14  18
ATOM     15  C   UNL     1      10.849   3.832  23.702  0.00  0.00    +0.044 C 
ATOM     16  C   UNL     1       9.751   3.102  22.991  0.00  0.00    -0.046 A 
ATOM     17  C   UNL     1       9.985   1.845  22.434  0.00  0.00    +0.027 A 
ATOM     18  C   UNL     1       8.955   1.207  21.745  0.00  0.00    +0.045 A 
ATOM     19  N   UNL     1       7.716   1.747  21.630  0.00  0.00    -0.237 NA
ATOM     20  C   UNL     1       7.499   2.954  22.177  0.00  0.00    +0.117 A 
ATOM     21  N   UNL     1       6.238   3.511  21.980  0.00  0.00    -0.343 N 
ATOM     22  H   UNL     1       5.658   2.795  21.550  0.00  0.00    +0.144 HD
ATOM     23  H   UNL     1       5.838   3.856  22.845  0.00  0.00    +0.144 HD
ATOM     24  C   UNL     1       8.484   3.667  22.846  0.00  0.00    +0.046 A 
ENDBRANCH  14  18
ENDBRANCH   1  14
TORSDOF 5
ENDMDL
MODEL 8
REMARK VINA RESULT:      -6.3      2.370      8.004
REMARK  Name = 
REMARK  6 active torsions:
REMARK  status: ('A' for Active; 'I' for Inactive)
REMARK    1  A    between atoms: C_1  and  C_2
REMARK    2  A    between atoms: C_7  and  C_8
REMARK    3  A    between atoms: C_8  and  C_9
REMARK    4  A    between atoms: C_9  and  N_10
REMARK    5  A    between atoms: C_11  and  C_13
REMARK    6  A    between atoms: C_16  and  C_19
REMARK                            x       y       z     vdW  Elec       q    Type
REMARK                         _______ _______ _______ _____ _____    ______ ____
ROOT
ATOM      1  C   UNL     1       9.758  -1.435  22.592  0.00  0.00    +0.110 C 
ENDROOT
BRANCH   1   2
ATOM      2  N   UNL     1       8.701  -2.401  22.841  0.00  0.00    -0.311 N 
ATOM      3  H   UNL     1       7.838  -2.262  22.332  0.00  0.00    +0.149 HD
ATOM      4  C   UNL     1       8.865  -3.462  23.702  0.00  0.00    +0.244 C 
ATOM      5  O   UNL     1       9.908  -3.682  24.309  0.00  0.00    -0.270 OA
BRANCH   4   6
ATOM      6  C   UNL     1       7.680  -4.336  23.923  0.00  0.00    +0.037 A 
ATOM      7  C   UNL     1       7.176  -5.044  22.823  0.00  0.00    +0.014 A 
ATOM      8  C   UNL     1       6.085  -5.905  22.972  0.00  0.00    +0.019 A 
ATOM      9  C   UNL     1       5.479  -6.056  24.223  0.00  0.00    +0.052 A 
ATOM     10  C   UNL     1       5.963  -5.331  25.320  0.00  0.00    +0.019 A 
ATOM     11  C   UNL     1       7.061  -4.471  25.173  0.00  0.00    +0.014 A 
BRANCH   9  12
ATOM     12  C   UNL     1       4.371  -6.950  24.380  0.00  0.00    +0.099 C 
ATOM     13  N   UNL     1       3.477  -7.681  24.505  0.00  0.00    -0.191 NA
ENDBRANCH   9  12
ENDBRANCH   4   6
ENDBRANCH   1   2
BRANCH   1  14
ATOM     14  C   UNL     1       9.419  -0.447  21.474  0.00  0.00    +0.074 C 
BRANCH  14  18
ATOM     15  C   UNL     1       6.115   3.225  22.362  0.00  0.00    +0.044 C 
ATOM     16  C   UNL     1       7.521   2.707  22.368  0.00  0.00    -0.046 A 
ATOM     17  C   UNL     1       7.800   1.419  21.909  0.00  0.00    +0.027 A 
ATOM     18  C   UNL     1       9.110   0.950  21.963  0.00  0.00    +0.045 A 
ATOM     19  N   UNL     1      10.138   1.716  22.408  0.00  0.00    -0.237 NA
ATOM     20  C   UNL     1       9.859   2.957  22.840  0.00  0.00    +0.117 A 
ATOM     21  N   UNL     1      10.924   3.691  23.356  0.00  0.00    -0.343 N 
ATOM     22  H   UNL     1      11.772   3.161  23.171  0.00  0.00    +0.144 HD
ATOM     23  H   UNL     1      10.966   4.624  22.962  0.00  0.00    +0.144 HD
ATOM     24  C   UNL     1       8.575   3.481  22.852  0.00  0.00    +0.046 A 
ENDBRANCH  14  18
ENDBRANCH   1  14
TORSDOF 5
ENDMDL
MODEL 9
REMARK VINA RESULT:      -6.1      1.595      2.384
REMARK  Name = 
REMARK  6 active torsions:
REMARK  status: ('A' for Active; 'I' for Inactive)
REMARK    1  A    between atoms: C_1  and  C_2
REMARK    2  A    between atoms: C_7  and  C_8
REMARK    3  A    between atoms: C_8  and  C_9
REMARK    4  A    between atoms: C_9  and  N_10
REMARK    5  A    between atoms: C_11  and  C_13
REMARK    6  A    between atoms: C_16  and  C_19
REMARK                            x       y       z     vdW  Elec       q    Type
REMARK                         _______ _______ _______ _____ _____    ______ ____
ROOT
ATOM      1  C   UNL     1       9.022  -4.099  24.448  0.00  0.00    +0.110 C 
ENDROOT
BRANCH   1   2
ATOM      2  N   UNL     1       9.467  -2.723  24.301  0.00  0.00    -0.311 N 
ATOM      3  H   UNL     1       9.982  -2.333  25.079  0.00  0.00    +0.149 HD
ATOM      4  C   UNL     1       9.228  -1.993  23.159  0.00  0.00    +0.244 C 
ATOM      5  O   UNL     1       8.639  -2.444  22.182  0.00  0.00    -0.270 OA
BRANCH   4   6
ATOM      6  C   UNL     1       9.675  -0.572  23.165  0.00  0.00    +0.037 A 
ATOM      7  C   UNL     1      10.165  -0.047  24.370  0.00  0.00    +0.014 A 
ATOM      8  C   UNL     1      10.628   1.270  24.433  0.00  0.00    +0.019 A 
ATOM      9  C   UNL     1      10.593   2.079  23.293  0.00  0.00    +0.052 A 
ATOM     10  C   UNL     1      10.080   1.567  22.094  0.00  0.00    +0.019 A 
ATOM     11  C   UNL     1       9.620   0.243  22.028  0.00  0.00    +0.014 A 
BRANCH   9  12
ATOM     12  C   UNL     1      11.082   3.425  23.352  0.00  0.00    +0.099 C 
ATOM     13  N   UNL     1      11.475   4.517  23.393  0.00  0.00    -0.191 NA
ENDBRANCH   9  12
ENDBRANCH   4   6
ENDBRANCH   1   2
BRANCH   1  14
ATOM     14  C   UNL     1       9.046  -4.588  25.897  0.00  0.00    +0.074 C 
BRANCH  14  18
ATOM     15  C   UNL     1       5.452  -6.444  28.869  0.00  0.00    +0.044 C 
ATOM     16  C   UNL     1       6.006  -5.332  28.031  0.00  0.00    -0.046 A 
ATOM     17  C   UNL     1       7.219  -5.491  27.361  0.00  0.00    +0.027 A 
ATOM     18  C   UNL     1       7.728  -4.426  26.621  0.00  0.00    +0.045 A 
ATOM     19  N   UNL     1       7.066  -3.248  26.493  0.00  0.00    -0.237 NA
ATOM     20  C   UNL     1       5.895  -3.109  27.137  0.00  0.00    +0.117 A 
ATOM     21  N   UNL     1       5.277  -1.865  27.043  0.00  0.00    -0.343 N 
ATOM     22  H   UNL     1       5.798  -1.321  26.360  0.00  0.00    +0.144 HD
ATOM     23  H   UNL     1       4.297  -1.948  26.795  0.00  0.00    +0.144 HD
ATOM     24  C   UNL     1       5.343  -4.110  27.921  0.00  0.00    +0.046 A 
ENDBRANCH  14  18
ENDBRANCH   1  14
TORSDOF 5
ENDMDL
