MODEL 1
REMARK VINA RESULT:      -5.3      0.000      0.000
REMARK  Name = 
REMARK  17 active torsions:
REMARK  status: ('A' for Active; 'I' for Inactive)
REMARK    1  A    between atoms: O_1  and  C_2
REMARK    2  A    between atoms: C_2  and  C_4
REMARK    3  A    between atoms: C_2  and  C_10
REMARK    4  A    between atoms: C_4  and  O_5
REMARK    5  A    between atoms: O_5  and  P_6
REMARK    6  A    between atoms: P_6  and  O_7
REMARK    7  A    between atoms: P_6  and  O_8
REMARK    8  A    between atoms: C_10  and  O_12
REMARK    9  A    between atoms: C_10  and  C_13
REMARK   10  A    between atoms: C_13  and  O_15
REMARK   11  A    between atoms: C_13  and  C_16
REMARK   12  A    between atoms: C_16  and  O_18
REMARK   13  A    between atoms: C_16  and  C_19
REMARK   14  A    between atoms: C_19  and  O_20
REMARK   15  A    between atoms: O_20  and  P_21
REMARK   16  A    between atoms: P_21  and  O_22
REMARK   17  A    between atoms: P_21  and  O_23
REMARK                            x       y       z     vdW  Elec       q    Type
REMARK                         _______ _______ _______ _____ _____    ______ ____
ROOT
ATOM      1  C   UNL     1       8.603  -1.284  23.599  0.00  0.00    +0.176 C 
ENDROOT
BRANCH   1   2
ATOM      2  O   UNL     1       9.777  -1.006  24.364  0.00  0.00    -0.386 OA
ATOM      3  H   UNL     1       9.575  -1.302  25.284  0.00  0.00    +0.210 HD
ENDBRANCH   1   2
BRANCH   1   4
ATOM      4  C   UNL     1       8.092  -2.729  23.873  0.00  0.00    +0.176 C 
BRANCH   4   5
ATOM      5  O   UNL     1       7.837  -3.443  22.647  0.00  0.00    -0.386 OA
ATOM      6  H   UNL     1       7.184  -4.147  22.857  0.00  0.00    +0.210 HD
ENDBRANCH   4   5
BRANCH   4   7
ATOM      7  C   UNL     1       9.085  -3.547  24.746  0.00  0.00    +0.172 C 
BRANCH   7   8
ATOM      8  O   UNL     1      10.365  -3.627  24.092  0.00  0.00    -0.387 OA
ATOM      9  H   UNL     1      10.337  -4.441  23.544  0.00  0.00    +0.210 HD
ENDBRANCH   7   8
BRANCH   7  10
ATOM     10  C   UNL     1       8.592  -4.969  25.058  0.00  0.00    +0.206 C 
BRANCH  10  11
ATOM     11  O   UNL     1       7.176  -4.925  25.326  0.00  0.00    -0.284 OA
BRANCH  11  12
ATOM     12  P   UNL     1       6.795  -5.120  27.002  0.00  0.00    +0.472 P 
ATOM     13  O   UNL     1       6.454  -5.294  28.502  0.00  0.00    -0.228 OA
BRANCH  12  14
ATOM     14  O   UNL     1       5.923  -6.430  26.570  0.00  0.00    -0.303 OA
ATOM     15  H   UNL     1       5.477  -6.728  27.387  0.00  0.00    +0.222 HD
ENDBRANCH  12  14
BRANCH  12  16
ATOM     16  O   UNL     1       8.240  -5.874  27.096  0.00  0.00    -0.303 OA
ATOM     17  H   UNL     1       8.146  -6.795  27.393  0.00  0.00    +0.222 HD
ENDBRANCH  12  16
ENDBRANCH  11  12
ENDBRANCH  10  11
ENDBRANCH   7  10
ENDBRANCH   4   7
ENDBRANCH   1   4
BRANCH   1  18
ATOM     18  C   UNL     1       8.959  -1.006  22.131  0.00  0.00    +0.172 C 
BRANCH  18  19
ATOM     19  O   UNL     1      10.169  -1.708  21.806  0.00  0.00    -0.387 OA
ATOM     20  H   UNL     1      10.187  -1.759  20.827  0.00  0.00    +0.210 HD
ENDBRANCH  18  19
BRANCH  18  21
ATOM     21  C   UNL     1       9.126   0.511  21.905  0.00  0.00    +0.206 C 
BRANCH  21  22
ATOM     22  O   UNL     1       8.814   1.308  23.056  0.00  0.00    -0.284 OA
BRANCH  22  23
ATOM     23  P   UNL     1       9.965   2.586  23.234  0.00  0.00    +0.472 P 
ATOM     24  O   UNL     1      10.996   3.731  23.392  0.00  0.00    -0.228 OA
BRANCH  23  25
ATOM     25  O   UNL     1      10.928   1.478  23.950  0.00  0.00    -0.303 OA
ATOM     26  H   UNL     1      11.600   1.199  23.300  0.00  0.00    +0.222 HD
ENDBRANCH  23  25
BRANCH  23  27
ATOM     27  O   UNL     1      10.360   2.310  21.676  0.00  0.00    -0.303 OA
ATOM     28  H   UNL     1       9.967   2.963  21.072  0.00  0.00    +0.222 HD
ENDBRANCH  23  27
ENDBRANCH  22  23
ENDBRANCH  21  22
ENDBRANCH  18  21
ENDBRANCH   1  18
TORSDOF 17
ENDMDL
MODEL 2
REMARK VINA RESULT:      -5.2      3.935      7.341
REMARK  Name = 
REMARK  17 active torsions:
REMARK  status: ('A' for Active; 'I' for Inactive)
REMARK    1  A    between atoms: O_1  and  C_2
REMARK    2  A    between atoms: C_2  and  C_4
REMARK    3  A    between atoms: C_2  and  C_10
REMARK    4  A    between atoms: C_4  and  O_5
REMARK    5  A    between atoms: O_5  and  P_6
REMARK    6  A    between atoms: P_6  and  O_7
REMARK    7  A    between atoms: P_6  and  O_8
REMARK    8  A    between atoms: C_10  and  O_12
REMARK    9  A    between atoms: C_10  and  C_13
REMARK   10  A    between atoms: C_13  and  O_15
REMARK   11  A    between atoms: C_13  and  C_16
REMARK   12  A    between atoms: C_16  and  O_18
REMARK   13  A    between atoms: C_16  and  C_19
REMARK   14  A    between atoms: C_19  and  O_20
REMARK   15  A    between atoms: O_20  and  P_21
REMARK   16  A    between atoms: P_21  and  O_22
REMARK   17  A    between atoms: P_21  and  O_23
REMARK                            x       y       z     vdW  Elec       q    Type
REMARK                         _______ _______ _______ _____ _____    ______ ____
ROOT
ATOM      1  C   UNL     1       4.448  -5.997  23.476  0.00  0.00    +0.176 C 
ENDROOT
BRANCH   1   2
ATOM      2  O   UNL     1       3.366  -6.253  22.580  0.00  0.00    -0.386 OA
ATOM      3  H   UNL     1       3.217  -7.229  22.608  0.00  0.00    +0.210 HD
ENDBRANCH   1   2
BRANCH   1   4
ATOM      4  C   UNL     1       5.774  -5.768  22.691  0.00  0.00    +0.176 C 
BRANCH   4   5
ATOM      5  O   UNL     1       5.687  -6.277  21.345  0.00  0.00    -0.386 OA
ATOM      6  H   UNL     1       6.025  -7.199  21.367  0.00  0.00    +0.210 HD
ENDBRANCH   4   5
BRANCH   4   7
ATOM      7  C   UNL     1       6.178  -4.267  22.646  0.00  0.00    +0.172 C 
BRANCH   7   8
ATOM      8  O   UNL     1       5.663  -3.653  21.451  0.00  0.00    -0.387 OA
ATOM      9  H   UNL     1       6.424  -3.580  20.837  0.00  0.00    +0.210 HD
ENDBRANCH   7   8
BRANCH   7  10
ATOM     10  C   UNL     1       7.698  -4.045  22.709  0.00  0.00    +0.206 C 
BRANCH  10  11
ATOM     11  O   UNL     1       8.287  -5.069  23.535  0.00  0.00    -0.284 OA
BRANCH  11  12
ATOM     12  P   UNL     1       8.692  -4.513  25.122  0.00  0.00    +0.472 P 
ATOM     13  O   UNL     1       9.054  -4.016  26.543  0.00  0.00    -0.228 OA
BRANCH  12  14
ATOM     14  O   UNL     1       9.411  -5.959  25.358  0.00  0.00    -0.303 OA
ATOM     15  H   UNL     1      10.235  -5.929  24.834  0.00  0.00    +0.222 HD
ENDBRANCH  12  14
BRANCH  12  16
ATOM     16  O   UNL     1       9.957  -3.787  24.390  0.00  0.00    -0.303 OA
ATOM     17  H   UNL     1      10.477  -4.416  23.863  0.00  0.00    +0.222 HD
ENDBRANCH  12  16
ENDBRANCH  11  12
ENDBRANCH  10  11
ENDBRANCH   7  10
ENDBRANCH   4   7
ENDBRANCH   1   4
BRANCH   1  18
ATOM     18  C   UNL     1       4.492  -7.174  24.461  0.00  0.00    +0.172 C 
BRANCH  18  19
ATOM     19  O   UNL     1       3.311  -7.974  24.282  0.00  0.00    -0.387 OA
ATOM     20  H   UNL     1       3.562  -8.669  23.638  0.00  0.00    +0.210 HD
ENDBRANCH  18  19
BRANCH  18  21
ATOM     21  C   UNL     1       4.584  -6.650  25.909  0.00  0.00    +0.206 C 
BRANCH  21  22
ATOM     22  O   UNL     1       5.928  -6.505  26.389  0.00  0.00    -0.284 OA
BRANCH  22  23
ATOM     23  P   UNL     1       5.926  -5.966  28.032  0.00  0.00    +0.472 P 
ATOM     24  O   UNL     1       5.924  -5.483  29.504  0.00  0.00    -0.228 OA
BRANCH  23  25
ATOM     25  O   UNL     1       5.500  -7.494  28.424  0.00  0.00    -0.303 OA
ATOM     26  H   UNL     1       4.587  -7.641  28.111  0.00  0.00    +0.222 HD
ENDBRANCH  23  25
BRANCH  23  27
ATOM     27  O   UNL     1       7.545  -6.147  27.988  0.00  0.00    -0.303 OA
ATOM     28  H   UNL     1       8.007  -5.315  27.787  0.00  0.00    +0.222 HD
ENDBRANCH  23  27
ENDBRANCH  22  23
ENDBRANCH  21  22
ENDBRANCH  18  21
ENDBRANCH   1  18
TORSDOF 17
ENDMDL
MODEL 3
REMARK VINA RESULT:      -5.2      2.237      6.913
REMARK  Name = 
REMARK  17 active torsions:
REMARK  status: ('A' for Active; 'I' for Inactive)
REMARK    1  A    between atoms: O_1  and  C_2
REMARK    2  A    between atoms: C_2  and  C_4
REMARK    3  A    between atoms: C_2  and  C_10
REMARK    4  A    between atoms: C_4  and  O_5
REMARK    5  A    between atoms: O_5  and  P_6
REMARK    6  A    between atoms: P_6  and  O_7
REMARK    7  A    between atoms: P_6  and  O_8
REMARK    8  A    between atoms: C_10  and  O_12
REMARK    9  A    between atoms: C_10  and  C_13
REMARK   10  A    between atoms: C_13  and  O_15
REMARK   11  A    between atoms: C_13  and  C_16
REMARK   12  A    between atoms: C_16  and  O_18
REMARK   13  A    between atoms: C_16  and  C_19
REMARK   14  A    between atoms: C_19  and  O_20
REMARK   15  A    between atoms: O_20  and  P_21
REMARK   16  A    between atoms: P_21  and  O_22
REMARK   17  A    between atoms: P_21  and  O_23
REMARK                            x       y       z     vdW  Elec       q    Type
REMARK                         _______ _______ _______ _____ _____    ______ ____
ROOT
ATOM      1  C   UNL     1       9.913  -0.238  23.329  0.00  0.00    +0.176 C 
ENDROOT
BRANCH   1   2
ATOM      2  O   UNL     1       8.646  -0.256  23.990  0.00  0.00    -0.386 OA
ATOM      3  H   UNL     1       8.619  -1.102  24.499  0.00  0.00    +0.210 HD
ENDBRANCH   1   2
BRANCH   1   4
ATOM      4  C   UNL     1       9.943   0.858  22.222  0.00  0.00    +0.176 C 
BRANCH   4   5
ATOM      5  O   UNL     1       8.773   0.793  21.381  0.00  0.00    -0.386 OA
ATOM      6  H   UNL     1       8.287  -0.022  21.632  0.00  0.00    +0.210 HD
ENDBRANCH   4   5
BRANCH   4   7
ATOM      7  C   UNL     1      10.069   2.289  22.815  0.00  0.00    +0.172 C 
BRANCH   7   8
ATOM      8  O   UNL     1      10.480   2.217  24.192  0.00  0.00    -0.387 OA
ATOM      9  H   UNL     1      10.095   3.006  24.630  0.00  0.00    +0.210 HD
ENDBRANCH   7   8
BRANCH   7  10
ATOM     10  C   UNL     1       8.768   3.103  22.722  0.00  0.00    +0.206 C 
BRANCH  10  11
ATOM     11  O   UNL     1       7.789   2.521  23.604  0.00  0.00    -0.284 OA
BRANCH  11  12
ATOM     12  P   UNL     1       6.163   2.745  23.058  0.00  0.00    +0.472 P 
ATOM     13  O   UNL     1       4.707   2.946  22.571  0.00  0.00    -0.228 OA
BRANCH  12  14
ATOM     14  O   UNL     1       6.793   3.269  21.647  0.00  0.00    -0.303 OA
ATOM     15  H   UNL     1       6.202   2.919  20.952  0.00  0.00    +0.222 HD
ENDBRANCH  12  14
BRANCH  12  16
ATOM     16  O   UNL     1       6.211   1.151  22.710  0.00  0.00    -0.303 OA
ATOM     17  H   UNL     1       7.064   0.755  22.956  0.00  0.00    +0.222 HD
ENDBRANCH  12  16
ENDBRANCH  11  12
ENDBRANCH  10  11
ENDBRANCH   7  10
ENDBRANCH   4   7
ENDBRANCH   1   4
BRANCH   1  18
ATOM     18  C   UNL     1      10.162  -1.663  22.816  0.00  0.00    +0.172 C 
BRANCH  18  19
ATOM     19  O   UNL     1       9.841  -1.717  21.417  0.00  0.00    -0.387 OA
ATOM     20  H   UNL     1       9.943  -0.798  21.089  0.00  0.00    +0.210 HD
ENDBRANCH  18  19
BRANCH  18  21
ATOM     21  C   UNL     1       9.307  -2.670  23.614  0.00  0.00    +0.206 C 
BRANCH  21  22
ATOM     22  O   UNL     1      10.077  -3.656  24.316  0.00  0.00    -0.284 OA
BRANCH  22  23
ATOM     23  P   UNL     1       9.036  -4.702  25.218  0.00  0.00    +0.472 P 
ATOM     24  O   UNL     1       8.105  -5.639  26.026  0.00  0.00    -0.228 OA
BRANCH  23  25
ATOM     25  O   UNL     1       8.520  -5.262  23.773  0.00  0.00    -0.303 OA
ATOM     26  H   UNL     1       8.184  -6.169  23.905  0.00  0.00    +0.222 HD
ENDBRANCH  23  25
BRANCH  23  27
ATOM     27  O   UNL     1      10.341  -5.658  25.421  0.00  0.00    -0.303 OA
ATOM     28  H   UNL     1      10.455  -6.291  24.691  0.00  0.00    +0.222 HD
ENDBRANCH  23  27
ENDBRANCH  22  23
ENDBRANCH  21  22
ENDBRANCH  18  21
ENDBRANCH   1  18
TORSDOF 17
ENDMDL
MODEL 4
REMARK VINA RESULT:      -5.2      1.895      7.368
REMARK  Name = 
REMARK  17 active torsions:
REMARK  status: ('A' for Active; 'I' for Inactive)
REMARK    1  A    between atoms: O_1  and  C_2
REMARK    2  A    between atoms: C_2  and  C_4
REMARK    3  A    between atoms: C_2  and  C_10
REMARK    4  A    between atoms: C_4  and  O_5
REMARK    5  A    between atoms: O_5  and  P_6
REMARK    6  A    between atoms: P_6  and  O_7
REMARK    7  A    between atoms: P_6  and  O_8
REMARK    8  A    between atoms: C_10  and  O_12
REMARK    9  A    between atoms: C_10  and  C_13
REMARK   10  A    between atoms: C_13  and  O_15
REMARK   11  A    between atoms: C_13  and  C_16
REMARK   12  A    between atoms: C_16  and  O_18
REMARK   13  A    between atoms: C_16  and  C_19
REMARK   14  A    between atoms: C_19  and  O_20
REMARK   15  A    between atoms: O_20  and  P_21
REMARK   16  A    between atoms: P_21  and  O_22
REMARK   17  A    between atoms: P_21  and  O_23
REMARK                            x       y       z     vdW  Elec       q    Type
REMARK                         _______ _______ _______ _____ _____    ______ ____
ROOT
ATOM      1  C   UNL     1       7.632  -2.600  23.363  0.00  0.00    +0.176 C 
ENDROOT
BRANCH   1   2
ATOM      2  O   UNL     1       7.779  -3.360  22.162  0.00  0.00    -0.386 OA
ATOM      3  H   UNL     1       7.363  -4.237  22.345  0.00  0.00    +0.210 HD
ENDBRANCH   1   2
BRANCH   1   4
ATOM      4  C   UNL     1       8.518  -1.319  23.319  0.00  0.00    +0.176 C 
BRANCH   4   5
ATOM      5  O   UNL     1       9.654  -1.430  24.199  0.00  0.00    -0.386 OA
ATOM      6  H   UNL     1       9.336  -1.215  25.103  0.00  0.00    +0.210 HD
ENDBRANCH   4   5
BRANCH   4   7
ATOM      7  C   UNL     1       9.012  -0.997  21.880  0.00  0.00    +0.172 C 
BRANCH   7   8
ATOM      8  O   UNL     1      10.283  -1.630  21.643  0.00  0.00    -0.387 OA
ATOM      9  H   UNL     1      10.083  -2.572  21.453  0.00  0.00    +0.210 HD
ENDBRANCH   7   8
BRANCH   7  10
ATOM     10  C   UNL     1       9.144   0.510  21.606  0.00  0.00    +0.206 C 
BRANCH  10  11
ATOM     11  O   UNL     1       8.787   1.235  22.799  0.00  0.00    -0.284 OA
BRANCH  11  12
ATOM     12  P   UNL     1       9.911   2.489  23.195  0.00  0.00    +0.472 P 
ATOM     13  O   UNL     1      10.916   3.611  23.550  0.00  0.00    -0.228 OA
BRANCH  12  14
ATOM     14  O   UNL     1      10.857   1.327  23.842  0.00  0.00    -0.303 OA
ATOM     15  H   UNL     1      10.439   1.094  24.694  0.00  0.00    +0.222 HD
ENDBRANCH  12  14
BRANCH  12  16
ATOM     16  O   UNL     1      10.425   2.319  21.655  0.00  0.00    -0.303 OA
ATOM     17  H   UNL     1      11.137   2.945  21.443  0.00  0.00    +0.222 HD
ENDBRANCH  12  16
ENDBRANCH  11  12
ENDBRANCH  10  11
ENDBRANCH   7  10
ENDBRANCH   4   7
ENDBRANCH   1   4
BRANCH   1  18
ATOM     18  C   UNL     1       7.951  -3.550  24.526  0.00  0.00    +0.172 C 
BRANCH  18  19
ATOM     19  O   UNL     1       9.106  -4.333  24.184  0.00  0.00    -0.387 OA
ATOM     20  H   UNL     1       9.389  -4.010  23.303  0.00  0.00    +0.210 HD
ENDBRANCH  18  19
BRANCH  18  21
ATOM     21  C   UNL     1       6.739  -4.460  24.815  0.00  0.00    +0.206 C 
BRANCH  21  22
ATOM     22  O   UNL     1       6.472  -5.418  23.780  0.00  0.00    -0.284 OA
BRANCH  22  23
ATOM     23  P   UNL     1       4.816  -5.329  23.290  0.00  0.00    +0.472 P 
ATOM     24  O   UNL     1       3.333  -5.250  22.851  0.00  0.00    -0.228 OA
BRANCH  23  25
ATOM     25  O   UNL     1       5.386  -5.068  21.781  0.00  0.00    -0.303 OA
ATOM     26  H   UNL     1       5.166  -4.150  21.532  0.00  0.00    +0.222 HD
ENDBRANCH  23  25
BRANCH  23  27
ATOM     27  O   UNL     1       4.832  -6.959  23.298  0.00  0.00    -0.303 OA
ATOM     28  H   UNL     1       5.194  -7.332  22.476  0.00  0.00    +0.222 HD
ENDBRANCH  23  27
ENDBRANCH  22  23
ENDBRANCH  21  22
ENDBRANCH  18  21
ENDBRANCH   1  18
TORSDOF 17
ENDMDL
MODEL 5
REMARK VINA RESULT:      -5.2      2.218      3.581
REMARK  Name = 
REMARK  17 active torsions:
REMARK  status: ('A' for Active; 'I' for Inactive)
REMARK    1  A    between atoms: O_1  and  C_2
REMARK    2  A    between atoms: C_2  and  C_4
REMARK    3  A    between atoms: C_2  and  C_10
REMARK    4  A    between atoms: C_4  and  O_5
REMARK    5  A    between atoms: O_5  and  P_6
REMARK    6  A    between atoms: P_6  and  O_7
REMARK    7  A    between atoms: P_6  and  O_8
REMARK    8  A    between atoms: C_10  and  O_12
REMARK    9  A    between atoms: C_10  and  C_13
REMARK   10  A    between atoms: C_13  and  O_15
REMARK   11  A    between atoms: C_13  and  C_16
REMARK   12  A    between atoms: C_16  and  O_18
REMARK   13  A    between atoms: C_16  and  C_19
REMARK   14  A    between atoms: C_19  and  O_20
REMARK   15  A    between atoms: O_20  and  P_21
REMARK   16  A    between atoms: P_21  and  O_22
REMARK   17  A    between atoms: P_21  and  O_23
REMARK                            x       y       z     vdW  Elec       q    Type
REMARK                         _______ _______ _______ _____ _____    ______ ____
ROOT
ATOM      1  C   UNL     1       8.850  -3.655  24.471  0.00  0.00    +0.176 C 
ENDROOT
BRANCH   1   2
ATOM      2  O   UNL     1      10.232  -3.578  24.117  0.00  0.00    -0.386 OA
ATOM      3  H   UNL     1      10.342  -4.162  23.329  0.00  0.00    +0.210 HD
ENDBRANCH   1   2
BRANCH   1   4
ATOM      4  C   UNL     1       8.452  -5.118  24.829  0.00  0.00    +0.176 C 
BRANCH   4   5
ATOM      5  O   UNL     1       9.607  -5.915  25.161  0.00  0.00    -0.386 OA
ATOM      6  H   UNL     1       9.272  -6.757  25.540  0.00  0.00    +0.210 HD
ENDBRANCH   4   5
BRANCH   4   7
ATOM      7  C   UNL     1       7.432  -5.180  26.000  0.00  0.00    +0.172 C 
BRANCH   7   8
ATOM      8  O   UNL     1       7.906  -6.079  27.019  0.00  0.00    -0.387 OA
ATOM      9  H   UNL     1       8.087  -6.929  26.565  0.00  0.00    +0.210 HD
ENDBRANCH   7   8
BRANCH   7  10
ATOM     10  C   UNL     1       6.026  -5.618  25.560  0.00  0.00    +0.206 C 
BRANCH  10  11
ATOM     11  O   UNL     1       6.022  -5.812  24.132  0.00  0.00    -0.284 OA
BRANCH  11  12
ATOM     12  P   UNL     1       4.434  -5.790  23.447  0.00  0.00    +0.472 P 
ATOM     13  O   UNL     1       3.013  -5.770  22.834  0.00  0.00    -0.228 OA
BRANCH  12  14
ATOM     14  O   UNL     1       5.149  -5.933  21.986  0.00  0.00    -0.303 OA
ATOM     15  H   UNL     1       4.418  -5.929  21.337  0.00  0.00    +0.222 HD
ENDBRANCH  12  14
BRANCH  12  16
ATOM     16  O   UNL     1       4.412  -7.383  23.805  0.00  0.00    -0.303 OA
ATOM     17  H   UNL     1       4.193  -7.537  24.740  0.00  0.00    +0.222 HD
ENDBRANCH  12  16
ENDBRANCH  11  12
ENDBRANCH  10  11
ENDBRANCH   7  10
ENDBRANCH   4   7
ENDBRANCH   1   4
BRANCH   1  18
ATOM     18  C   UNL     1       8.062  -3.053  23.299  0.00  0.00    +0.172 C 
BRANCH  18  19
ATOM     19  O   UNL     1       7.582  -4.120  22.464  0.00  0.00    -0.387 OA
ATOM     20  H   UNL     1       7.095  -4.723  23.064  0.00  0.00    +0.210 HD
ENDBRANCH  18  19
BRANCH  18  21
ATOM     21  C   UNL     1       8.960  -2.091  22.495  0.00  0.00    +0.206 C 
BRANCH  21  22
ATOM     22  O   UNL     1       9.598  -1.087  23.298  0.00  0.00    -0.284 OA
BRANCH  22  23
ATOM     23  P   UNL     1       9.692   0.407  22.431  0.00  0.00    +0.472 P 
ATOM     24  O   UNL     1       9.775   1.745  21.655  0.00  0.00    -0.228 OA
BRANCH  23  25
ATOM     25  O   UNL     1       9.606  -0.497  21.073  0.00  0.00    -0.303 OA
ATOM     26  H   UNL     1      10.516  -0.732  20.810  0.00  0.00    +0.222 HD
ENDBRANCH  23  25
BRANCH  23  27
ATOM     27  O   UNL     1       8.100   0.569  22.740  0.00  0.00    -0.303 OA
ATOM     28  H   UNL     1       7.661   1.177  22.120  0.00  0.00    +0.222 HD
ENDBRANCH  23  27
ENDBRANCH  22  23
ENDBRANCH  21  22
ENDBRANCH  18  21
ENDBRANCH   1  18
TORSDOF 17
ENDMDL
MODEL 6
REMARK VINA RESULT:      -5.1      2.506      3.324
REMARK  Name = 
REMARK  17 active torsions:
REMARK  status: ('A' for Active; 'I' for Inactive)
REMARK    1  A    between atoms: O_1  and  C_2
REMARK    2  A    between atoms: C_2  and  C_4
REMARK    3  A    between atoms: C_2  and  C_10
REMARK    4  A    between atoms: C_4  and  O_5
REMARK    5  A    between atoms: O_5  and  P_6
REMARK    6  A    between atoms: P_6  and  O_7
REMARK    7  A    between atoms: P_6  and  O_8
REMARK    8  A    between atoms: C_10  and  O_12
REMARK    9  A    between atoms: C_10  and  C_13
REMARK   10  A    between atoms: C_13  and  O_15
REMARK   11  A    between atoms: C_13  and  C_16
REMARK   12  A    between atoms: C_16  and  O_18
REMARK   13  A    between atoms: C_16  and  C_19
REMARK   14  A    between atoms: C_19  and  O_20
REMARK   15  A    between atoms: O_20  and  P_21
REMARK   16  A    between atoms: P_21  and  O_22
REMARK   17  A    between atoms: P_21  and  O_23
REMARK                            x       y       z     vdW  Elec       q    Type
REMARK                         _______ _______ _______ _____ _____    ______ ____
ROOT
ATOM      1  C   UNL     1      10.242  -1.582  23.820  0.00  0.00    +0.176 C 
ENDROOT
BRANCH   1   2
ATOM      2  O   UNL     1       9.917  -2.097  22.527  0.00  0.00    -0.386 OA
ATOM      3  H   UNL     1       9.068  -1.664  22.270  0.00  0.00    +0.210 HD
ENDBRANCH   1   2
BRANCH   1   4
ATOM      4  C   UNL     1       9.122  -1.922  24.848  0.00  0.00    +0.176 C 
BRANCH   4   5
ATOM      5  O   UNL     1       7.841  -1.412  24.424  0.00  0.00    -0.386 OA
ATOM      6  H   UNL     1       8.018  -0.608  23.889  0.00  0.00    +0.210 HD
ENDBRANCH   4   5
BRANCH   4   7
ATOM      7  C   UNL     1       9.006  -3.450  25.106  0.00  0.00    +0.172 C 
BRANCH   7   8
ATOM      8  O   UNL     1      10.135  -4.134  24.533  0.00  0.00    -0.387 OA
ATOM      9  H   UNL     1       9.960  -4.183  23.569  0.00  0.00    +0.210 HD
ENDBRANCH   7   8
BRANCH   7  10
ATOM     10  C   UNL     1       7.712  -4.064  24.548  0.00  0.00    +0.206 C 
BRANCH  10  11
ATOM     11  O   UNL     1       7.898  -4.353  23.148  0.00  0.00    -0.284 OA
BRANCH  11  12
ATOM     12  P   UNL     1       6.529  -3.930  22.178  0.00  0.00    +0.472 P 
ATOM     13  O   UNL     1       5.305  -3.551  21.310  0.00  0.00    -0.228 OA
BRANCH  12  14
ATOM     14  O   UNL     1       5.779  -3.505  23.564  0.00  0.00    -0.303 OA
ATOM     15  H   UNL     1       4.826  -3.647  23.399  0.00  0.00    +0.222 HD
ENDBRANCH  12  14
BRANCH  12  16
ATOM     16  O   UNL     1       7.313  -2.517  21.944  0.00  0.00    -0.303 OA
ATOM     17  H   UNL     1       7.362  -2.286  21.001  0.00  0.00    +0.222 HD
ENDBRANCH  12  16
ENDBRANCH  11  12
ENDBRANCH  10  11
ENDBRANCH   7  10
ENDBRANCH   4   7
ENDBRANCH   1   4
BRANCH   1  18
ATOM     18  C   UNL     1      10.503  -0.080  23.642  0.00  0.00    +0.172 C 
BRANCH  18  19
ATOM     19  O   UNL     1       9.948   0.625  24.764  0.00  0.00    -0.387 OA
ATOM     20  H   UNL     1       9.399  -0.032  25.241  0.00  0.00    +0.210 HD
ENDBRANCH  18  19
BRANCH  18  21
ATOM     21  C   UNL     1       9.878   0.414  22.320  0.00  0.00    +0.206 C 
BRANCH  21  22
ATOM     22  O   UNL     1       8.447   0.316  22.284  0.00  0.00    -0.284 OA
BRANCH  22  23
ATOM     23  P   UNL     1       7.746   1.868  21.984  0.00  0.00    +0.472 P 
ATOM     24  O   UNL     1       7.118   3.259  21.715  0.00  0.00    -0.228 OA
BRANCH  23  25
ATOM     25  O   UNL     1       7.889   2.127  23.590  0.00  0.00    -0.303 OA
ATOM     26  H   UNL     1       8.184   1.294  24.004  0.00  0.00    +0.222 HD
ENDBRANCH  23  25
BRANCH  23  27
ATOM     27  O   UNL     1       9.233   2.336  21.508  0.00  0.00    -0.303 OA
ATOM     28  H   UNL     1       9.801   2.587  22.256  0.00  0.00    +0.222 HD
ENDBRANCH  23  27
ENDBRANCH  22  23
ENDBRANCH  21  22
ENDBRANCH  18  21
ENDBRANCH   1  18
TORSDOF 17
ENDMDL
MODEL 7
REMARK VINA RESULT:      -5.1      2.271      6.621
REMARK  Name = 
REMARK  17 active torsions:
REMARK  status: ('A' for Active; 'I' for Inactive)
REMARK    1  A    between atoms: O_1  and  C_2
REMARK    2  A    between atoms: C_2  and  C_4
REMARK    3  A    between atoms: C_2  and  C_10
REMARK    4  A    between atoms: C_4  and  O_5
REMARK    5  A    between atoms: O_5  and  P_6
REMARK    6  A    between atoms: P_6  and  O_7
REMARK    7  A    between atoms: P_6  and  O_8
REMARK    8  A    between atoms: C_10  and  O_12
REMARK    9  A    between atoms: C_10  and  C_13
REMARK   10  A    between atoms: C_13  and  O_15
REMARK   11  A    between atoms: C_13  and  C_16
REMARK   12  A    between atoms: C_16  and  O_18
REMARK   13  A    between atoms: C_16  and  C_19
REMARK   14  A    between atoms: C_19  and  O_20
REMARK   15  A    between atoms: O_20  and  P_21
REMARK   16  A    between atoms: P_21  and  O_22
REMARK   17  A    between atoms: P_21  and  O_23
REMARK                            x       y       z     vdW  Elec       q    Type
REMARK                         _______ _______ _______ _____ _____    ______ ____
ROOT
ATOM      1  C   UNL     1       9.148  -2.205  24.641  0.00  0.00    +0.176 C 
ENDROOT
BRANCH   1   2
ATOM      2  O   UNL     1       7.800  -1.791  24.411  0.00  0.00    -0.386 OA
ATOM      3  H   UNL     1       7.728  -1.633  23.439  0.00  0.00    +0.210 HD
ENDBRANCH   1   2
BRANCH   1   4
ATOM      4  C   UNL     1      10.021  -1.976  23.372  0.00  0.00    +0.176 C 
BRANCH   4   5
ATOM      5  O   UNL     1       9.345  -2.419  22.177  0.00  0.00    -0.386 OA
ATOM      6  H   UNL     1       8.567  -2.943  22.468  0.00  0.00    +0.210 HD
ENDBRANCH   4   5
BRANCH   4   7
ATOM      7  C   UNL     1      10.436  -0.488  23.204  0.00  0.00    +0.172 C 
BRANCH   7   8
ATOM      8  O   UNL     1      10.130   0.247  24.403  0.00  0.00    -0.387 OA
ATOM      9  H   UNL     1       9.793  -0.414  25.045  0.00  0.00    +0.210 HD
ENDBRANCH   7   8
BRANCH   7  10
ATOM     10  C   UNL     1       9.760   0.201  22.008  0.00  0.00    +0.206 C 
BRANCH  10  11
ATOM     11  O   UNL     1       8.348   0.319  22.272  0.00  0.00    -0.284 OA
BRANCH  11  12
ATOM     12  P   UNL     1       7.747   1.927  22.055  0.00  0.00    +0.472 P 
ATOM     13  O   UNL     1       7.209   3.365  21.860  0.00  0.00    -0.228 OA
BRANCH  12  14
ATOM     14  O   UNL     1       8.173   2.210  23.605  0.00  0.00    -0.303 OA
ATOM     15  H   UNL     1       7.343   2.157  24.117  0.00  0.00    +0.222 HD
ENDBRANCH  12  14
BRANCH  12  16
ATOM     16  O   UNL     1       9.209   2.231  21.396  0.00  0.00    -0.303 OA
ATOM     17  H   UNL     1       9.241   1.975  20.459  0.00  0.00    +0.222 HD
ENDBRANCH  12  16
ENDBRANCH  11  12
ENDBRANCH  10  11
ENDBRANCH   7  10
ENDBRANCH   4   7
ENDBRANCH   1   4
BRANCH   1  18
ATOM     18  C   UNL     1       9.085  -3.665  25.112  0.00  0.00    +0.172 C 
BRANCH  18  19
ATOM     19  O   UNL     1      10.173  -4.392  24.519  0.00  0.00    -0.387 OA
ATOM     20  H   UNL     1      10.115  -4.212  23.558  0.00  0.00    +0.210 HD
ENDBRANCH  18  19
BRANCH  18  21
ATOM     21  C   UNL     1       7.730  -4.290  24.721  0.00  0.00    +0.206 C 
BRANCH  21  22
ATOM     22  O   UNL     1       7.632  -4.642  23.333  0.00  0.00    -0.284 OA
BRANCH  22  23
ATOM     23  P   UNL     1       6.000  -4.478  22.785  0.00  0.00    +0.472 P 
ATOM     24  O   UNL     1       4.539  -4.330  22.293  0.00  0.00    -0.228 OA
BRANCH  23  25
ATOM     25  O   UNL     1       5.664  -3.915  24.281  0.00  0.00    -0.303 OA
ATOM     26  H   UNL     1       4.701  -3.769  24.338  0.00  0.00    +0.222 HD
ENDBRANCH  23  25
BRANCH  23  27
ATOM     27  O   UNL     1       6.483  -3.087  22.083  0.00  0.00    -0.303 OA
ATOM     28  H   UNL     1       6.512  -2.345  22.711  0.00  0.00    +0.222 HD
ENDBRANCH  23  27
ENDBRANCH  22  23
ENDBRANCH  21  22
ENDBRANCH  18  21
ENDBRANCH   1  18
TORSDOF 17
ENDMDL
MODEL 8
REMARK VINA RESULT:      -5.1      1.754      6.940
REMARK  Name = 
REMARK  17 active torsions:
REMARK  status: ('A' for Active; 'I' for Inactive)
REMARK    1  A    between atoms: O_1  and  C_2
REMARK    2  A    between atoms: C_2  and  C_4
REMARK    3  A    between atoms: C_2  and  C_10
REMARK    4  A    between atoms: C_4  and  O_5
REMARK    5  A    between atoms: O_5  and  P_6
REMARK    6  A    between atoms: P_6  and  O_7
REMARK    7  A    between atoms: P_6  and  O_8
REMARK    8  A    between atoms: C_10  and  O_12
REMARK    9  A    between atoms: C_10  and  C_13
REMARK   10  A    between atoms: C_13  and  O_15
REMARK   11  A    between atoms: C_13  and  C_16
REMARK   12  A    between atoms: C_16  and  O_18
REMARK   13  A    between atoms: C_16  and  C_19
REMARK   14  A    between atoms: C_19  and  O_20
REMARK   15  A    between atoms: O_20  and  P_21
REMARK   16  A    between atoms: P_21  and  O_22
REMARK   17  A    between atoms: P_21  and  O_23
REMARK                            x       y       z     vdW  Elec       q    Type
REMARK                         _______ _______ _______ _____ _____    ______ ____
ROOT
ATOM      1  C   UNL     1       9.463  -1.449  24.010  0.00  0.00    +0.176 C 
ENDROOT
BRANCH   1   2
ATOM      2  O   UNL     1       8.268  -0.759  24.380  0.00  0.00    -0.386 OA
ATOM      3  H   UNL     1       8.311   0.117  23.927  0.00  0.00    +0.210 HD
ENDBRANCH   1   2
BRANCH   1   4
ATOM      4  C   UNL     1      10.440  -0.498  23.257  0.00  0.00    +0.176 C 
BRANCH   4   5
ATOM      5  O   UNL     1       9.885  -0.054  22.002  0.00  0.00    -0.386 OA
ATOM      6  H   UNL     1      10.517   0.598  21.626  0.00  0.00    +0.210 HD
ENDBRANCH   4   5
BRANCH   4   7
ATOM      7  C   UNL     1      10.830   0.741  24.111  0.00  0.00    +0.172 C 
BRANCH   7   8
ATOM      8  O   UNL     1      10.450   0.531  25.484  0.00  0.00    -0.387 OA
ATOM      9  H   UNL     1      11.269   0.262  25.952  0.00  0.00    +0.210 HD
ENDBRANCH   7   8
BRANCH   7  10
ATOM     10  C   UNL     1      10.198   2.049  23.610  0.00  0.00    +0.206 C 
BRANCH  10  11
ATOM     11  O   UNL     1       8.813   2.082  24.007  0.00  0.00    -0.284 OA
BRANCH  11  12
ATOM     12  P   UNL     1       7.777   2.773  22.806  0.00  0.00    +0.472 P 
ATOM     13  O   UNL     1       6.850   3.391  21.733  0.00  0.00    -0.228 OA
BRANCH  12  14
ATOM     14  O   UNL     1       9.046   2.699  21.783  0.00  0.00    -0.303 OA
ATOM     15  H   UNL     1       8.873   1.929  21.207  0.00  0.00    +0.222 HD
ENDBRANCH  12  14
BRANCH  12  16
ATOM     16  O   UNL     1       7.258   1.242  22.578  0.00  0.00    -0.303 OA
ATOM     17  H   UNL     1       7.368   0.960  21.655  0.00  0.00    +0.222 HD
ENDBRANCH  12  16
ENDBRANCH  11  12
ENDBRANCH  10  11
ENDBRANCH   7  10
ENDBRANCH   4   7
ENDBRANCH   1   4
BRANCH   1  18
ATOM     18  C   UNL     1       9.028  -2.679  23.201  0.00  0.00    +0.172 C 
BRANCH  18  19
ATOM     19  O   UNL     1       8.011  -2.285  22.266  0.00  0.00    -0.387 OA
ATOM     20  H   UNL     1       7.855  -1.332  22.435  0.00  0.00    +0.210 HD
ENDBRANCH  18  19
BRANCH  18  21
ATOM     21  C   UNL     1       8.505  -3.778  24.149  0.00  0.00    +0.206 C 
BRANCH  21  22
ATOM     22  O   UNL     1       8.651  -3.462  25.541  0.00  0.00    -0.284 OA
BRANCH  22  23
ATOM     23  P   UNL     1       8.034  -4.748  26.519  0.00  0.00    +0.472 P 
ATOM     24  O   UNL     1       7.481  -5.900  27.394  0.00  0.00    -0.228 OA
BRANCH  23  25
ATOM     25  O   UNL     1       7.099  -5.134  25.236  0.00  0.00    -0.303 OA
ATOM     26  H   UNL     1       7.068  -6.107  25.168  0.00  0.00    +0.222 HD
ENDBRANCH  23  25
BRANCH  23  27
ATOM     27  O   UNL     1       9.385  -5.567  26.115  0.00  0.00    -0.303 OA
ATOM     28  H   UNL     1      10.123  -4.977  25.887  0.00  0.00    +0.222 HD
ENDBRANCH  23  27
ENDBRANCH  22  23
ENDBRANCH  21  22
ENDBRANCH  18  21
ENDBRANCH   1  18
TORSDOF 17
ENDMDL
MODEL 9
REMARK VINA RESULT:      -5.0      1.970      7.738
REMARK  Name = 
REMARK  17 active torsions:
REMARK  status: ('A' for Active; 'I' for Inactive)
REMARK    1  A    between atoms: O_1  and  C_2
REMARK    2  A    between atoms: C_2  and  C_4
REMARK    3  A    between atoms: C_2  and  C_10
REMARK    4  A    between atoms: C_4  and  O_5
REMARK    5  A    between atoms: O_5  and  P_6
REMARK    6  A    between atoms: P_6  and  O_7
REMARK    7  A    between atoms: P_6  and  O_8
REMARK    8  A    between atoms: C_10  and  O_12
REMARK    9  A    between atoms: C_10  and  C_13
REMARK   10  A    between atoms: C_13  and  O_15
REMARK   11  A    between atoms: C_13  and  C_16
REMARK   12  A    between atoms: C_16  and  O_18
REMARK   13  A    between atoms: C_16  and  C_19
REMARK   14  A    between atoms: C_19  and  O_20
REMARK   15  A    between atoms: O_20  and  P_21
REMARK   16  A    between atoms: P_21  and  O_22
REMARK   17  A    between atoms: P_21  and  O_23
REMARK                            x       y       z     vdW  Elec       q    Type
REMARK                         _______ _______ _______ _____ _____    ______ ____
ROOT
ATOM      1  C   UNL     1       8.472  -0.466  23.537  0.00  0.00    +0.176 C 
ENDROOT
BRANCH   1   2
ATOM      2  O   UNL     1       7.347  -0.722  22.694  0.00  0.00    -0.386 OA
ATOM      3  H   UNL     1       7.268   0.064  22.102  0.00  0.00    +0.210 HD
ENDBRANCH   1   2
BRANCH   1   4
ATOM      4  C   UNL     1       8.887   1.034  23.463  0.00  0.00    +0.176 C 
BRANCH   4   5
ATOM      5  O   UNL     1      10.310   1.181  23.277  0.00  0.00    -0.386 OA
ATOM      6  H   UNL     1      10.737   0.902  24.116  0.00  0.00    +0.210 HD
ENDBRANCH   4   5
BRANCH   4   7
ATOM      7  C   UNL     1       8.141   1.795  22.332  0.00  0.00    +0.172 C 
BRANCH   7   8
ATOM      8  O   UNL     1       8.800   1.575  21.072  0.00  0.00    -0.387 OA
ATOM      9  H   UNL     1       8.719   2.417  20.575  0.00  0.00    +0.210 HD
ENDBRANCH   7   8
BRANCH   7  10
ATOM     10  C   UNL     1       8.035   3.308  22.585  0.00  0.00    +0.206 C 
BRANCH  10  11
ATOM     11  O   UNL     1       8.563   3.602  23.893  0.00  0.00    -0.284 OA
BRANCH  11  12
ATOM     12  P   UNL     1       9.560   5.015  23.923  0.00  0.00    +0.472 P 
ATOM     13  O   UNL     1      10.452   6.280  23.950  0.00  0.00    -0.228 OA
BRANCH  12  14
ATOM     14  O   UNL     1      10.681   4.144  23.117  0.00  0.00    -0.303 OA
ATOM     15  H   UNL     1      10.724   4.537  22.224  0.00  0.00    +0.222 HD
ENDBRANCH  12  14
BRANCH  12  16
ATOM     16  O   UNL     1       8.699   5.476  22.614  0.00  0.00    -0.303 OA
ATOM     17  H   UNL     1       9.270   5.622  21.842  0.00  0.00    +0.222 HD
ENDBRANCH  12  16
ENDBRANCH  11  12
ENDBRANCH  10  11
ENDBRANCH   7  10
ENDBRANCH   4   7
ENDBRANCH   1   4
BRANCH   1  18
ATOM     18  C   UNL     1       9.572  -1.449  23.114  0.00  0.00    +0.172 C 
BRANCH  18  19
ATOM     19  O   UNL     1       9.851  -1.262  21.717  0.00  0.00    -0.387 OA
ATOM     20  H   UNL     1       9.589  -2.101  21.283  0.00  0.00    +0.210 HD
ENDBRANCH  18  19
BRANCH  18  21
ATOM     21  C   UNL     1       9.123  -2.898  23.394  0.00  0.00    +0.206 C 
BRANCH  21  22
ATOM     22  O   UNL     1       9.982  -3.608  24.298  0.00  0.00    -0.284 OA
BRANCH  22  23
ATOM     23  P   UNL     1       9.066  -4.723  25.250  0.00  0.00    +0.472 P 
ATOM     24  O   UNL     1       8.245  -5.722  26.103  0.00  0.00    -0.228 OA
BRANCH  23  25
ATOM     25  O   UNL     1       8.566  -5.361  23.832  0.00  0.00    -0.303 OA
ATOM     26  H   UNL     1       8.667  -6.330  23.886  0.00  0.00    +0.222 HD
ENDBRANCH  23  25
BRANCH  23  27
ATOM     27  O   UNL     1      10.457  -5.552  25.436  0.00  0.00    -0.303 OA
ATOM     28  H   UNL     1      11.016  -5.186  26.143  0.00  0.00    +0.222 HD
ENDBRANCH  23  27
ENDBRANCH  22  23
ENDBRANCH  21  22
ENDBRANCH  18  21
ENDBRANCH   1  18
TORSDOF 17
ENDMDL
