MODEL 1
REMARK VINA RESULT:      -5.4      0.000      0.000
REMARK  Name = 
REMARK  8 active torsions:
REMARK  status: ('A' for Active; 'I' for Inactive)
REMARK    1  A    between atoms: N_1  and  CA_2
REMARK    2  A    between atoms: CA_2  and  C_4
REMARK    3  A    between atoms: CA_2  and  C_14
REMARK    4  A    between atoms: C_4  and  C_5
REMARK    5  A    between atoms: C_7  and  N_8
REMARK    6  A    between atoms: C_9  and  O_10
REMARK    7  A    between atoms: C_12  and  O_13
REMARK    8  A    between atoms: C_14  and  O_15
REMARK                            x       y       z     vdW  Elec       q    Type
REMARK                         _______ _______ _______ _____ _____    ______ ____
ROOT
ATOM      1  C   UNL     1       8.157  -1.344  22.471  0.00  0.00    -0.002 A 
ATOM      2  C   UNL     1       9.276  -0.765  21.853  0.00  0.00    +0.124 A 
ATOM      3  C   UNL     1       9.345   0.607  21.625  0.00  0.00    +0.093 A 
ATOM      4  C   UNL     1       8.274   1.403  22.009  0.00  0.00    +0.141 A 
ATOM      5  C   UNL     1       7.124   0.862  22.595  0.00  0.00    +0.067 A 
ATOM      6  C   UNL     1       7.100  -0.506  22.873  0.00  0.00    +0.033 A 
ENDROOT
BRANCH   5   7
ATOM      7  N   UNL     1       6.075   1.702  23.017  0.00  0.00    -0.355 N 
ATOM      8  H   UNL     1       5.841   1.552  23.995  0.00  0.00    +0.142 HD
ATOM      9  H   UNL     1       6.299   2.687  22.874  0.00  0.00    +0.142 HD
ENDBRANCH   5   7
BRANCH   2  10
ATOM     10  O   UNL     1      10.293  -1.577  21.443  0.00  0.00    -0.506 OA
ATOM     11  H   UNL     1      10.533  -2.162  22.184  0.00  0.00    +0.292 HD
ENDBRANCH   2  10
BRANCH   4  12
ATOM     12  O   UNL     1       8.378   2.753  21.816  0.00  0.00    -0.505 OA
ATOM     13  H   UNL     1       7.478   3.093  21.970  0.00  0.00    +0.292 HD
ENDBRANCH   4  12
BRANCH   1  14
ATOM     14  C   UNL     1       8.040  -2.844  22.659  0.00  0.00    +0.068 C 
BRANCH  14  15
ATOM     15  CA  UNL     1       8.648  -3.368  23.975  0.00  0.00    +0.165 C 
BRANCH  15  16
ATOM     16  N   UNL     1      10.137  -3.209  24.079  0.00  0.00    -0.318 NA
ATOM     17  H1  UNL     1      10.497  -3.086  23.122  0.00  0.00    +0.119 HD
ATOM     18  H2  UNL     1      10.305  -2.276  24.473  0.00  0.00    +0.119 HD
ENDBRANCH  15  16
BRANCH  15  19
ATOM     19  C   UNL     1       8.292  -4.848  24.198  0.00  0.00    +0.322 C 
ATOM     20  OXT UNL     1       7.164  -5.315  24.175  0.00  0.00    -0.249 OA
BRANCH  19  21
ATOM     21  O   UNL     1       9.403  -5.590  24.446  0.00  0.00    -0.480 OA
ATOM     22  H   UNL     1       9.786  -5.212  25.280  0.00  0.00    +0.295 HD
ENDBRANCH  19  21
ENDBRANCH  15  19
ENDBRANCH  14  15
ENDBRANCH   1  14
TORSDOF 8
ENDMDL
MODEL 2
REMARK VINA RESULT:      -5.4      2.608      2.794
REMARK  Name = 
REMARK  8 active torsions:
REMARK  status: ('A' for Active; 'I' for Inactive)
REMARK    1  A    between atoms: N_1  and  CA_2
REMARK    2  A    between atoms: CA_2  and  C_4
REMARK    3  A    between atoms: CA_2  and  C_14
REMARK    4  A    between atoms: C_4  and  C_5
REMARK    5  A    between atoms: C_7  and  N_8
REMARK    6  A    between atoms: C_9  and  O_10
REMARK    7  A    between atoms: C_12  and  O_13
REMARK    8  A    between atoms: C_14  and  O_15
REMARK                            x       y       z     vdW  Elec       q    Type
REMARK                         _______ _______ _______ _____ _____    ______ ____
ROOT
ATOM      1  C   UNL     1       9.173  -2.273  24.544  0.00  0.00    -0.002 A 
ATOM      2  C   UNL     1       9.979  -1.571  23.636  0.00  0.00    +0.124 A 
ATOM      3  C   UNL     1      10.167  -0.196  23.750  0.00  0.00    +0.093 A 
ATOM      4  C   UNL     1       9.529   0.481  24.780  0.00  0.00    +0.141 A 
ATOM      5  C   UNL     1       8.688  -0.174  25.687  0.00  0.00    +0.067 A 
ATOM      6  C   UNL     1       8.562  -1.561  25.593  0.00  0.00    +0.033 A 
ENDROOT
BRANCH   5   7
ATOM      7  N   UNL     1       8.093   0.534  26.750  0.00  0.00    -0.355 N 
ATOM      8  H   UNL     1       8.059   1.534  26.565  0.00  0.00    +0.142 HD
ATOM      9  H   UNL     1       7.152   0.198  26.950  0.00  0.00    +0.142 HD
ENDBRANCH   5   7
BRANCH   2  10
ATOM     10  O   UNL     1      10.555  -2.255  22.605  0.00  0.00    -0.506 OA
ATOM     11  H   UNL     1      10.264  -1.848  21.769  0.00  0.00    +0.292 HD
ENDBRANCH   2  10
BRANCH   4  12
ATOM     12  O   UNL     1       9.760   1.824  24.904  0.00  0.00    -0.505 OA
ATOM     13  H   UNL     1       9.036   2.147  25.470  0.00  0.00    +0.292 HD
ENDBRANCH   4  12
BRANCH   1  14
ATOM     14  C   UNL     1       8.903  -3.757  24.386  0.00  0.00    +0.068 C 
BRANCH  14  15
ATOM     15  CA  UNL     1       9.184  -4.591  25.651  0.00  0.00    +0.165 C 
BRANCH  15  16
ATOM     16  N   UNL     1      10.277  -5.608  25.494  0.00  0.00    -0.318 NA
ATOM     17  H1  UNL     1      11.072  -5.133  25.044  0.00  0.00    +0.119 HD
ATOM     18  H2  UNL     1      10.656  -5.777  26.433  0.00  0.00    +0.119 HD
ENDBRANCH  15  16
BRANCH  15  19
ATOM     19  C   UNL     1       7.911  -5.307  26.136  0.00  0.00    +0.322 C 
ATOM     20  OXT UNL     1       6.876  -5.417  25.497  0.00  0.00    -0.249 OA
BRANCH  19  21
ATOM     21  O   UNL     1       8.070  -5.798  27.393  0.00  0.00    -0.480 OA
ATOM     22  H   UNL     1       7.354  -6.476  27.498  0.00  0.00    +0.295 HD
ENDBRANCH  19  21
ENDBRANCH  15  19
ENDBRANCH  14  15
ENDBRANCH   1  14
TORSDOF 8
ENDMDL
MODEL 3
REMARK VINA RESULT:      -5.3      2.251      5.699
REMARK  Name = 
REMARK  8 active torsions:
REMARK  status: ('A' for Active; 'I' for Inactive)
REMARK    1  A    between atoms: N_1  and  CA_2
REMARK    2  A    between atoms: CA_2  and  C_4
REMARK    3  A    between atoms: CA_2  and  C_14
REMARK    4  A    between atoms: C_4  and  C_5
REMARK    5  A    between atoms: C_7  and  N_8
REMARK    6  A    between atoms: C_9  and  O_10
REMARK    7  A    between atoms: C_12  and  O_13
REMARK    8  A    between atoms: C_14  and  O_15
REMARK                            x       y       z     vdW  Elec       q    Type
REMARK                         _______ _______ _______ _____ _____    ______ ____
ROOT
ATOM      1  C   UNL     1       7.919  -3.761  23.897  0.00  0.00    -0.002 A 
ATOM      2  C   UNL     1       9.115  -3.961  24.601  0.00  0.00    +0.124 A 
ATOM      3  C   UNL     1       9.139  -4.675  25.797  0.00  0.00    +0.093 A 
ATOM      4  C   UNL     1       7.946  -5.181  26.296  0.00  0.00    +0.141 A 
ATOM      5  C   UNL     1       6.725  -4.974  25.644  0.00  0.00    +0.067 A 
ATOM      6  C   UNL     1       6.731  -4.310  24.416  0.00  0.00    +0.033 A 
ENDROOT
BRANCH   5   7
ATOM      7  N   UNL     1       5.540  -5.542  26.152  0.00  0.00    -0.355 N 
ATOM      8  H   UNL     1       5.702  -6.035  27.026  0.00  0.00    +0.142 HD
ATOM      9  H   UNL     1       4.814  -4.839  26.293  0.00  0.00    +0.142 HD
ENDBRANCH   5   7
BRANCH   2  10
ATOM     10  O   UNL     1      10.264  -3.412  24.112  0.00  0.00    -0.506 OA
ATOM     11  H   UNL     1      10.240  -2.453  24.281  0.00  0.00    +0.292 HD
ENDBRANCH   2  10
BRANCH   4  12
ATOM     12  O   UNL     1       7.995  -5.916  27.448  0.00  0.00    -0.505 OA
ATOM     13  H   UNL     1       8.208  -6.820  27.154  0.00  0.00    +0.292 HD
ENDBRANCH   4  12
BRANCH   1  14
ATOM     14  C   UNL     1       7.870  -2.925  22.633  0.00  0.00    +0.068 C 
BRANCH  14  15
ATOM     15  CA  UNL     1       8.028  -1.410  22.869  0.00  0.00    +0.165 C 
BRANCH  15  16
ATOM     16  N   UNL     1       6.754  -0.626  22.751  0.00  0.00    -0.318 NA
ATOM     17  H1  UNL     1       7.011   0.339  22.500  0.00  0.00    +0.119 HD
ATOM     18  H2  UNL     1       6.297  -0.939  21.886  0.00  0.00    +0.119 HD
ENDBRANCH  15  16
BRANCH  15  19
ATOM     19  C   UNL     1       9.069  -0.806  21.910  0.00  0.00    +0.322 C 
ATOM     20  OXT UNL     1       9.020   0.314  21.428  0.00  0.00    -0.249 OA
BRANCH  19  21
ATOM     21  O   UNL     1      10.064  -1.692  21.641  0.00  0.00    -0.480 OA
ATOM     22  H   UNL     1      10.894  -1.150  21.616  0.00  0.00    +0.295 HD
ENDBRANCH  19  21
ENDBRANCH  15  19
ENDBRANCH  14  15
ENDBRANCH   1  14
TORSDOF 8
ENDMDL
MODEL 4
REMARK VINA RESULT:      -5.3      1.877      5.985
REMARK  Name = 
REMARK  8 active torsions:
REMARK  status: ('A' for Active; 'I' for Inactive)
REMARK    1  A    between atoms: N_1  and  CA_2
REMARK    2  A    between atoms: CA_2  and  C_4
REMARK    3  A    between atoms: CA_2  and  C_14
REMARK    4  A    between atoms: C_4  and  C_5
REMARK    5  A    between atoms: C_7  and  N_8
REMARK    6  A    between atoms: C_9  and  O_10
REMARK    7  A    between atoms: C_12  and  O_13
REMARK    8  A    between atoms: C_14  and  O_15
REMARK                            x       y       z     vdW  Elec       q    Type
REMARK                         _______ _______ _______ _____ _____    ______ ____
ROOT
ATOM      1  C   UNL     1       7.814  -3.408  23.871  0.00  0.00    -0.002 A 
ATOM      2  C   UNL     1       6.653  -3.688  24.607  0.00  0.00    +0.124 A 
ATOM      3  C   UNL     1       6.683  -4.545  25.704  0.00  0.00    +0.093 A 
ATOM      4  C   UNL     1       7.888  -5.137  26.056  0.00  0.00    +0.141 A 
ATOM      5  C   UNL     1       9.062  -4.914  25.328  0.00  0.00    +0.067 A 
ATOM      6  C   UNL     1       9.025  -4.003  24.270  0.00  0.00    +0.033 A 
ENDROOT
BRANCH   5   7
ATOM      7  N   UNL     1      10.279  -5.492  25.741  0.00  0.00    -0.355 N 
ATOM      8  H   UNL     1      10.558  -5.168  26.663  0.00  0.00    +0.142 HD
ATOM      9  H   UNL     1      10.233  -6.511  25.743  0.00  0.00    +0.142 HD
ENDBRANCH   5   7
BRANCH   2  10
ATOM     10  O   UNL     1       5.473  -3.130  24.209  0.00  0.00    -0.506 OA
ATOM     11  H   UNL     1       5.548  -2.900  23.265  0.00  0.00    +0.292 HD
ENDBRANCH   2  10
BRANCH   4  12
ATOM     12  O   UNL     1       7.908  -5.942  27.162  0.00  0.00    -0.505 OA
ATOM     13  H   UNL     1       7.084  -5.728  27.636  0.00  0.00    +0.292 HD
ENDBRANCH   4  12
BRANCH   1  14
ATOM     14  C   UNL     1       7.779  -2.535  22.633  0.00  0.00    +0.068 C 
BRANCH  14  15
ATOM     15  CA  UNL     1       8.266  -1.090  22.861  0.00  0.00    +0.165 C 
BRANCH  15  16
ATOM     16  N   UNL     1       7.170  -0.066  22.910  0.00  0.00    -0.318 NA
ATOM     17  H1  UNL     1       7.588   0.812  23.251  0.00  0.00    +0.119 HD
ATOM     18  H2  UNL     1       6.958   0.183  21.937  0.00  0.00    +0.119 HD
ENDBRANCH  15  16
BRANCH  15  19
ATOM     19  C   UNL     1       9.284  -0.672  21.786  0.00  0.00    +0.322 C 
ATOM     20  OXT UNL     1       9.258   0.374  21.156  0.00  0.00    -0.249 OA
BRANCH  19  21
ATOM     21  O   UNL     1      10.228  -1.632  21.601  0.00  0.00    -0.480 OA
ATOM     22  H   UNL     1      10.236  -1.803  20.624  0.00  0.00    +0.295 HD
ENDBRANCH  19  21
ENDBRANCH  15  19
ENDBRANCH  14  15
ENDBRANCH   1  14
TORSDOF 8
ENDMDL
MODEL 5
REMARK VINA RESULT:      -5.1      1.919      2.051
REMARK  Name = 
REMARK  8 active torsions:
REMARK  status: ('A' for Active; 'I' for Inactive)
REMARK    1  A    between atoms: N_1  and  CA_2
REMARK    2  A    between atoms: CA_2  and  C_4
REMARK    3  A    between atoms: CA_2  and  C_14
REMARK    4  A    between atoms: C_4  and  C_5
REMARK    5  A    between atoms: C_7  and  N_8
REMARK    6  A    between atoms: C_9  and  O_10
REMARK    7  A    between atoms: C_12  and  O_13
REMARK    8  A    between atoms: C_14  and  O_15
REMARK                            x       y       z     vdW  Elec       q    Type
REMARK                         _______ _______ _______ _____ _____    ______ ____
ROOT
ATOM      1  C   UNL     1       8.097  -1.239  22.909  0.00  0.00    -0.002 A 
ATOM      2  C   UNL     1       9.473  -1.285  22.642  0.00  0.00    +0.124 A 
ATOM      3  C   UNL     1      10.154  -0.167  22.167  0.00  0.00    +0.093 A 
ATOM      4  C   UNL     1       9.442   1.004  21.946  0.00  0.00    +0.141 A 
ATOM      5  C   UNL     1       8.062   1.083  22.165  0.00  0.00    +0.067 A 
ATOM      6  C   UNL     1       7.409  -0.029  22.700  0.00  0.00    +0.033 A 
ENDROOT
BRANCH   5   7
ATOM      7  N   UNL     1       7.378   2.300  21.977  0.00  0.00    -0.355 N 
ATOM      8  H   UNL     1       6.433   2.264  22.352  0.00  0.00    +0.142 HD
ATOM      9  H   UNL     1       7.876   3.083  22.399  0.00  0.00    +0.142 HD
ENDBRANCH   5   7
BRANCH   2  10
ATOM     10  O   UNL     1      10.138  -2.463  22.823  0.00  0.00    -0.506 OA
ATOM     11  H   UNL     1      10.638  -2.406  23.657  0.00  0.00    +0.292 HD
ENDBRANCH   2  10
BRANCH   4  12
ATOM     12  O   UNL     1      10.135   2.104  21.521  0.00  0.00    -0.505 OA
ATOM     13  H   UNL     1       9.581   2.861  21.787  0.00  0.00    +0.292 HD
ENDBRANCH   4  12
BRANCH   1  14
ATOM     14  C   UNL     1       7.332  -2.470  23.356  0.00  0.00    +0.068 C 
BRANCH  14  15
ATOM     15  CA  UNL     1       6.857  -3.375  22.203  0.00  0.00    +0.165 C 
BRANCH  15  16
ATOM     16  N   UNL     1       5.366  -3.443  22.042  0.00  0.00    -0.318 NA
ATOM     17  H1  UNL     1       5.152  -3.177  21.070  0.00  0.00    +0.119 HD
ATOM     18  H2  UNL     1       5.118  -4.440  22.031  0.00  0.00    +0.119 HD
ENDBRANCH  15  16
BRANCH  15  19
ATOM     19  C   UNL     1       7.402  -4.805  22.361  0.00  0.00    +0.322 C 
ATOM     20  OXT UNL     1       7.100  -5.758  21.660  0.00  0.00    -0.249 OA
BRANCH  19  21
ATOM     21  O   UNL     1       8.265  -4.891  23.407  0.00  0.00    -0.480 OA
ATOM     22  H   UNL     1       8.616  -3.971  23.529  0.00  0.00    +0.295 HD
ENDBRANCH  19  21
ENDBRANCH  15  19
ENDBRANCH  14  15
ENDBRANCH   1  14
TORSDOF 8
ENDMDL
MODEL 6
REMARK VINA RESULT:      -5.1      1.859      2.024
REMARK  Name = 
REMARK  8 active torsions:
REMARK  status: ('A' for Active; 'I' for Inactive)
REMARK    1  A    between atoms: N_1  and  CA_2
REMARK    2  A    between atoms: CA_2  and  C_4
REMARK    3  A    between atoms: CA_2  and  C_14
REMARK    4  A    between atoms: C_4  and  C_5
REMARK    5  A    between atoms: C_7  and  N_8
REMARK    6  A    between atoms: C_9  and  O_10
REMARK    7  A    between atoms: C_12  and  O_13
REMARK    8  A    between atoms: C_14  and  O_15
REMARK                            x       y       z     vdW  Elec       q    Type
REMARK                         _______ _______ _______ _____ _____    ______ ____
ROOT
ATOM      1  C   UNL     1       9.714  -0.916  23.598  0.00  0.00    -0.002 A 
ATOM      2  C   UNL     1       9.824  -0.595  22.237  0.00  0.00    +0.124 A 
ATOM      3  C   UNL     1       9.667   0.714  21.788  0.00  0.00    +0.093 A 
ATOM      4  C   UNL     1       9.383   1.708  22.716  0.00  0.00    +0.141 A 
ATOM      5  C   UNL     1       9.230   1.426  24.078  0.00  0.00    +0.067 A 
ATOM      6  C   UNL     1       9.453   0.119  24.515  0.00  0.00    +0.033 A 
ENDROOT
BRANCH   5   7
ATOM      7  N   UNL     1       8.991   2.465  24.999  0.00  0.00    -0.355 N 
ATOM      8  H   UNL     1       9.848   2.779  25.446  0.00  0.00    +0.142 HD
ATOM      9  H   UNL     1       8.530   3.261  24.560  0.00  0.00    +0.142 HD
ENDBRANCH   5   7
BRANCH   2  10
ATOM     10  O   UNL     1      10.055  -1.599  21.342  0.00  0.00    -0.506 OA
ATOM     11  H   UNL     1      10.955  -1.941  21.495  0.00  0.00    +0.292 HD
ENDBRANCH   2  10
BRANCH   4  12
ATOM     12  O   UNL     1       9.275   2.994  22.263  0.00  0.00    -0.505 OA
ATOM     13  H   UNL     1      10.195   3.282  22.118  0.00  0.00    +0.292 HD
ENDBRANCH   4  12
BRANCH   1  14
ATOM     14  C   UNL     1       9.811  -2.347  24.088  0.00  0.00    +0.068 C 
BRANCH  14  15
ATOM     15  CA  UNL     1       8.454  -2.997  24.423  0.00  0.00    +0.165 C 
BRANCH  15  16
ATOM     16  N   UNL     1       8.477  -3.901  25.621  0.00  0.00    -0.318 NA
ATOM     17  H1  UNL     1       7.620  -4.472  25.588  0.00  0.00    +0.119 HD
ATOM     18  H2  UNL     1       9.194  -4.612  25.437  0.00  0.00    +0.119 HD
ENDBRANCH  15  16
BRANCH  15  19
ATOM     19  C   UNL     1       7.906  -3.784  23.220  0.00  0.00    +0.322 C 
ATOM     20  OXT UNL     1       7.538  -3.295  22.163  0.00  0.00    -0.249 OA
BRANCH  19  21
ATOM     21  O   UNL     1       7.861  -5.117  23.482  0.00  0.00    -0.480 OA
ATOM     22  H   UNL     1       7.261  -5.206  24.267  0.00  0.00    +0.295 HD
ENDBRANCH  19  21
ENDBRANCH  15  19
ENDBRANCH  14  15
ENDBRANCH   1  14
TORSDOF 8
ENDMDL
MODEL 7
REMARK VINA RESULT:      -5.0      2.381      5.701
REMARK  Name = 
REMARK  8 active torsions:
REMARK  status: ('A' for Active; 'I' for Inactive)
REMARK    1  A    between atoms: N_1  and  CA_2
REMARK    2  A    between atoms: CA_2  and  C_4
REMARK    3  A    between atoms: CA_2  and  C_14
REMARK    4  A    between atoms: C_4  and  C_5
REMARK    5  A    between atoms: C_7  and  N_8
REMARK    6  A    between atoms: C_9  and  O_10
REMARK    7  A    between atoms: C_12  and  O_13
REMARK    8  A    between atoms: C_14  and  O_15
REMARK                            x       y       z     vdW  Elec       q    Type
REMARK                         _______ _______ _______ _____ _____    ______ ____
ROOT
ATOM      1  C   UNL     1       8.866  -3.553  24.239  0.00  0.00    -0.002 A 
ATOM      2  C   UNL     1       7.745  -3.754  23.420  0.00  0.00    +0.124 A 
ATOM      3  C   UNL     1       6.700  -4.585  23.817  0.00  0.00    +0.093 A 
ATOM      4  C   UNL     1       6.789  -5.230  25.042  0.00  0.00    +0.141 A 
ATOM      5  C   UNL     1       7.905  -5.086  25.874  0.00  0.00    +0.067 A 
ATOM      6  C   UNL     1       8.913  -4.201  25.487  0.00  0.00    +0.033 A 
ENDROOT
BRANCH   5   7
ATOM      7  N   UNL     1       7.943  -5.717  27.134  0.00  0.00    -0.355 N 
ATOM      8  H   UNL     1       7.067  -5.606  27.638  0.00  0.00    +0.142 HD
ATOM      9  H   UNL     1       8.160  -6.710  27.053  0.00  0.00    +0.142 HD
ENDBRANCH   5   7
BRANCH   2  10
ATOM     10  O   UNL     1       7.706  -3.144  22.200  0.00  0.00    -0.506 OA
ATOM     11  H   UNL     1       7.977  -3.794  21.526  0.00  0.00    +0.292 HD
ENDBRANCH   2  10
BRANCH   4  12
ATOM     12  O   UNL     1       5.734  -6.008  25.435  0.00  0.00    -0.505 OA
ATOM     13  H   UNL     1       6.068  -6.922  25.376  0.00  0.00    +0.292 HD
ENDBRANCH   4  12
BRANCH   1  14
ATOM     14  C   UNL     1      10.040  -2.709  23.786  0.00  0.00    +0.068 C 
BRANCH  14  15
ATOM     15  CA  UNL     1       9.780  -1.190  23.819  0.00  0.00    +0.165 C 
BRANCH  15  16
ATOM     16  N   UNL     1       8.409  -0.804  24.293  0.00  0.00    -0.318 NA
ATOM     17  H1  UNL     1       7.820  -1.647  24.239  0.00  0.00    +0.119 HD
ATOM     18  H2  UNL     1       8.476  -0.677  25.310  0.00  0.00    +0.119 HD
ENDBRANCH  15  16
BRANCH  15  19
ATOM     19  C   UNL     1      10.021  -0.557  22.437  0.00  0.00    +0.322 C 
ATOM     20  OXT UNL     1      10.099   0.641  22.213  0.00  0.00    -0.249 OA
BRANCH  19  21
ATOM     21  O   UNL     1      10.121  -1.507  21.471  0.00  0.00    -0.480 OA
ATOM     22  H   UNL     1       9.621  -1.141  20.696  0.00  0.00    +0.295 HD
ENDBRANCH  19  21
ENDBRANCH  15  19
ENDBRANCH  14  15
ENDBRANCH   1  14
TORSDOF 8
ENDMDL
MODEL 8
REMARK VINA RESULT:      -5.0      2.146      5.531
REMARK  Name = 
REMARK  8 active torsions:
REMARK  status: ('A' for Active; 'I' for Inactive)
REMARK    1  A    between atoms: N_1  and  CA_2
REMARK    2  A    between atoms: CA_2  and  C_4
REMARK    3  A    between atoms: CA_2  and  C_14
REMARK    4  A    between atoms: C_4  and  C_5
REMARK    5  A    between atoms: C_7  and  N_8
REMARK    6  A    between atoms: C_9  and  O_10
REMARK    7  A    between atoms: C_12  and  O_13
REMARK    8  A    between atoms: C_14  and  O_15
REMARK                            x       y       z     vdW  Elec       q    Type
REMARK                         _______ _______ _______ _____ _____    ______ ____
ROOT
ATOM      1  C   UNL     1       8.247  -1.973  23.341  0.00  0.00    -0.002 A 
ATOM      2  C   UNL     1       8.825  -2.042  24.617  0.00  0.00    +0.124 A 
ATOM      3  C   UNL     1       8.924  -3.251  25.302  0.00  0.00    +0.093 A 
ATOM      4  C   UNL     1       8.424  -4.399  24.703  0.00  0.00    +0.141 A 
ATOM      5  C   UNL     1       7.807  -4.370  23.447  0.00  0.00    +0.067 A 
ATOM      6  C   UNL     1       7.775  -3.160  22.751  0.00  0.00    +0.033 A 
ENDROOT
BRANCH   5   7
ATOM      7  N   UNL     1       7.355  -5.561  22.846  0.00  0.00    -0.355 N 
ATOM      8  H   UNL     1       6.940  -6.193  23.526  0.00  0.00    +0.142 HD
ATOM      9  H   UNL     1       6.679  -5.378  22.104  0.00  0.00    +0.142 HD
ENDBRANCH   5   7
BRANCH   2  10
ATOM     10  O   UNL     1       9.264  -0.889  25.202  0.00  0.00    -0.506 OA
ATOM     11  H   UNL     1       8.601  -0.194  25.040  0.00  0.00    +0.292 HD
ENDBRANCH   2  10
BRANCH   4  12
ATOM     12  O   UNL     1       8.568  -5.584  25.371  0.00  0.00    -0.505 OA
ATOM     13  H   UNL     1       7.813  -6.126  25.076  0.00  0.00    +0.292 HD
ENDBRANCH   4  12
BRANCH   1  14
ATOM     14  C   UNL     1       8.069  -0.652  22.619  0.00  0.00    +0.068 C 
BRANCH  14  15
ATOM     15  CA  UNL     1       9.259  -0.254  21.724  0.00  0.00    +0.165 C 
BRANCH  15  16
ATOM     16  N   UNL     1      10.263  -1.347  21.502  0.00  0.00    -0.318 NA
ATOM     17  H1  UNL     1      10.953  -0.994  20.823  0.00  0.00    +0.119 HD
ATOM     18  H2  UNL     1      10.835  -1.396  22.354  0.00  0.00    +0.119 HD
ENDBRANCH  15  16
BRANCH  15  19
ATOM     19  C   UNL     1       9.987   0.979  22.287  0.00  0.00    +0.322 C 
ATOM     20  OXT UNL     1      10.556   1.032  23.367  0.00  0.00    -0.249 OA
BRANCH  19  21
ATOM     21  O   UNL     1       9.907   2.033  21.433  0.00  0.00    -0.480 OA
ATOM     22  H   UNL     1      10.745   2.543  21.572  0.00  0.00    +0.295 HD
ENDBRANCH  19  21
ENDBRANCH  15  19
ENDBRANCH  14  15
ENDBRANCH   1  14
TORSDOF 8
ENDMDL
MODEL 9
REMARK VINA RESULT:      -5.0      1.474      1.697
REMARK  Name = 
REMARK  8 active torsions:
REMARK  status: ('A' for Active; 'I' for Inactive)
REMARK    1  A    between atoms: N_1  and  CA_2
REMARK    2  A    between atoms: CA_2  and  C_4
REMARK    3  A    between atoms: CA_2  and  C_14
REMARK    4  A    between atoms: C_4  and  C_5
REMARK    5  A    between atoms: C_7  and  N_8
REMARK    6  A    between atoms: C_9  and  O_10
REMARK    7  A    between atoms: C_12  and  O_13
REMARK    8  A    between atoms: C_14  and  O_15
REMARK                            x       y       z     vdW  Elec       q    Type
REMARK                         _______ _______ _______ _____ _____    ______ ____
ROOT
ATOM      1  C   UNL     1       8.263  -1.866  23.324  0.00  0.00    -0.002 A 
ATOM      2  C   UNL     1       9.550  -1.581  22.844  0.00  0.00    +0.124 A 
ATOM      3  C   UNL     1       9.839  -0.364  22.232  0.00  0.00    +0.093 A 
ATOM      4  C   UNL     1       8.821   0.570  22.090  0.00  0.00    +0.141 A 
ATOM      5  C   UNL     1       7.515   0.312  22.522  0.00  0.00    +0.067 A 
ATOM      6  C   UNL     1       7.261  -0.888  23.189  0.00  0.00    +0.033 A 
ENDROOT
BRANCH   5   7
ATOM      7  N   UNL     1       6.517   1.300  22.407  0.00  0.00    -0.355 N 
ATOM      8  H   UNL     1       6.043   1.254  21.509  0.00  0.00    +0.142 HD
ATOM      9  H   UNL     1       5.827   1.229  23.154  0.00  0.00    +0.142 HD
ENDBRANCH   5   7
BRANCH   2  10
ATOM     10  O   UNL     1      10.519  -2.536  22.954  0.00  0.00    -0.506 OA
ATOM     11  H   UNL     1      11.373  -2.132  22.715  0.00  0.00    +0.292 HD
ENDBRANCH   2  10
BRANCH   4  12
ATOM     12  O   UNL     1       9.133   1.777  21.525  0.00  0.00    -0.505 OA
ATOM     13  H   UNL     1      10.103   1.841  21.602  0.00  0.00    +0.292 HD
ENDBRANCH   4  12
BRANCH   1  14
ATOM     14  C   UNL     1       7.921  -3.215  23.926  0.00  0.00    +0.068 C 
BRANCH  14  15
ATOM     15  CA  UNL     1       8.228  -3.334  25.432  0.00  0.00    +0.165 C 
BRANCH  15  16
ATOM     16  N   UNL     1       8.630  -2.045  26.088  0.00  0.00    -0.318 NA
ATOM     17  H1  UNL     1       9.527  -1.758  25.671  0.00  0.00    +0.119 HD
ATOM     18  H2  UNL     1       8.002  -1.321  25.720  0.00  0.00    +0.119 HD
ENDBRANCH  15  16
BRANCH  15  19
ATOM     19  C   UNL     1       9.323  -4.383  25.692  0.00  0.00    +0.322 C 
ATOM     20  OXT UNL     1      10.071  -4.848  24.846  0.00  0.00    -0.249 OA
BRANCH  19  21
ATOM     21  O   UNL     1       9.350  -4.754  26.999  0.00  0.00    -0.480 OA
ATOM     22  H   UNL     1      10.206  -4.397  27.351  0.00  0.00    +0.295 HD
ENDBRANCH  19  21
ENDBRANCH  15  19
ENDBRANCH  14  15
ENDBRANCH   1  14
TORSDOF 8
ENDMDL
