MODEL 1
REMARK VINA RESULT:      -3.8      0.000      0.000
REMARK  Name = 
REMARK  6 active torsions:
REMARK  status: ('A' for Active; 'I' for Inactive)
REMARK    1  A    between atoms: N_1  and  CA_2
REMARK    2  A    between atoms: CA_2  and  C_4
REMARK    3  A    between atoms: CA_2  and  C_7
REMARK    4  A    between atoms: C_4  and  C_5
REMARK    5  A    between atoms: C_5  and  S_6
REMARK    6  A    between atoms: C_7  and  O_8
REMARK                            x       y       z     vdW  Elec       q    Type
REMARK                         _______ _______ _______ _____ _____    ______ ____
ROOT
ATOM      1  CA  UNL     1      12.228   5.505  23.959  0.00  0.00    +0.161 C 
ENDROOT
BRANCH   1   2
ATOM      2  N   UNL     1      12.726   6.597  24.863  0.00  0.00    -0.318 NA
ATOM      3  H1  UNL     1      12.299   7.483  24.569  0.00  0.00    +0.119 HD
ATOM      4  H2  UNL     1      12.333   6.433  25.794  0.00  0.00    +0.119 HD
ENDBRANCH   1   2
BRANCH   1   5
ATOM      5  C   UNL     1      13.223   5.370  22.787  0.00  0.00    +0.322 C 
ATOM      6  OXT UNL     1      12.954   5.520  21.608  0.00  0.00    -0.249 OA
BRANCH   5   7
ATOM      7  O   UNL     1      14.462   5.027  23.227  0.00  0.00    -0.480 OA
ATOM      8  H   UNL     1      14.880   4.527  22.481  0.00  0.00    +0.295 HD
ENDBRANCH   5   7
ENDBRANCH   1   5
BRANCH   1   9
ATOM      9  C   UNL     1      10.803   5.834  23.500  0.00  0.00    +0.040 C 
BRANCH   9  10
ATOM     10  C   UNL     1       9.759   4.827  23.987  0.00  0.00    +0.067 C 
BRANCH  10  11
ATOM     11  S   UNL     1      10.249   3.137  23.519  0.00  0.00    -0.178 S 
ATOM     12  H   UNL     1      10.043   2.568  24.714  0.00  0.00    +0.102 HD
ENDBRANCH  10  11
ENDBRANCH   9  10
ENDBRANCH   1   9
TORSDOF 6
ENDMDL
MODEL 2
REMARK VINA RESULT:      -3.5     10.388     10.942
REMARK  Name = 
REMARK  6 active torsions:
REMARK  status: ('A' for Active; 'I' for Inactive)
REMARK    1  A    between atoms: N_1  and  CA_2
REMARK    2  A    between atoms: CA_2  and  C_4
REMARK    3  A    between atoms: CA_2  and  C_7
REMARK    4  A    between atoms: C_4  and  C_5
REMARK    5  A    between atoms: C_5  and  S_6
REMARK    6  A    between atoms: C_7  and  O_8
REMARK                            x       y       z     vdW  Elec       q    Type
REMARK                         _______ _______ _______ _____ _____    ______ ____
ROOT
ATOM      1  CA  UNL     1       8.997  -4.563  25.553  0.00  0.00    +0.161 C 
ENDROOT
BRANCH   1   2
ATOM      2  N   UNL     1       9.994  -5.675  25.713  0.00  0.00    -0.318 NA
ATOM      3  H1  UNL     1      10.333  -5.672  26.683  0.00  0.00    +0.119 HD
ATOM      4  H2  UNL     1       9.486  -6.561  25.635  0.00  0.00    +0.119 HD
ENDBRANCH   1   2
BRANCH   1   5
ATOM      5  C   UNL     1       7.974  -4.673  26.703  0.00  0.00    +0.322 C 
ATOM      6  OXT UNL     1       7.158  -3.822  27.009  0.00  0.00    -0.249 OA
BRANCH   5   7
ATOM      7  O   UNL     1       8.109  -5.847  27.373  0.00  0.00    -0.480 OA
ATOM      8  H   UNL     1       8.392  -5.599  28.290  0.00  0.00    +0.295 HD
ENDBRANCH   5   7
ENDBRANCH   1   5
BRANCH   1   9
ATOM      9  C   UNL     1       8.351  -4.655  24.166  0.00  0.00    +0.040 C 
BRANCH   9  10
ATOM     10  C   UNL     1       8.245  -3.306  23.452  0.00  0.00    +0.067 C 
BRANCH  10  11
ATOM     11  S   UNL     1       9.734  -2.307  23.772  0.00  0.00    -0.178 S 
ATOM     12  H   UNL     1       9.687  -2.364  25.110  0.00  0.00    +0.102 HD
ENDBRANCH  10  11
ENDBRANCH   9  10
ENDBRANCH   1   9
TORSDOF 6
ENDMDL
MODEL 3
REMARK VINA RESULT:      -3.4     10.987     11.431
REMARK  Name = 
REMARK  6 active torsions:
REMARK  status: ('A' for Active; 'I' for Inactive)
REMARK    1  A    between atoms: N_1  and  CA_2
REMARK    2  A    between atoms: CA_2  and  C_4
REMARK    3  A    between atoms: CA_2  and  C_7
REMARK    4  A    between atoms: C_4  and  C_5
REMARK    5  A    between atoms: C_5  and  S_6
REMARK    6  A    between atoms: C_7  and  O_8
REMARK                            x       y       z     vdW  Elec       q    Type
REMARK                         _______ _______ _______ _____ _____    ______ ____
ROOT
ATOM      1  CA  UNL     1       9.078  -4.554  25.318  0.00  0.00    +0.161 C 
ENDROOT
BRANCH   1   2
ATOM      2  N   UNL     1       9.855  -5.835  25.200  0.00  0.00    -0.318 NA
ATOM      3  H1  UNL     1       9.884  -6.285  26.122  0.00  0.00    +0.119 HD
ATOM      4  H2  UNL     1       9.304  -6.481  24.628  0.00  0.00    +0.119 HD
ENDBRANCH   1   2
BRANCH   1   5
ATOM      5  C   UNL     1       8.118  -4.692  26.519  0.00  0.00    +0.322 C 
ATOM      6  OXT UNL     1       7.398  -3.810  26.955  0.00  0.00    -0.249 OA
BRANCH   5   7
ATOM      7  O   UNL     1       8.189  -5.932  27.069  0.00  0.00    -0.480 OA
ATOM      8  H   UNL     1       7.251  -6.244  27.141  0.00  0.00    +0.295 HD
ENDBRANCH   5   7
ENDBRANCH   1   5
BRANCH   1   9
ATOM      9  C   UNL     1       8.350  -4.278  23.998  0.00  0.00    +0.040 C 
BRANCH   9  10
ATOM     10  C   UNL     1       7.135  -5.181  23.772  0.00  0.00    +0.067 C 
BRANCH  10  11
ATOM     11  S   UNL     1       7.131  -5.813  22.065  0.00  0.00    -0.178 S 
ATOM     12  H   UNL     1       8.459  -5.825  21.889  0.00  0.00    +0.102 HD
ENDBRANCH  10  11
ENDBRANCH   9  10
ENDBRANCH   1   9
TORSDOF 6
ENDMDL
MODEL 4
REMARK VINA RESULT:      -3.4     10.670     11.063
REMARK  Name = 
REMARK  6 active torsions:
REMARK  status: ('A' for Active; 'I' for Inactive)
REMARK    1  A    between atoms: N_1  and  CA_2
REMARK    2  A    between atoms: CA_2  and  C_4
REMARK    3  A    between atoms: CA_2  and  C_7
REMARK    4  A    between atoms: C_4  and  C_5
REMARK    5  A    between atoms: C_5  and  S_6
REMARK    6  A    between atoms: C_7  and  O_8
REMARK                            x       y       z     vdW  Elec       q    Type
REMARK                         _______ _______ _______ _____ _____    ______ ____
ROOT
ATOM      1  CA  UNL     1       8.132  -5.293  25.619  0.00  0.00    +0.161 C 
ENDROOT
BRANCH   1   2
ATOM      2  N   UNL     1       8.153  -5.570  27.096  0.00  0.00    -0.318 NA
ATOM      3  H1  UNL     1       8.767  -4.882  27.548  0.00  0.00    +0.119 HD
ATOM      4  H2  UNL     1       7.224  -5.352  27.467  0.00  0.00    +0.119 HD
ENDBRANCH   1   2
BRANCH   1   5
ATOM      5  C   UNL     1       9.541  -4.819  25.205  0.00  0.00    +0.322 C 
ATOM      6  OXT UNL     1       9.783  -3.904  24.438  0.00  0.00    -0.249 OA
BRANCH   5   7
ATOM      7  O   UNL     1      10.507  -5.576  25.786  0.00  0.00    -0.480 OA
ATOM      8  H   UNL     1      10.196  -6.513  25.704  0.00  0.00    +0.295 HD
ENDBRANCH   5   7
ENDBRANCH   1   5
BRANCH   1   9
ATOM      9  C   UNL     1       7.038  -4.264  25.311  0.00  0.00    +0.040 C 
BRANCH   9  10
ATOM     10  C   UNL     1       5.988  -4.769  24.321  0.00  0.00    +0.067 C 
BRANCH  10  11
ATOM     11  S   UNL     1       6.721  -4.946  22.663  0.00  0.00    -0.178 S 
ATOM     12  H   UNL     1       6.082  -6.072  22.318  0.00  0.00    +0.102 HD
ENDBRANCH  10  11
ENDBRANCH   9  10
ENDBRANCH   1   9
TORSDOF 6
ENDMDL
MODEL 5
REMARK VINA RESULT:      -3.4     10.101     10.612
REMARK  Name = 
REMARK  6 active torsions:
REMARK  status: ('A' for Active; 'I' for Inactive)
REMARK    1  A    between atoms: N_1  and  CA_2
REMARK    2  A    between atoms: CA_2  and  C_4
REMARK    3  A    between atoms: CA_2  and  C_7
REMARK    4  A    between atoms: C_4  and  C_5
REMARK    5  A    between atoms: C_5  and  S_6
REMARK    6  A    between atoms: C_7  and  O_8
REMARK                            x       y       z     vdW  Elec       q    Type
REMARK                         _______ _______ _______ _____ _____    ______ ____
ROOT
ATOM      1  CA  UNL     1       8.046  -4.761  26.031  0.00  0.00    +0.161 C 
ENDROOT
BRANCH   1   2
ATOM      2  N   UNL     1       8.170  -5.669  27.221  0.00  0.00    -0.318 NA
ATOM      3  H1  UNL     1       9.063  -5.474  27.688  0.00  0.00    +0.119 HD
ATOM      4  H2  UNL     1       7.466  -5.380  27.907  0.00  0.00    +0.119 HD
ENDBRANCH   1   2
BRANCH   1   5
ATOM      5  C   UNL     1       8.946  -5.323  24.910  0.00  0.00    +0.322 C 
ATOM      6  OXT UNL     1       8.613  -5.489  23.750  0.00  0.00    -0.249 OA
BRANCH   5   7
ATOM      7  O   UNL     1      10.178  -5.647  25.382  0.00  0.00    -0.480 OA
ATOM      8  H   UNL     1      10.809  -5.043  24.913  0.00  0.00    +0.295 HD
ENDBRANCH   5   7
ENDBRANCH   1   5
BRANCH   1   9
ATOM      9  C   UNL     1       8.421  -3.332  26.440  0.00  0.00    +0.040 C 
BRANCH   9  10
ATOM     10  C   UNL     1       7.897  -2.265  25.476  0.00  0.00    +0.067 C 
BRANCH  10  11
ATOM     11  S   UNL     1       9.271  -1.558  24.514  0.00  0.00    -0.178 S 
ATOM     12  H   UNL     1       9.295  -0.360  25.115  0.00  0.00    +0.102 HD
ENDBRANCH  10  11
ENDBRANCH   9  10
ENDBRANCH   1   9
TORSDOF 6
ENDMDL
MODEL 6
REMARK VINA RESULT:      -3.4      5.602      6.030
REMARK  Name = 
REMARK  6 active torsions:
REMARK  status: ('A' for Active; 'I' for Inactive)
REMARK    1  A    between atoms: N_1  and  CA_2
REMARK    2  A    between atoms: CA_2  and  C_4
REMARK    3  A    between atoms: CA_2  and  C_7
REMARK    4  A    between atoms: C_4  and  C_5
REMARK    5  A    between atoms: C_5  and  S_6
REMARK    6  A    between atoms: C_7  and  O_8
REMARK                            x       y       z     vdW  Elec       q    Type
REMARK                         _______ _______ _______ _____ _____    ______ ____
ROOT
ATOM      1  CA  UNL     1       9.402   0.045  22.372  0.00  0.00    +0.161 C 
ENDROOT
BRANCH   1   2
ATOM      2  N   UNL     1       9.759  -0.903  21.264  0.00  0.00    -0.318 NA
ATOM      3  H1  UNL     1       9.110  -1.698  21.292  0.00  0.00    +0.119 HD
ATOM      4  H2  UNL     1       9.542  -0.440  20.376  0.00  0.00    +0.119 HD
ENDBRANCH   1   2
BRANCH   1   5
ATOM      5  C   UNL     1       9.082   1.416  21.740  0.00  0.00    +0.322 C 
ATOM      6  OXT UNL     1       7.976   1.798  21.398  0.00  0.00    -0.249 OA
BRANCH   5   7
ATOM      7  O   UNL     1      10.207   2.159  21.576  0.00  0.00    -0.480 OA
ATOM      8  H   UNL     1      10.961   1.546  21.771  0.00  0.00    +0.295 HD
ENDBRANCH   5   7
ENDBRANCH   1   5
BRANCH   1   9
ATOM      9  C   UNL     1      10.554   0.106  23.381  0.00  0.00    +0.040 C 
BRANCH   9  10
ATOM     10  C   UNL     1      10.128   0.608  24.763  0.00  0.00    +0.067 C 
BRANCH  10  11
ATOM     11  S   UNL     1       9.001  -0.588  25.546  0.00  0.00    -0.178 S 
ATOM     12  H   UNL     1       8.313  -0.914  24.444  0.00  0.00    +0.102 HD
ENDBRANCH  10  11
ENDBRANCH   9  10
ENDBRANCH   1   9
TORSDOF 6
ENDMDL
MODEL 7
REMARK VINA RESULT:      -3.4     10.606     10.950
REMARK  Name = 
REMARK  6 active torsions:
REMARK  status: ('A' for Active; 'I' for Inactive)
REMARK    1  A    between atoms: N_1  and  CA_2
REMARK    2  A    between atoms: CA_2  and  C_4
REMARK    3  A    between atoms: CA_2  and  C_7
REMARK    4  A    between atoms: C_4  and  C_5
REMARK    5  A    between atoms: C_5  and  S_6
REMARK    6  A    between atoms: C_7  and  O_8
REMARK                            x       y       z     vdW  Elec       q    Type
REMARK                         _______ _______ _______ _____ _____    ______ ____
ROOT
ATOM      1  CA  UNL     1       8.562  -4.150  24.697  0.00  0.00    +0.161 C 
ENDROOT
BRANCH   1   2
ATOM      2  N   UNL     1       9.734  -3.427  24.097  0.00  0.00    -0.318 NA
ATOM      3  H1  UNL     1       9.742  -3.602  23.085  0.00  0.00    +0.119 HD
ATOM      4  H2  UNL     1       9.550  -2.422  24.171  0.00  0.00    +0.119 HD
ENDBRANCH   1   2
BRANCH   1   5
ATOM      5  C   UNL     1       9.049  -4.863  25.977  0.00  0.00    +0.322 C 
ATOM      6  OXT UNL     1       8.492  -4.833  27.060  0.00  0.00    -0.249 OA
BRANCH   5   7
ATOM      7  O   UNL     1      10.217  -5.523  25.760  0.00  0.00    -0.480 OA
ATOM      8  H   UNL     1       9.958  -6.402  25.383  0.00  0.00    +0.295 HD
ENDBRANCH   5   7
ENDBRANCH   1   5
BRANCH   1   9
ATOM      9  C   UNL     1       7.976  -5.115  23.660  0.00  0.00    +0.040 C 
BRANCH   9  10
ATOM     10  C   UNL     1       7.267  -4.408  22.503  0.00  0.00    +0.067 C 
BRANCH  10  11
ATOM     11  S   UNL     1       6.474  -5.631  21.411  0.00  0.00    -0.178 S 
ATOM     12  H   UNL     1       7.553  -6.399  21.211  0.00  0.00    +0.102 HD
ENDBRANCH  10  11
ENDBRANCH   9  10
ENDBRANCH   1   9
TORSDOF 6
ENDMDL
MODEL 8
REMARK VINA RESULT:      -3.3      5.363      5.836
REMARK  Name = 
REMARK  6 active torsions:
REMARK  status: ('A' for Active; 'I' for Inactive)
REMARK    1  A    between atoms: N_1  and  CA_2
REMARK    2  A    between atoms: CA_2  and  C_4
REMARK    3  A    between atoms: CA_2  and  C_7
REMARK    4  A    between atoms: C_4  and  C_5
REMARK    5  A    between atoms: C_5  and  S_6
REMARK    6  A    between atoms: C_7  and  O_8
REMARK                            x       y       z     vdW  Elec       q    Type
REMARK                         _______ _______ _______ _____ _____    ______ ____
ROOT
ATOM      1  CA  UNL     1       9.595   1.120  22.673  0.00  0.00    +0.161 C 
ENDROOT
BRANCH   1   2
ATOM      2  N   UNL     1      10.119   2.218  21.792  0.00  0.00    -0.318 NA
ATOM      3  H1  UNL     1      11.140   2.259  21.894  0.00  0.00    +0.119 HD
ATOM      4  H2  UNL     1       9.981   1.930  20.819  0.00  0.00    +0.119 HD
ENDBRANCH   1   2
BRANCH   1   5
ATOM      5  C   UNL     1      10.232   1.286  24.069  0.00  0.00    +0.322 C 
ATOM      6  OXT UNL     1      11.324   0.862  24.404  0.00  0.00    -0.249 OA
BRANCH   5   7
ATOM      7  O   UNL     1       9.403   1.952  24.914  0.00  0.00    -0.480 OA
ATOM      8  H   UNL     1       8.551   1.446  24.904  0.00  0.00    +0.295 HD
ENDBRANCH   5   7
ENDBRANCH   1   5
BRANCH   1   9
ATOM      9  C   UNL     1       9.905  -0.237  22.031  0.00  0.00    +0.040 C 
BRANCH   9  10
ATOM     10  C   UNL     1       8.926  -1.341  22.438  0.00  0.00    +0.067 C 
BRANCH  10  11
ATOM     11  S   UNL     1       9.666  -2.392  23.728  0.00  0.00    -0.178 S 
ATOM     12  H   UNL     1       8.532  -2.674  24.383  0.00  0.00    +0.102 HD
ENDBRANCH  10  11
ENDBRANCH   9  10
ENDBRANCH   1   9
TORSDOF 6
ENDMDL
MODEL 9
REMARK VINA RESULT:      -3.3      6.404      6.855
REMARK  Name = 
REMARK  6 active torsions:
REMARK  status: ('A' for Active; 'I' for Inactive)
REMARK    1  A    between atoms: N_1  and  CA_2
REMARK    2  A    between atoms: CA_2  and  C_4
REMARK    3  A    between atoms: CA_2  and  C_7
REMARK    4  A    between atoms: C_4  and  C_5
REMARK    5  A    between atoms: C_5  and  S_6
REMARK    6  A    between atoms: C_7  and  O_8
REMARK                            x       y       z     vdW  Elec       q    Type
REMARK                         _______ _______ _______ _____ _____    ______ ____
ROOT
ATOM      1  CA  UNL     1       9.615  -0.661  23.976  0.00  0.00    +0.161 C 
ENDROOT
BRANCH   1   2
ATOM      2  N   UNL     1       8.848  -1.053  25.206  0.00  0.00    -0.318 NA
ATOM      3  H1  UNL     1       7.963  -0.532  25.219  0.00  0.00    +0.119 HD
ATOM      4  H2  UNL     1       8.556  -2.028  25.093  0.00  0.00    +0.119 HD
ENDBRANCH   1   2
BRANCH   1   5
ATOM      5  C   UNL     1      10.120  -1.953  23.300  0.00  0.00    +0.322 C 
ATOM      6  OXT UNL     1      10.217  -3.042  23.837  0.00  0.00    -0.249 OA
BRANCH   5   7
ATOM      7  O   UNL     1      10.479  -1.727  22.009  0.00  0.00    -0.480 OA
ATOM      8  H   UNL     1      10.322  -2.583  21.536  0.00  0.00    +0.295 HD
ENDBRANCH   5   7
ENDBRANCH   1   5
BRANCH   1   9
ATOM      9  C   UNL     1      10.750   0.292  24.368  0.00  0.00    +0.040 C 
BRANCH   9  10
ATOM     10  C   UNL     1      10.506   1.740  23.936  0.00  0.00    +0.067 C 
BRANCH  10  11
ATOM     11  S   UNL     1       9.882   1.789  22.226  0.00  0.00    -0.178 S 
ATOM     12  H   UNL     1      11.046   2.089  21.634  0.00  0.00    +0.102 HD
ENDBRANCH  10  11
ENDBRANCH   9  10
ENDBRANCH   1   9
TORSDOF 6
ENDMDL
