MODEL 1
REMARK VINA RESULT:      -5.2      0.000      0.000
REMARK  Name = 
REMARK  17 active torsions:
REMARK  status: ('A' for Active; 'I' for Inactive)
REMARK    1  A    between atoms: C_2  and  O_3
REMARK    2  A    between atoms: C_2  and  C_4
REMARK    3  A    between atoms: C_2  and  C_9
REMARK    4  A    between atoms: C_4  and  C_5
REMARK    5  A    between atoms: C_5  and  C_6
REMARK    6  A    between atoms: C_6  and  O_7
REMARK    7  A    between atoms: C_10  and  C_11
REMARK    8  A    between atoms: C_12  and  C_13
REMARK    9  A    between atoms: C_13  and  C_14
REMARK   10  A    between atoms: C_15  and  C_16
REMARK   11  A    between atoms: C_16  and  C_17
REMARK   12  A    between atoms: C_18  and  C_19
REMARK   13  A    between atoms: C_19  and  C_20
REMARK   14  A    between atoms: C_21  and  C_22
REMARK   15  A    between atoms: C_22  and  C_23
REMARK   16  A    between atoms: C_24  and  C_25
REMARK   17  A    between atoms: C_25  and  C_26
REMARK                            x       y       z     vdW  Elec       q    Type
REMARK                         _______ _______ _______ _____ _____    ______ ____
ROOT
ATOM      1  C   UNL     1       8.777  -3.267  25.673  0.00  0.00    +0.054 C 
ENDROOT
BRANCH   1   2
ATOM      2  C   UNL     1       8.821  -4.453  26.590  0.00  0.00    -0.027 C 
ATOM      3  C   UNL     1       7.828  -5.342  26.766  0.00  0.00    -0.027 C 
BRANCH   3   4
ATOM      4  C   UNL     1       6.449  -5.254  26.178  0.00  0.00    +0.053 C 
BRANCH   4   5
ATOM      5  C   UNL     1       5.537  -4.351  26.964  0.00  0.00    -0.027 C 
ATOM      6  C   UNL     1       4.768  -3.396  26.416  0.00  0.00    -0.027 C 
BRANCH   6   7
ATOM      7  C   UNL     1       4.663  -3.099  24.944  0.00  0.00    +0.053 C 
BRANCH   7   8
ATOM      8  C   UNL     1       5.468  -1.894  24.547  0.00  0.00    -0.027 C 
ATOM      9  C   UNL     1       6.197  -1.815  23.420  0.00  0.00    -0.027 C 
BRANCH   9  10
ATOM     10  C   UNL     1       6.253  -2.865  22.348  0.00  0.00    +0.053 C 
BRANCH  10  11
ATOM     11  C   UNL     1       7.332  -3.881  22.592  0.00  0.00    -0.027 C 
ATOM     12  C   UNL     1       7.183  -5.207  22.430  0.00  0.00    -0.031 C 
BRANCH  12  13
ATOM     13  C   UNL     1       5.935  -5.899  21.959  0.00  0.00    +0.023 C 
ATOM     14  C   UNL     1       5.020  -6.255  23.122  0.00  0.00    +0.008 C 
ENDBRANCH  12  13
ENDBRANCH  10  11
ENDBRANCH   9  10
ENDBRANCH   7   8
ENDBRANCH   6   7
ENDBRANCH   4   5
ENDBRANCH   3   4
ENDBRANCH   1   2
BRANCH   1  16
ATOM     15  C   UNL     1       9.041  -0.776  25.902  0.00  0.00    -0.004 C 
ATOM     16  C   UNL     1       8.622  -1.956  26.391  0.00  0.00    -0.023 C 
BRANCH  15  18
ATOM     17  C   UNL     1       9.133  -0.421  23.464  0.00  0.00    +0.004 C 
ATOM     18  C   UNL     1       9.732  -0.637  24.643  0.00  0.00    -0.002 C 
BRANCH  17  19
ATOM     19  C   UNL     1       9.925  -0.136  22.219  0.00  0.00    +0.138 C 
BRANCH  19  20
ATOM     20  O   UNL     1      10.159  -1.356  21.535  0.00  0.00    -0.388 OA
ATOM     21  H   UNL     1      10.691  -1.929  22.112  0.00  0.00    +0.210 HD
ENDBRANCH  19  20
BRANCH  19  22
ATOM     22  C   UNL     1       9.200   0.854  21.300  0.00  0.00    +0.046 C 
BRANCH  22  23
ATOM     23  C   UNL     1       7.883   1.347  21.905  0.00  0.00    +0.123 C 
BRANCH  23  24
ATOM     24  C   UNL     1       7.860   2.841  22.103  0.00  0.00    +0.305 C 
ATOM     25  O   UNL     1       6.892   3.564  21.922  0.00  0.00    -0.251 OA
BRANCH  24  26
ATOM     26  O   UNL     1       9.052   3.316  22.524  0.00  0.00    -0.481 OA
ATOM     27  H   UNL     1       9.515   3.866  21.860  0.00  0.00    +0.295 HD
ENDBRANCH  24  26
ENDBRANCH  23  24
ENDBRANCH  22  23
ENDBRANCH  19  22
ENDBRANCH  17  19
ENDBRANCH  15  18
ENDBRANCH   1  16
TORSDOF 16
ENDMDL
MODEL 2
REMARK VINA RESULT:      -5.2      3.340      6.410
REMARK  Name = 
REMARK  17 active torsions:
REMARK  status: ('A' for Active; 'I' for Inactive)
REMARK    1  A    between atoms: C_2  and  O_3
REMARK    2  A    between atoms: C_2  and  C_4
REMARK    3  A    between atoms: C_2  and  C_9
REMARK    4  A    between atoms: C_4  and  C_5
REMARK    5  A    between atoms: C_5  and  C_6
REMARK    6  A    between atoms: C_6  and  O_7
REMARK    7  A    between atoms: C_10  and  C_11
REMARK    8  A    between atoms: C_12  and  C_13
REMARK    9  A    between atoms: C_13  and  C_14
REMARK   10  A    between atoms: C_15  and  C_16
REMARK   11  A    between atoms: C_16  and  C_17
REMARK   12  A    between atoms: C_18  and  C_19
REMARK   13  A    between atoms: C_19  and  C_20
REMARK   14  A    between atoms: C_21  and  C_22
REMARK   15  A    between atoms: C_22  and  C_23
REMARK   16  A    between atoms: C_24  and  C_25
REMARK   17  A    between atoms: C_25  and  C_26
REMARK                            x       y       z     vdW  Elec       q    Type
REMARK                         _______ _______ _______ _____ _____    ______ ____
ROOT
ATOM      1  C   UNL     1      10.224  -0.255  24.582  0.00  0.00    +0.054 C 
ENDROOT
BRANCH   1   2
ATOM      2  C   UNL     1      11.093   0.964  24.486  0.00  0.00    -0.027 C 
ATOM      3  C   UNL     1      10.715   2.155  23.993  0.00  0.00    -0.027 C 
BRANCH   3   4
ATOM      4  C   UNL     1       9.400   2.463  23.334  0.00  0.00    +0.053 C 
BRANCH   4   5
ATOM      5  C   UNL     1       9.222   1.742  22.025  0.00  0.00    -0.027 C 
ATOM      6  C   UNL     1       8.067   1.189  21.621  0.00  0.00    -0.027 C 
BRANCH   6   7
ATOM      7  C   UNL     1       6.769   1.229  22.382  0.00  0.00    +0.053 C 
BRANCH   7   8
ATOM      8  C   UNL     1       6.868   0.540  23.714  0.00  0.00    -0.027 C 
ATOM      9  C   UNL     1       6.624  -0.768  23.903  0.00  0.00    -0.027 C 
BRANCH   9  10
ATOM     10  C   UNL     1       6.305  -1.757  22.819  0.00  0.00    +0.053 C 
BRANCH  10  11
ATOM     11  C   UNL     1       5.523  -2.935  23.324  0.00  0.00    -0.027 C 
ATOM     12  C   UNL     1       5.763  -4.214  22.986  0.00  0.00    -0.031 C 
BRANCH  12  13
ATOM     13  C   UNL     1       6.858  -4.689  22.072  0.00  0.00    +0.023 C 
ATOM     14  C   UNL     1       6.334  -5.671  21.035  0.00  0.00    +0.008 C 
ENDBRANCH  12  13
ENDBRANCH  10  11
ENDBRANCH   9  10
ENDBRANCH   7   8
ENDBRANCH   6   7
ENDBRANCH   4   5
ENDBRANCH   3   4
ENDBRANCH   1   2
BRANCH   1  16
ATOM     15  C   UNL     1       9.930  -2.470  23.425  0.00  0.00    -0.004 C 
ATOM     16  C   UNL     1      10.395  -1.208  23.432  0.00  0.00    -0.023 C 
BRANCH  15  18
ATOM     17  C   UNL     1       9.210  -4.388  24.796  0.00  0.00    +0.004 C 
ATOM     18  C   UNL     1       9.249  -3.072  24.545  0.00  0.00    -0.002 C 
BRANCH  17  19
ATOM     19  C   UNL     1       8.611  -4.931  26.063  0.00  0.00    +0.138 C 
BRANCH  19  20
ATOM     20  O   UNL     1       9.573  -4.837  27.102  0.00  0.00    -0.388 OA
ATOM     21  H   UNL     1       9.529  -3.941  27.475  0.00  0.00    +0.210 HD
ENDBRANCH  19  20
BRANCH  19  22
ATOM     22  C   UNL     1       7.335  -4.177  26.455  0.00  0.00    +0.046 C 
BRANCH  22  23
ATOM     23  C   UNL     1       6.121  -5.105  26.551  0.00  0.00    +0.123 C 
BRANCH  23  24
ATOM     24  C   UNL     1       6.051  -5.832  27.869  0.00  0.00    +0.305 C 
ATOM     25  O   UNL     1       6.401  -5.377  28.948  0.00  0.00    -0.251 OA
BRANCH  24  26
ATOM     26  O   UNL     1       5.540  -7.075  27.738  0.00  0.00    -0.481 OA
ATOM     27  H   UNL     1       5.839  -7.700  28.428  0.00  0.00    +0.295 HD
ENDBRANCH  24  26
ENDBRANCH  23  24
ENDBRANCH  22  23
ENDBRANCH  19  22
ENDBRANCH  17  19
ENDBRANCH  15  18
ENDBRANCH   1  16
TORSDOF 16
ENDMDL
MODEL 3
REMARK VINA RESULT:      -5.2      2.978      7.068
REMARK  Name = 
REMARK  17 active torsions:
REMARK  status: ('A' for Active; 'I' for Inactive)
REMARK    1  A    between atoms: C_2  and  O_3
REMARK    2  A    between atoms: C_2  and  C_4
REMARK    3  A    between atoms: C_2  and  C_9
REMARK    4  A    between atoms: C_4  and  C_5
REMARK    5  A    between atoms: C_5  and  C_6
REMARK    6  A    between atoms: C_6  and  O_7
REMARK    7  A    between atoms: C_10  and  C_11
REMARK    8  A    between atoms: C_12  and  C_13
REMARK    9  A    between atoms: C_13  and  C_14
REMARK   10  A    between atoms: C_15  and  C_16
REMARK   11  A    between atoms: C_16  and  C_17
REMARK   12  A    between atoms: C_18  and  C_19
REMARK   13  A    between atoms: C_19  and  C_20
REMARK   14  A    between atoms: C_21  and  C_22
REMARK   15  A    between atoms: C_22  and  C_23
REMARK   16  A    between atoms: C_24  and  C_25
REMARK   17  A    between atoms: C_25  and  C_26
REMARK                            x       y       z     vdW  Elec       q    Type
REMARK                         _______ _______ _______ _____ _____    ______ ____
ROOT
ATOM      1  C   UNL     1       9.004   0.599  21.757  0.00  0.00    +0.054 C 
ENDROOT
BRANCH   1   2
ATOM      2  C   UNL     1       9.865   1.816  21.924  0.00  0.00    -0.027 C 
ATOM      3  C   UNL     1      10.185   2.391  23.096  0.00  0.00    -0.027 C 
BRANCH   3   4
ATOM      4  C   UNL     1       9.649   2.006  24.445  0.00  0.00    +0.053 C 
BRANCH   4   5
ATOM      5  C   UNL     1      10.078   0.629  24.871  0.00  0.00    -0.027 C 
ATOM      6  C   UNL     1       9.342  -0.183  25.648  0.00  0.00    -0.027 C 
BRANCH   6   7
ATOM      7  C   UNL     1       7.971   0.130  26.182  0.00  0.00    +0.053 C 
BRANCH   7   8
ATOM      8  C   UNL     1       6.882  -0.507  25.365  0.00  0.00    -0.027 C 
ATOM      9  C   UNL     1       6.035   0.177  24.577  0.00  0.00    -0.027 C 
BRANCH   9  10
ATOM     10  C   UNL     1       6.093   1.656  24.319  0.00  0.00    +0.053 C 
BRANCH  10  11
ATOM     11  C   UNL     1       6.100   1.985  22.854  0.00  0.00    -0.027 C 
ATOM     12  C   UNL     1       6.288   3.217  22.349  0.00  0.00    -0.031 C 
BRANCH  12  13
ATOM     13  C   UNL     1       6.545   4.463  23.149  0.00  0.00    +0.023 C 
ATOM     14  C   UNL     1       7.642   5.312  22.525  0.00  0.00    +0.008 C 
ENDBRANCH  12  13
ENDBRANCH  10  11
ENDBRANCH   9  10
ENDBRANCH   7   8
ENDBRANCH   6   7
ENDBRANCH   4   5
ENDBRANCH   3   4
ENDBRANCH   1   2
BRANCH   1  16
ATOM     15  C   UNL     1       9.242  -1.897  21.974  0.00  0.00    -0.004 C 
ATOM     16  C   UNL     1       9.781  -0.688  21.734  0.00  0.00    -0.023 C 
BRANCH  15  18
ATOM     17  C   UNL     1       7.343  -3.243  22.785  0.00  0.00    +0.004 C 
ATOM     18  C   UNL     1       7.857  -2.094  22.327  0.00  0.00    -0.002 C 
BRANCH  17  19
ATOM     19  C   UNL     1       5.925  -3.332  23.276  0.00  0.00    +0.138 C 
BRANCH  19  20
ATOM     20  O   UNL     1       5.121  -3.896  22.253  0.00  0.00    -0.388 OA
ATOM     21  H   UNL     1       5.313  -3.428  21.424  0.00  0.00    +0.210 HD
ENDBRANCH  19  20
BRANCH  19  22
ATOM     22  C   UNL     1       5.820  -4.170  24.555  0.00  0.00    +0.046 C 
BRANCH  22  23
ATOM     23  C   UNL     1       7.176  -4.352  25.241  0.00  0.00    +0.123 C 
BRANCH  23  24
ATOM     24  C   UNL     1       7.136  -5.388  26.336  0.00  0.00    +0.305 C 
ATOM     25  O   UNL     1       6.252  -6.217  26.494  0.00  0.00    -0.251 OA
BRANCH  24  26
ATOM     26  O   UNL     1       8.214  -5.313  27.147  0.00  0.00    -0.481 OA
ATOM     27  H   UNL     1       8.132  -5.846  27.963  0.00  0.00    +0.295 HD
ENDBRANCH  24  26
ENDBRANCH  23  24
ENDBRANCH  22  23
ENDBRANCH  19  22
ENDBRANCH  17  19
ENDBRANCH  15  18
ENDBRANCH   1  16
TORSDOF 16
ENDMDL
MODEL 4
REMARK VINA RESULT:      -5.2      1.493      3.324
REMARK  Name = 
REMARK  17 active torsions:
REMARK  status: ('A' for Active; 'I' for Inactive)
REMARK    1  A    between atoms: C_2  and  O_3
REMARK    2  A    between atoms: C_2  and  C_4
REMARK    3  A    between atoms: C_2  and  C_9
REMARK    4  A    between atoms: C_4  and  C_5
REMARK    5  A    between atoms: C_5  and  C_6
REMARK    6  A    between atoms: C_6  and  O_7
REMARK    7  A    between atoms: C_10  and  C_11
REMARK    8  A    between atoms: C_12  and  C_13
REMARK    9  A    between atoms: C_13  and  C_14
REMARK   10  A    between atoms: C_15  and  C_16
REMARK   11  A    between atoms: C_16  and  C_17
REMARK   12  A    between atoms: C_18  and  C_19
REMARK   13  A    between atoms: C_19  and  C_20
REMARK   14  A    between atoms: C_21  and  C_22
REMARK   15  A    between atoms: C_22  and  C_23
REMARK   16  A    between atoms: C_24  and  C_25
REMARK   17  A    between atoms: C_25  and  C_26
REMARK                            x       y       z     vdW  Elec       q    Type
REMARK                         _______ _______ _______ _____ _____    ______ ____
ROOT
ATOM      1  C   UNL     1      10.062  -0.951  23.751  0.00  0.00    +0.054 C 
ENDROOT
BRANCH   1   2
ATOM      2  C   UNL     1       8.852  -1.019  24.636  0.00  0.00    -0.027 C 
ATOM      3  C   UNL     1       8.411  -2.119  25.270  0.00  0.00    -0.027 C 
BRANCH   3   4
ATOM      4  C   UNL     1       8.963  -3.508  25.122  0.00  0.00    +0.053 C 
BRANCH   4   5
ATOM      5  C   UNL     1       8.785  -4.341  26.361  0.00  0.00    -0.027 C 
ATOM      6  C   UNL     1       7.672  -5.037  26.647  0.00  0.00    -0.027 C 
BRANCH   6   7
ATOM      7  C   UNL     1       6.452  -5.128  25.771  0.00  0.00    +0.053 C 
BRANCH   7   8
ATOM      8  C   UNL     1       5.470  -4.024  26.046  0.00  0.00    -0.027 C 
ATOM      9  C   UNL     1       4.739  -3.415  25.098  0.00  0.00    -0.027 C 
BRANCH   9  10
ATOM     10  C   UNL     1       4.719  -3.790  23.643  0.00  0.00    +0.053 C 
BRANCH  10  11
ATOM     11  C   UNL     1       5.667  -2.964  22.822  0.00  0.00    -0.027 C 
ATOM     12  C   UNL     1       6.747  -3.447  22.185  0.00  0.00    -0.031 C 
BRANCH  12  13
ATOM     13  C   UNL     1       7.181  -4.886  22.162  0.00  0.00    +0.023 C 
ATOM     14  C   UNL     1       6.419  -5.683  21.114  0.00  0.00    +0.008 C 
ENDBRANCH  12  13
ENDBRANCH  10  11
ENDBRANCH   9  10
ENDBRANCH   7   8
ENDBRANCH   6   7
ENDBRANCH   4   5
ENDBRANCH   3   4
ENDBRANCH   1   2
BRANCH   1  16
ATOM     15  C   UNL     1       9.401  -0.466  21.373  0.00  0.00    -0.004 C 
ATOM     16  C   UNL     1       9.787  -1.335  22.324  0.00  0.00    -0.023 C 
BRANCH  15  18
ATOM     17  C   UNL     1       7.954   1.479  21.819  0.00  0.00    +0.004 C 
ATOM     18  C   UNL     1       9.162   0.934  21.624  0.00  0.00    -0.002 C 
BRANCH  17  19
ATOM     19  C   UNL     1       7.794   2.917  22.226  0.00  0.00    +0.138 C 
BRANCH  19  20
ATOM     20  O   UNL     1       6.600   3.426  21.653  0.00  0.00    -0.388 OA
ATOM     21  H   UNL     1       6.805   4.274  21.227  0.00  0.00    +0.210 HD
ENDBRANCH  19  20
BRANCH  19  22
ATOM     22  C   UNL     1       7.758   3.074  23.750  0.00  0.00    +0.046 C 
BRANCH  22  23
ATOM     23  C   UNL     1       9.161   3.102  24.363  0.00  0.00    +0.123 C 
BRANCH  23  24
ATOM     24  C   UNL     1      10.044   4.152  23.738  0.00  0.00    +0.305 C 
ATOM     25  O   UNL     1       9.871   5.359  23.814  0.00  0.00    -0.251 OA
BRANCH  24  26
ATOM     26  O   UNL     1      11.085   3.609  23.070  0.00  0.00    -0.481 OA
ATOM     27  H   UNL     1      11.147   2.637  23.157  0.00  0.00    +0.295 HD
ENDBRANCH  24  26
ENDBRANCH  23  24
ENDBRANCH  22  23
ENDBRANCH  19  22
ENDBRANCH  17  19
ENDBRANCH  15  18
ENDBRANCH   1  16
TORSDOF 16
ENDMDL
MODEL 5
REMARK VINA RESULT:      -5.2      3.213      7.154
REMARK  Name = 
REMARK  17 active torsions:
REMARK  status: ('A' for Active; 'I' for Inactive)
REMARK    1  A    between atoms: C_2  and  O_3
REMARK    2  A    between atoms: C_2  and  C_4
REMARK    3  A    between atoms: C_2  and  C_9
REMARK    4  A    between atoms: C_4  and  C_5
REMARK    5  A    between atoms: C_5  and  C_6
REMARK    6  A    between atoms: C_6  and  O_7
REMARK    7  A    between atoms: C_10  and  C_11
REMARK    8  A    between atoms: C_12  and  C_13
REMARK    9  A    between atoms: C_13  and  C_14
REMARK   10  A    between atoms: C_15  and  C_16
REMARK   11  A    between atoms: C_16  and  C_17
REMARK   12  A    between atoms: C_18  and  C_19
REMARK   13  A    between atoms: C_19  and  C_20
REMARK   14  A    between atoms: C_21  and  C_22
REMARK   15  A    between atoms: C_22  and  C_23
REMARK   16  A    between atoms: C_24  and  C_25
REMARK   17  A    between atoms: C_25  and  C_26
REMARK                            x       y       z     vdW  Elec       q    Type
REMARK                         _______ _______ _______ _____ _____    ______ ____
ROOT
ATOM      1  C   UNL     1       7.423  -4.076  22.699  0.00  0.00    +0.054 C 
ENDROOT
BRANCH   1   2
ATOM      2  C   UNL     1       6.862  -2.742  22.300  0.00  0.00    -0.027 C 
ATOM      3  C   UNL     1       6.433  -1.791  23.148  0.00  0.00    -0.027 C 
BRANCH   3   4
ATOM      4  C   UNL     1       6.317  -1.923  24.640  0.00  0.00    +0.053 C 
BRANCH   4   5
ATOM      5  C   UNL     1       6.501  -0.613  25.357  0.00  0.00    -0.027 C 
ATOM      6  C   UNL     1       7.683  -0.160  25.806  0.00  0.00    -0.027 C 
BRANCH   6   7
ATOM      7  C   UNL     1       9.005  -0.859  25.638  0.00  0.00    +0.053 C 
BRANCH   7   8
ATOM      8  C   UNL     1      10.089   0.076  25.180  0.00  0.00    -0.027 C 
ATOM      9  C   UNL     1      10.463   0.223  23.898  0.00  0.00    -0.027 C 
BRANCH   9  10
ATOM     10  C   UNL     1       9.809  -0.445  22.722  0.00  0.00    +0.053 C 
BRANCH  10  11
ATOM     11  C   UNL     1       9.607   0.492  21.566  0.00  0.00    -0.027 C 
ATOM     12  C   UNL     1       8.581   1.354  21.451  0.00  0.00    -0.031 C 
BRANCH  12  13
ATOM     13  C   UNL     1       7.482   1.548  22.458  0.00  0.00    +0.023 C 
ATOM     14  C   UNL     1       7.768   2.724  23.379  0.00  0.00    +0.008 C 
ENDBRANCH  12  13
ENDBRANCH  10  11
ENDBRANCH   9  10
ENDBRANCH   7   8
ENDBRANCH   6   7
ENDBRANCH   4   5
ENDBRANCH   3   4
ENDBRANCH   1   2
BRANCH   1  16
ATOM     15  C   UNL     1       6.086  -6.029  21.845  0.00  0.00    -0.004 C 
ATOM     16  C   UNL     1       7.116  -5.174  21.719  0.00  0.00    -0.023 C 
BRANCH  15  18
ATOM     17  C   UNL     1       5.256  -6.839  24.021  0.00  0.00    +0.004 C 
ATOM     18  C   UNL     1       5.176  -6.018  22.965  0.00  0.00    -0.002 C 
BRANCH  17  19
ATOM     19  C   UNL     1       4.366  -6.670  25.220  0.00  0.00    +0.138 C 
BRANCH  19  20
ATOM     20  O   UNL     1       3.608  -7.856  25.399  0.00  0.00    -0.388 OA
ATOM     21  H   UNL     1       3.457  -7.977  26.351  0.00  0.00    +0.210 HD
ENDBRANCH  19  20
BRANCH  19  22
ATOM     22  C   UNL     1       5.174  -6.362  26.486  0.00  0.00    +0.046 C 
BRANCH  22  23
ATOM     23  C   UNL     1       6.183  -5.232  26.269  0.00  0.00    +0.123 C 
BRANCH  23  24
ATOM     24  C   UNL     1       7.378  -5.340  27.182  0.00  0.00    +0.305 C 
ATOM     25  O   UNL     1       8.448  -4.773  27.017  0.00  0.00    -0.251 OA
BRANCH  24  26
ATOM     26  O   UNL     1       7.138  -6.144  28.240  0.00  0.00    -0.481 OA
ATOM     27  H   UNL     1       6.349  -5.891  28.758  0.00  0.00    +0.295 HD
ENDBRANCH  24  26
ENDBRANCH  23  24
ENDBRANCH  22  23
ENDBRANCH  19  22
ENDBRANCH  17  19
ENDBRANCH  15  18
ENDBRANCH   1  16
TORSDOF 16
ENDMDL
MODEL 6
REMARK VINA RESULT:      -5.1      3.370      8.249
REMARK  Name = 
REMARK  17 active torsions:
REMARK  status: ('A' for Active; 'I' for Inactive)
REMARK    1  A    between atoms: C_2  and  O_3
REMARK    2  A    between atoms: C_2  and  C_4
REMARK    3  A    between atoms: C_2  and  C_9
REMARK    4  A    between atoms: C_4  and  C_5
REMARK    5  A    between atoms: C_5  and  C_6
REMARK    6  A    between atoms: C_6  and  O_7
REMARK    7  A    between atoms: C_10  and  C_11
REMARK    8  A    between atoms: C_12  and  C_13
REMARK    9  A    between atoms: C_13  and  C_14
REMARK   10  A    between atoms: C_15  and  C_16
REMARK   11  A    between atoms: C_16  and  C_17
REMARK   12  A    between atoms: C_18  and  C_19
REMARK   13  A    between atoms: C_19  and  C_20
REMARK   14  A    between atoms: C_21  and  C_22
REMARK   15  A    between atoms: C_22  and  C_23
REMARK   16  A    between atoms: C_24  and  C_25
REMARK   17  A    between atoms: C_25  and  C_26
REMARK                            x       y       z     vdW  Elec       q    Type
REMARK                         _______ _______ _______ _____ _____    ______ ____
ROOT
ATOM      1  C   UNL     1      10.220  -0.282  24.125  0.00  0.00    +0.054 C 
ENDROOT
BRANCH   1   2
ATOM      2  C   UNL     1      10.500   1.165  24.409  0.00  0.00    -0.027 C 
ATOM      3  C   UNL     1       9.596   2.159  24.360  0.00  0.00    -0.027 C 
BRANCH   3   4
ATOM      4  C   UNL     1       8.173   2.037  23.897  0.00  0.00    +0.053 C 
BRANCH   4   5
ATOM      5  C   UNL     1       8.028   2.204  22.409  0.00  0.00    -0.027 C 
ATOM      6  C   UNL     1       7.387   3.229  21.824  0.00  0.00    -0.027 C 
BRANCH   6   7
ATOM      7  C   UNL     1       6.749   4.384  22.547  0.00  0.00    +0.053 C 
BRANCH   7   8
ATOM      8  C   UNL     1       7.378   5.700  22.186  0.00  0.00    -0.027 C 
ATOM      9  C   UNL     1       8.309   6.318  22.933  0.00  0.00    -0.027 C 
BRANCH   9  10
ATOM     10  C   UNL     1       8.926   5.763  24.185  0.00  0.00    +0.053 C 
BRANCH  10  11
ATOM     11  C   UNL     1      10.156   6.515  24.604  0.00  0.00    -0.027 C 
ATOM     12  C   UNL     1      11.414   6.164  24.282  0.00  0.00    -0.031 C 
BRANCH  12  13
ATOM     13  C   UNL     1      11.806   4.985  23.437  0.00  0.00    +0.023 C 
ATOM     14  C   UNL     1      13.200   5.155  22.852  0.00  0.00    +0.008 C 
ENDBRANCH  12  13
ENDBRANCH  10  11
ENDBRANCH   9  10
ENDBRANCH   7   8
ENDBRANCH   6   7
ENDBRANCH   4   5
ENDBRANCH   3   4
ENDBRANCH   1   2
BRANCH   1  16
ATOM     15  C   UNL     1       9.578  -1.197  21.872  0.00  0.00    -0.004 C 
ATOM     16  C   UNL     1      10.500  -0.680  22.703  0.00  0.00    -0.023 C 
BRANCH  15  18
ATOM     17  C   UNL     1       7.692  -2.697  22.392  0.00  0.00    +0.004 C 
ATOM     18  C   UNL     1       8.217  -1.471  22.265  0.00  0.00    -0.002 C 
BRANCH  17  19
ATOM     19  C   UNL     1       6.314  -2.909  22.952  0.00  0.00    +0.138 C 
BRANCH  19  20
ATOM     20  O   UNL     1       5.365  -2.742  21.910  0.00  0.00    -0.388 OA
ATOM     21  H   UNL     1       5.525  -3.429  21.242  0.00  0.00    +0.210 HD
ENDBRANCH  19  20
BRANCH  19  22
ATOM     22  C   UNL     1       6.166  -4.299  23.583  0.00  0.00    +0.046 C 
BRANCH  22  23
ATOM     23  C   UNL     1       5.223  -5.201  22.783  0.00  0.00    +0.123 C 
BRANCH  23  24
ATOM     24  C   UNL     1       5.913  -5.876  21.625  0.00  0.00    +0.305 C 
ATOM     25  O   UNL     1       5.949  -5.455  20.479  0.00  0.00    -0.251 OA
BRANCH  24  26
ATOM     26  O   UNL     1       6.514  -7.028  21.994  0.00  0.00    -0.481 OA
ATOM     27  H   UNL     1       6.140  -7.824  21.566  0.00  0.00    +0.295 HD
ENDBRANCH  24  26
ENDBRANCH  23  24
ENDBRANCH  22  23
ENDBRANCH  19  22
ENDBRANCH  17  19
ENDBRANCH  15  18
ENDBRANCH   1  16
TORSDOF 16
ENDMDL
MODEL 7
REMARK VINA RESULT:      -5.1      3.334      6.671
REMARK  Name = 
REMARK  17 active torsions:
REMARK  status: ('A' for Active; 'I' for Inactive)
REMARK    1  A    between atoms: C_2  and  O_3
REMARK    2  A    between atoms: C_2  and  C_4
REMARK    3  A    between atoms: C_2  and  C_9
REMARK    4  A    between atoms: C_4  and  C_5
REMARK    5  A    between atoms: C_5  and  C_6
REMARK    6  A    between atoms: C_6  and  O_7
REMARK    7  A    between atoms: C_10  and  C_11
REMARK    8  A    between atoms: C_12  and  C_13
REMARK    9  A    between atoms: C_13  and  C_14
REMARK   10  A    between atoms: C_15  and  C_16
REMARK   11  A    between atoms: C_16  and  C_17
REMARK   12  A    between atoms: C_18  and  C_19
REMARK   13  A    between atoms: C_19  and  C_20
REMARK   14  A    between atoms: C_21  and  C_22
REMARK   15  A    between atoms: C_22  and  C_23
REMARK   16  A    between atoms: C_24  and  C_25
REMARK   17  A    between atoms: C_25  and  C_26
REMARK                            x       y       z     vdW  Elec       q    Type
REMARK                         _______ _______ _______ _____ _____    ______ ____
ROOT
ATOM      1  C   UNL     1       7.451  -4.504  23.075  0.00  0.00    +0.054 C 
ENDROOT
BRANCH   1   2
ATOM      2  C   UNL     1       7.012  -3.283  22.321  0.00  0.00    -0.027 C 
ATOM      3  C   UNL     1       6.319  -2.254  22.839  0.00  0.00    -0.027 C 
BRANCH   3   4
ATOM      4  C   UNL     1       5.747  -2.182  24.225  0.00  0.00    +0.053 C 
BRANCH   4   5
ATOM      5  C   UNL     1       5.824  -0.800  24.816  0.00  0.00    -0.027 C 
ATOM      6  C   UNL     1       6.871  -0.340  25.521  0.00  0.00    -0.027 C 
BRANCH   6   7
ATOM      7  C   UNL     1       8.136  -1.104  25.800  0.00  0.00    +0.053 C 
BRANCH   7   8
ATOM      8  C   UNL     1       9.365  -0.259  25.617  0.00  0.00    -0.027 C 
ATOM      9  C   UNL     1      10.074  -0.200  24.476  0.00  0.00    -0.027 C 
BRANCH   9  10
ATOM     10  C   UNL     1       9.709  -0.889  23.192  0.00  0.00    +0.053 C 
BRANCH  10  11
ATOM     11  C   UNL     1       9.898  -0.008  21.991  0.00  0.00    -0.027 C 
ATOM     12  C   UNL     1       8.995   0.884  21.548  0.00  0.00    -0.031 C 
BRANCH  12  13
ATOM     13  C   UNL     1       7.663   1.172  22.181  0.00  0.00    +0.023 C 
ATOM     14  C   UNL     1       7.725   2.398  23.081  0.00  0.00    +0.008 C 
ENDBRANCH  12  13
ENDBRANCH  10  11
ENDBRANCH   9  10
ENDBRANCH   7   8
ENDBRANCH   6   7
ENDBRANCH   4   5
ENDBRANCH   3   4
ENDBRANCH   1   2
BRANCH   1  16
ATOM     15  C   UNL     1       8.622  -4.657  25.296  0.00  0.00    -0.004 C 
ATOM     16  C   UNL     1       8.597  -4.251  24.015  0.00  0.00    -0.023 C 
BRANCH  15  18
ATOM     17  C   UNL     1       6.662  -4.784  26.786  0.00  0.00    +0.004 C 
ATOM     18  C   UNL     1       7.527  -5.349  25.933  0.00  0.00    -0.002 C 
BRANCH  17  19
ATOM     19  C   UNL     1       5.456  -5.526  27.292  0.00  0.00    +0.138 C 
BRANCH  19  20
ATOM     20  O   UNL     1       4.532  -4.590  27.822  0.00  0.00    -0.388 OA
ATOM     21  H   UNL     1       4.759  -3.711  27.476  0.00  0.00    +0.210 HD
ENDBRANCH  19  20
BRANCH  19  22
ATOM     22  C   UNL     1       4.795  -6.354  26.184  0.00  0.00    +0.046 C 
BRANCH  22  23
ATOM     23  C   UNL     1       4.142  -5.474  25.115  0.00  0.00    +0.123 C 
BRANCH  23  24
ATOM     24  C   UNL     1       4.216  -6.085  23.739  0.00  0.00    +0.305 C 
ATOM     25  O   UNL     1       4.038  -5.487  22.689  0.00  0.00    -0.251 OA
BRANCH  24  26
ATOM     26  O   UNL     1       4.515  -7.402  23.783  0.00  0.00    -0.481 OA
ATOM     27  H   UNL     1       3.822  -7.977  23.400  0.00  0.00    +0.295 HD
ENDBRANCH  24  26
ENDBRANCH  23  24
ENDBRANCH  22  23
ENDBRANCH  19  22
ENDBRANCH  17  19
ENDBRANCH  15  18
ENDBRANCH   1  16
TORSDOF 16
ENDMDL
MODEL 8
REMARK VINA RESULT:      -5.1      1.531      2.323
REMARK  Name = 
REMARK  17 active torsions:
REMARK  status: ('A' for Active; 'I' for Inactive)
REMARK    1  A    between atoms: C_2  and  O_3
REMARK    2  A    between atoms: C_2  and  C_4
REMARK    3  A    between atoms: C_2  and  C_9
REMARK    4  A    between atoms: C_4  and  C_5
REMARK    5  A    between atoms: C_5  and  C_6
REMARK    6  A    between atoms: C_6  and  O_7
REMARK    7  A    between atoms: C_10  and  C_11
REMARK    8  A    between atoms: C_12  and  C_13
REMARK    9  A    between atoms: C_13  and  C_14
REMARK   10  A    between atoms: C_15  and  C_16
REMARK   11  A    between atoms: C_16  and  C_17
REMARK   12  A    between atoms: C_18  and  C_19
REMARK   13  A    between atoms: C_19  and  C_20
REMARK   14  A    between atoms: C_21  and  C_22
REMARK   15  A    between atoms: C_22  and  C_23
REMARK   16  A    between atoms: C_24  and  C_25
REMARK   17  A    between atoms: C_25  and  C_26
REMARK                            x       y       z     vdW  Elec       q    Type
REMARK                         _______ _______ _______ _____ _____    ______ ____
ROOT
ATOM      1  C   UNL     1       8.555  -3.431  25.699  0.00  0.00    +0.054 C 
ENDROOT
BRANCH   1   2
ATOM      2  C   UNL     1       8.658  -4.622  26.606  0.00  0.00    -0.027 C 
ATOM      3  C   UNL     1       7.620  -5.320  27.098  0.00  0.00    -0.027 C 
BRANCH   3   4
ATOM      4  C   UNL     1       6.167  -4.974  26.940  0.00  0.00    +0.053 C 
BRANCH   4   5
ATOM      5  C   UNL     1       5.268  -6.177  27.036  0.00  0.00    -0.027 C 
ATOM      6  C   UNL     1       4.708  -6.786  25.977  0.00  0.00    -0.027 C 
BRANCH   6   7
ATOM      7  C   UNL     1       4.914  -6.396  24.539  0.00  0.00    +0.053 C 
BRANCH   7   8
ATOM      8  C   UNL     1       3.828  -5.488  24.034  0.00  0.00    -0.027 C 
ATOM      9  C   UNL     1       3.976  -4.164  23.857  0.00  0.00    -0.027 C 
BRANCH   9  10
ATOM     10  C   UNL     1       5.257  -3.402  24.047  0.00  0.00    +0.053 C 
BRANCH  10  11
ATOM     11  C   UNL     1       5.766  -2.803  22.768  0.00  0.00    -0.027 C 
ATOM     12  C   UNL     1       6.567  -3.437  21.894  0.00  0.00    -0.031 C 
BRANCH  12  13
ATOM     13  C   UNL     1       7.069  -4.847  22.027  0.00  0.00    +0.023 C 
ATOM     14  C   UNL     1       6.300  -5.802  21.125  0.00  0.00    +0.008 C 
ENDBRANCH  12  13
ENDBRANCH  10  11
ENDBRANCH   9  10
ENDBRANCH   7   8
ENDBRANCH   6   7
ENDBRANCH   4   5
ENDBRANCH   3   4
ENDBRANCH   1   2
BRANCH   1  16
ATOM     15  C   UNL     1       9.827  -2.486  23.745  0.00  0.00    -0.004 C 
ATOM     16  C   UNL     1       9.405  -3.541  24.464  0.00  0.00    -0.023 C 
BRANCH  15  18
ATOM     17  C   UNL     1      10.328  -0.198  24.515  0.00  0.00    +0.004 C 
ATOM     18  C   UNL     1       9.474  -1.121  24.053  0.00  0.00    -0.002 C 
BRANCH  17  19
ATOM     19  C   UNL     1       9.925   1.241  24.669  0.00  0.00    +0.138 C 
BRANCH  19  20
ATOM     20  O   UNL     1      10.810   2.048  23.909  0.00  0.00    -0.388 OA
ATOM     21  H   UNL     1      10.911   2.900  24.366  0.00  0.00    +0.210 HD
ENDBRANCH  19  20
BRANCH  19  22
ATOM     22  C   UNL     1       8.478   1.476  24.220  0.00  0.00    +0.046 C 
BRANCH  22  23
ATOM     23  C   UNL     1       8.222   2.934  23.832  0.00  0.00    +0.123 C 
BRANCH  23  24
ATOM     24  C   UNL     1       7.928   3.099  22.363  0.00  0.00    +0.305 C 
ATOM     25  O   UNL     1       6.979   3.711  21.895  0.00  0.00    -0.251 OA
BRANCH  24  26
ATOM     26  O   UNL     1       8.852   2.490  21.588  0.00  0.00    -0.481 OA
ATOM     27  H   UNL     1       8.472   2.003  20.830  0.00  0.00    +0.295 HD
ENDBRANCH  24  26
ENDBRANCH  23  24
ENDBRANCH  22  23
ENDBRANCH  19  22
ENDBRANCH  17  19
ENDBRANCH  15  18
ENDBRANCH   1  16
TORSDOF 16
ENDMDL
MODEL 9
REMARK VINA RESULT:      -5.1      3.260      7.752
REMARK  Name = 
REMARK  17 active torsions:
REMARK  status: ('A' for Active; 'I' for Inactive)
REMARK    1  A    between atoms: C_2  and  O_3
REMARK    2  A    between atoms: C_2  and  C_4
REMARK    3  A    between atoms: C_2  and  C_9
REMARK    4  A    between atoms: C_4  and  C_5
REMARK    5  A    between atoms: C_5  and  C_6
REMARK    6  A    between atoms: C_6  and  O_7
REMARK    7  A    between atoms: C_10  and  C_11
REMARK    8  A    between atoms: C_12  and  C_13
REMARK    9  A    between atoms: C_13  and  C_14
REMARK   10  A    between atoms: C_15  and  C_16
REMARK   11  A    between atoms: C_16  and  C_17
REMARK   12  A    between atoms: C_18  and  C_19
REMARK   13  A    between atoms: C_19  and  C_20
REMARK   14  A    between atoms: C_21  and  C_22
REMARK   15  A    between atoms: C_22  and  C_23
REMARK   16  A    between atoms: C_24  and  C_25
REMARK   17  A    between atoms: C_25  and  C_26
REMARK                            x       y       z     vdW  Elec       q    Type
REMARK                         _______ _______ _______ _____ _____    ______ ____
ROOT
ATOM      1  C   UNL     1      10.218   0.405  22.563  0.00  0.00    +0.054 C 
ENDROOT
BRANCH   1   2
ATOM      2  C   UNL     1       9.818   1.708  21.935  0.00  0.00    -0.027 C 
ATOM      3  C   UNL     1       8.558   2.156  21.802  0.00  0.00    -0.027 C 
BRANCH   3   4
ATOM      4  C   UNL     1       7.308   1.395  22.141  0.00  0.00    +0.053 C 
BRANCH   4   5
ATOM      5  C   UNL     1       6.805   1.690  23.528  0.00  0.00    -0.027 C 
ATOM      6  C   UNL     1       5.827   2.569  23.804  0.00  0.00    -0.027 C 
BRANCH   6   7
ATOM      7  C   UNL     1       5.058   3.364  22.784  0.00  0.00    +0.053 C 
BRANCH   7   8
ATOM      8  C   UNL     1       4.936   4.813  23.165  0.00  0.00    -0.027 C 
ATOM      9  C   UNL     1       5.888   5.733  22.936  0.00  0.00    -0.027 C 
BRANCH   9  10
ATOM     10  C   UNL     1       7.170   5.488  22.193  0.00  0.00    +0.053 C 
BRANCH  10  11
ATOM     11  C   UNL     1       8.308   6.314  22.721  0.00  0.00    -0.027 C 
ATOM     12  C   UNL     1       9.160   5.916  23.683  0.00  0.00    -0.031 C 
BRANCH  12  13
ATOM     13  C   UNL     1       9.139   4.582  24.375  0.00  0.00    +0.023 C 
ATOM     14  C   UNL     1       8.278   4.616  25.629  0.00  0.00    +0.008 C 
ENDBRANCH  12  13
ENDBRANCH  10  11
ENDBRANCH   9  10
ENDBRANCH   7   8
ENDBRANCH   6   7
ENDBRANCH   4   5
ENDBRANCH   3   4
ENDBRANCH   1   2
BRANCH   1  16
ATOM     15  C   UNL     1       9.854  -0.326  24.943  0.00  0.00    -0.004 C 
ATOM     16  C   UNL     1      10.432   0.495  24.048  0.00  0.00    -0.023 C 
BRANCH  15  18
ATOM     17  C   UNL     1       9.260  -2.637  24.322  0.00  0.00    +0.004 C 
ATOM     18  C   UNL     1       8.922  -1.366  24.581  0.00  0.00    -0.002 C 
BRANCH  17  19
ATOM     19  C   UNL     1       8.220  -3.699  24.101  0.00  0.00    +0.138 C 
BRANCH  19  20
ATOM     20  O   UNL     1       8.840  -4.972  24.189  0.00  0.00    -0.388 OA
ATOM     21  H   UNL     1       8.685  -5.443  23.354  0.00  0.00    +0.210 HD
ENDBRANCH  19  20
BRANCH  19  22
ATOM     22  C   UNL     1       7.078  -3.595  25.118  0.00  0.00    +0.046 C 
BRANCH  22  23
ATOM     23  C   UNL     1       6.654  -4.964  25.654  0.00  0.00    +0.123 C 
BRANCH  23  24
ATOM     24  C   UNL     1       7.175  -5.229  27.044  0.00  0.00    +0.305 C 
ATOM     25  O   UNL     1       6.582  -4.975  28.082  0.00  0.00    -0.251 OA
BRANCH  24  26
ATOM     26  O   UNL     1       8.399  -5.800  27.028  0.00  0.00    -0.481 OA
ATOM     27  H   UNL     1       8.513  -6.469  26.324  0.00  0.00    +0.295 HD
ENDBRANCH  24  26
ENDBRANCH  23  24
ENDBRANCH  22  23
ENDBRANCH  19  22
ENDBRANCH  17  19
ENDBRANCH  15  18
ENDBRANCH   1  16
TORSDOF 16
ENDMDL
