MODEL 1
REMARK VINA RESULT:      -3.7      0.000      0.000
REMARK  Name = 
REMARK  5 active torsions:
REMARK  status: ('A' for Active; 'I' for Inactive)
REMARK    1  A    between atoms: C_1  and  C_2
REMARK    2  A    between atoms: C_2  and  C_3
REMARK    3  A    between atoms: C_2  and  C_4
REMARK    4  A    between atoms: C_4  and  C_6
REMARK    5  A    between atoms: C_6  and  O_7
REMARK                            x       y       z     vdW  Elec       q    Type
REMARK                         _______ _______ _______ _____ _____    ______ ____
ROOT
ATOM      1  C   UNL     1       9.434  -0.436  23.285  0.00  0.00    +0.242 C 
ATOM      2  O   UNL     1       8.292  -0.469  23.737  0.00  0.00    -0.285 OA
ENDROOT
BRANCH   1   4
ATOM      3  C   UNL     1       9.718   1.623  21.925  0.00  0.00    +0.016 C 
ATOM      4  C   UNL     1      10.276   0.809  23.088  0.00  0.00    +0.061 C 
ATOM      5  C   UNL     1      10.317   1.640  24.366  0.00  0.00    +0.016 C 
ENDBRANCH   1   4
BRANCH   1   6
ATOM      6  C   UNL     1      10.044  -1.767  22.844  0.00  0.00    +0.373 C 
ATOM      7  O   UNL     1      10.226  -2.705  23.593  0.00  0.00    -0.242 OA
BRANCH   6   8
ATOM      8  O   UNL     1      10.334  -1.738  21.530  0.00  0.00    -0.475 OA
ATOM      9  H   UNL     1      11.229  -2.133  21.388  0.00  0.00    +0.295 HD
ENDBRANCH   6   8
ENDBRANCH   1   6
TORSDOF 3
ENDMDL
MODEL 2
REMARK VINA RESULT:      -3.6      3.690      4.947
REMARK  Name = 
REMARK  5 active torsions:
REMARK  status: ('A' for Active; 'I' for Inactive)
REMARK    1  A    between atoms: C_1  and  C_2
REMARK    2  A    between atoms: C_2  and  C_3
REMARK    3  A    between atoms: C_2  and  C_4
REMARK    4  A    between atoms: C_4  and  C_6
REMARK    5  A    between atoms: C_6  and  O_7
REMARK                            x       y       z     vdW  Elec       q    Type
REMARK                         _______ _______ _______ _____ _____    ______ ____
ROOT
ATOM      1  C   UNL     1       9.187  -3.849  24.394  0.00  0.00    +0.242 C 
ATOM      2  O   UNL     1      10.130  -3.153  24.026  0.00  0.00    -0.285 OA
ENDROOT
BRANCH   1   4
ATOM      3  C   UNL     1       7.722  -2.833  22.665  0.00  0.00    +0.016 C 
ATOM      4  C   UNL     1       7.813  -3.893  23.756  0.00  0.00    +0.061 C 
ATOM      5  C   UNL     1       7.525  -5.282  23.194  0.00  0.00    +0.016 C 
ENDBRANCH   1   4
BRANCH   1   6
ATOM      6  C   UNL     1       9.408  -4.716  25.635  0.00  0.00    +0.373 C 
ATOM      7  O   UNL     1       8.775  -4.595  26.663  0.00  0.00    -0.242 OA
BRANCH   6   8
ATOM      8  O   UNL     1      10.386  -5.614  25.411  0.00  0.00    -0.475 OA
ATOM      9  H   UNL     1      10.704  -5.966  26.278  0.00  0.00    +0.295 HD
ENDBRANCH   6   8
ENDBRANCH   1   6
TORSDOF 3
ENDMDL
MODEL 3
REMARK VINA RESULT:      -3.6      1.073      2.263
REMARK  Name = 
REMARK  5 active torsions:
REMARK  status: ('A' for Active; 'I' for Inactive)
REMARK    1  A    between atoms: C_1  and  C_2
REMARK    2  A    between atoms: C_2  and  C_3
REMARK    3  A    between atoms: C_2  and  C_4
REMARK    4  A    between atoms: C_4  and  C_6
REMARK    5  A    between atoms: C_6  and  O_7
REMARK                            x       y       z     vdW  Elec       q    Type
REMARK                         _______ _______ _______ _____ _____    ______ ____
ROOT
ATOM      1  C   UNL     1       9.998  -1.187  23.088  0.00  0.00    +0.242 C 
ATOM      2  O   UNL     1      10.506  -1.684  22.087  0.00  0.00    -0.285 OA
ENDROOT
BRANCH   1   4
ATOM      3  C   UNL     1      10.968   0.695  24.386  0.00  0.00    +0.016 C 
ATOM      4  C   UNL     1       9.888   0.295  23.388  0.00  0.00    +0.061 C 
ATOM      5  C   UNL     1       9.999   1.113  22.106  0.00  0.00    +0.016 C 
ENDBRANCH   1   4
BRANCH   1   6
ATOM      6  C   UNL     1       9.465  -2.154  24.147  0.00  0.00    +0.373 C 
ATOM      7  O   UNL     1       8.567  -1.881  24.917  0.00  0.00    -0.242 OA
BRANCH   6   8
ATOM      8  O   UNL     1      10.125  -3.326  24.088  0.00  0.00    -0.475 OA
ATOM      9  H   UNL     1      11.095  -3.147  24.035  0.00  0.00    +0.295 HD
ENDBRANCH   6   8
ENDBRANCH   1   6
TORSDOF 3
ENDMDL
MODEL 4
REMARK VINA RESULT:      -3.6      2.020      3.230
REMARK  Name = 
REMARK  5 active torsions:
REMARK  status: ('A' for Active; 'I' for Inactive)
REMARK    1  A    between atoms: C_1  and  C_2
REMARK    2  A    between atoms: C_2  and  C_3
REMARK    3  A    between atoms: C_2  and  C_4
REMARK    4  A    between atoms: C_4  and  C_6
REMARK    5  A    between atoms: C_6  and  O_7
REMARK                            x       y       z     vdW  Elec       q    Type
REMARK                         _______ _______ _______ _____ _____    ______ ____
ROOT
ATOM      1  C   UNL     1       9.688   0.195  22.466  0.00  0.00    +0.242 C 
ATOM      2  O   UNL     1      10.031  -0.712  21.712  0.00  0.00    -0.285 OA
ENDROOT
BRANCH   1   4
ATOM      3  C   UNL     1       9.464  -1.314  24.427  0.00  0.00    +0.016 C 
ATOM      4  C   UNL     1       9.661   0.131  23.980  0.00  0.00    +0.061 C 
ATOM      5  C   UNL     1      10.943   0.713  24.567  0.00  0.00    +0.016 C 
ENDBRANCH   1   4
BRANCH   1   6
ATOM      6  C   UNL     1       9.207   1.492  21.815  0.00  0.00    +0.373 C 
ATOM      7  O   UNL     1       8.041   1.735  21.579  0.00  0.00    -0.242 OA
BRANCH   6   8
ATOM      8  O   UNL     1      10.250   2.304  21.557  0.00  0.00    -0.475 OA
ATOM      9  H   UNL     1      10.052   3.205  21.909  0.00  0.00    +0.295 HD
ENDBRANCH   6   8
ENDBRANCH   1   6
TORSDOF 3
ENDMDL
MODEL 5
REMARK VINA RESULT:      -3.5      1.845      2.703
REMARK  Name = 
REMARK  5 active torsions:
REMARK  status: ('A' for Active; 'I' for Inactive)
REMARK    1  A    between atoms: C_1  and  C_2
REMARK    2  A    between atoms: C_2  and  C_3
REMARK    3  A    between atoms: C_2  and  C_4
REMARK    4  A    between atoms: C_4  and  C_6
REMARK    5  A    between atoms: C_6  and  O_7
REMARK                            x       y       z     vdW  Elec       q    Type
REMARK                         _______ _______ _______ _____ _____    ______ ____
ROOT
ATOM      1  C   UNL     1       9.568  -2.026  23.706  0.00  0.00    +0.242 C 
ATOM      2  O   UNL     1      10.186  -3.040  24.017  0.00  0.00    -0.285 OA
ENDROOT
BRANCH   1   4
ATOM      3  C   UNL     1       8.759  -1.427  25.976  0.00  0.00    +0.016 C 
ATOM      4  C   UNL     1       9.219  -0.877  24.631  0.00  0.00    +0.061 C 
ATOM      5  C   UNL     1      10.413   0.057  24.803  0.00  0.00    +0.016 C 
ENDBRANCH   1   4
BRANCH   1   6
ATOM      6  C   UNL     1       9.070  -1.934  22.262  0.00  0.00    +0.373 C 
ATOM      7  O   UNL     1       7.927  -2.169  21.929  0.00  0.00    -0.242 OA
BRANCH   6   8
ATOM      8  O   UNL     1      10.069  -1.556  21.444  0.00  0.00    -0.475 OA
ATOM      9  H   UNL     1       9.745  -1.569  20.511  0.00  0.00    +0.295 HD
ENDBRANCH   6   8
ENDBRANCH   1   6
TORSDOF 3
ENDMDL
MODEL 6
REMARK VINA RESULT:      -3.5      2.104      3.423
REMARK  Name = 
REMARK  5 active torsions:
REMARK  status: ('A' for Active; 'I' for Inactive)
REMARK    1  A    between atoms: C_1  and  C_2
REMARK    2  A    between atoms: C_2  and  C_3
REMARK    3  A    between atoms: C_2  and  C_4
REMARK    4  A    between atoms: C_4  and  C_6
REMARK    5  A    between atoms: C_6  and  O_7
REMARK                            x       y       z     vdW  Elec       q    Type
REMARK                         _______ _______ _______ _____ _____    ______ ____
ROOT
ATOM      1  C   UNL     1       8.868   0.477  22.556  0.00  0.00    +0.242 C 
ATOM      2  O   UNL     1       7.786  -0.079  22.728  0.00  0.00    -0.285 OA
ENDROOT
BRANCH   1   4
ATOM      3  C   UNL     1      10.444   0.178  24.453  0.00  0.00    +0.016 C 
ATOM      4  C   UNL     1      10.222  -0.068  22.964  0.00  0.00    +0.061 C 
ATOM      5  C   UNL     1      10.327  -1.553  22.635  0.00  0.00    +0.016 C 
ENDBRANCH   1   4
BRANCH   1   6
ATOM      6  C   UNL     1       8.840   1.862  21.909  0.00  0.00    +0.373 C 
ATOM      7  O   UNL     1       7.830   2.523  21.775  0.00  0.00    -0.242 OA
BRANCH   6   8
ATOM      8  O   UNL     1      10.078   2.227  21.526  0.00  0.00    -0.475 OA
ATOM      9  H   UNL     1      10.488   1.488  21.015  0.00  0.00    +0.295 HD
ENDBRANCH   6   8
ENDBRANCH   1   6
TORSDOF 3
ENDMDL
MODEL 7
REMARK VINA RESULT:      -3.4      5.108      5.810
REMARK  Name = 
REMARK  5 active torsions:
REMARK  status: ('A' for Active; 'I' for Inactive)
REMARK    1  A    between atoms: C_1  and  C_2
REMARK    2  A    between atoms: C_2  and  C_3
REMARK    3  A    between atoms: C_2  and  C_4
REMARK    4  A    between atoms: C_4  and  C_6
REMARK    5  A    between atoms: C_6  and  O_7
REMARK                            x       y       z     vdW  Elec       q    Type
REMARK                         _______ _______ _______ _____ _____    ______ ____
ROOT
ATOM      1  C   UNL     1       8.133  -4.704  26.020  0.00  0.00    +0.242 C 
ATOM      2  O   UNL     1       8.112  -5.017  27.207  0.00  0.00    -0.285 OA
ENDROOT
BRANCH   1   4
ATOM      3  C   UNL     1       6.597  -5.157  24.121  0.00  0.00    +0.016 C 
ATOM      4  C   UNL     1       6.963  -4.166  25.220  0.00  0.00    +0.061 C 
ATOM      5  C   UNL     1       5.769  -3.896  26.130  0.00  0.00    +0.016 C 
ENDBRANCH   1   4
BRANCH   1   6
ATOM      6  C   UNL     1       9.450  -4.917  25.271  0.00  0.00    +0.373 C 
ATOM      7  O   UNL     1       9.943  -4.092  24.530  0.00  0.00    -0.242 OA
BRANCH   6   8
ATOM      8  O   UNL     1       9.964  -6.127  25.559  0.00  0.00    -0.475 OA
ATOM      9  H   UNL     1       9.339  -6.826  25.248  0.00  0.00    +0.295 HD
ENDBRANCH   6   8
ENDBRANCH   1   6
TORSDOF 3
ENDMDL
MODEL 8
REMARK VINA RESULT:      -3.3      1.203      1.672
REMARK  Name = 
REMARK  5 active torsions:
REMARK  status: ('A' for Active; 'I' for Inactive)
REMARK    1  A    between atoms: C_1  and  C_2
REMARK    2  A    between atoms: C_2  and  C_3
REMARK    3  A    between atoms: C_2  and  C_4
REMARK    4  A    between atoms: C_4  and  C_6
REMARK    5  A    between atoms: C_6  and  O_7
REMARK                            x       y       z     vdW  Elec       q    Type
REMARK                         _______ _______ _______ _____ _____    ______ ____
ROOT
ATOM      1  C   UNL     1       9.182  -0.843  23.439  0.00  0.00    +0.242 C 
ATOM      2  O   UNL     1       8.014  -0.648  23.111  0.00  0.00    -0.285 OA
ENDROOT
BRANCH   1   4
ATOM      3  C   UNL     1       9.947   1.083  22.069  0.00  0.00    +0.016 C 
ATOM      4  C   UNL     1      10.357   0.060  23.123  0.00  0.00    +0.061 C 
ATOM      5  C   UNL     1      10.860   0.750  24.387  0.00  0.00    +0.016 C 
ENDBRANCH   1   4
BRANCH   1   6
ATOM      6  C   UNL     1       9.481  -2.137  24.198  0.00  0.00    +0.373 C 
ATOM      7  O   UNL     1      10.244  -2.991  23.798  0.00  0.00    -0.242 OA
BRANCH   6   8
ATOM      8  O   UNL     1       8.788  -2.175  25.352  0.00  0.00    -0.475 OA
ATOM      9  H   UNL     1       9.132  -1.475  25.958  0.00  0.00    +0.295 HD
ENDBRANCH   6   8
ENDBRANCH   1   6
TORSDOF 3
ENDMDL
MODEL 9
REMARK VINA RESULT:      -3.3      2.741      3.602
REMARK  Name = 
REMARK  5 active torsions:
REMARK  status: ('A' for Active; 'I' for Inactive)
REMARK    1  A    between atoms: C_1  and  C_2
REMARK    2  A    between atoms: C_2  and  C_3
REMARK    3  A    between atoms: C_2  and  C_4
REMARK    4  A    between atoms: C_4  and  C_6
REMARK    5  A    between atoms: C_6  and  O_7
REMARK                            x       y       z     vdW  Elec       q    Type
REMARK                         _______ _______ _______ _____ _____    ______ ____
ROOT
ATOM      1  C   UNL     1       8.819  -3.480  23.984  0.00  0.00    +0.242 C 
ATOM      2  O   UNL     1       7.921  -3.617  23.158  0.00  0.00    -0.285 OA
ENDROOT
BRANCH   1   4
ATOM      3  C   UNL     1      10.072  -1.764  22.697  0.00  0.00    +0.016 C 
ATOM      4  C   UNL     1       9.754  -2.292  24.092  0.00  0.00    +0.061 C 
ATOM      5  C   UNL     1       9.140  -1.200  24.962  0.00  0.00    +0.016 C 
ENDBRANCH   1   4
BRANCH   1   6
ATOM      6  C   UNL     1       9.038  -4.631  24.967  0.00  0.00    +0.373 C 
ATOM      7  O   UNL     1       8.175  -5.063  25.702  0.00  0.00    -0.242 OA
BRANCH   6   8
ATOM      8  O   UNL     1      10.304  -5.082  24.886  0.00  0.00    -0.475 OA
ATOM      9  H   UNL     1      10.809  -4.770  25.676  0.00  0.00    +0.295 HD
ENDBRANCH   6   8
ENDBRANCH   1   6
TORSDOF 3
ENDMDL
