MODEL 1
REMARK VINA RESULT:      -7.1      0.000      0.000
REMARK  Name = 
REMARK  12 active torsions:
REMARK  status: ('A' for Active; 'I' for Inactive)
REMARK    1  A    between atoms: C_1  and  C_2
REMARK    2  A    between atoms: C_2  and  C_3
REMARK    3  A    between atoms: C_2  and  O_4
REMARK    4  A    between atoms: O_4  and  C_5
REMARK    5  A    between atoms: C_6  and  N_7
REMARK    6  A    between atoms: N_15  and  C_16
REMARK    7  A    between atoms: C_21  and  S_22
REMARK    8  A    between atoms: S_22  and  C_25
REMARK    9  A    between atoms: C_25  and  C_26
REMARK   10  A    between atoms: C_25  and  C_27
REMARK   11  A    between atoms: C_29  and  C_30
REMARK   12  A    between atoms: C_31  and  C_33
REMARK                            x       y       z     vdW  Elec       q    Type
REMARK                         _______ _______ _______ _____ _____    ______ ____
ROOT
ATOM      1  N   UNL     1       5.200   0.125  26.332  0.00  0.00    -0.282 N 
ATOM      2  H   UNL     1       4.203   0.150  26.155  0.00  0.00    +0.155 HD
ATOM      3  C   UNL     1       5.575  -1.151  26.673  0.00  0.00    +0.199 A 
ATOM      4  N   UNL     1       6.585  -1.784  25.989  0.00  0.00    -0.311 N 
ATOM      5  H   UNL     1       7.198  -1.221  25.440  0.00  0.00    +0.170 HD
ATOM      6  C   UNL     1       6.789  -3.171  26.077  0.00  0.00    +0.154 A 
ATOM      7  N   UNL     1       7.549  -3.934  25.315  0.00  0.00    -0.227 NA
ATOM      8  C   UNL     1       5.989  -3.883  27.135  0.00  0.00    +0.101 A 
ATOM      9 CL   UNL     1       6.174  -5.559  27.424  0.00  0.00    -0.078 Cl
ATOM     10  C   UNL     1       5.083  -3.124  27.765  0.00  0.00    +0.138 A 
ATOM     11  N   UNL     1       4.795  -1.794  27.515  0.00  0.00    -0.223 NA
ENDROOT
BRANCH   1  18
ATOM     12  C   UNL     1       6.352   2.327  26.268  0.00  0.00    +0.142 A 
ATOM     13  C   UNL     1       7.199   3.223  25.558  0.00  0.00    +0.051 A 
ATOM     14  C   UNL     1       7.509   3.027  24.195  0.00  0.00    -0.038 A 
ATOM     15  C   UNL     1       6.906   1.910  23.559  0.00  0.00    -0.045 A 
ATOM     16  C   UNL     1       7.207   1.519  22.133  0.00  0.00    +0.044 C 
ATOM     17  C   UNL     1       6.068   1.038  24.282  0.00  0.00    +0.030 A 
ATOM     18  C   UNL     1       5.889   1.148  25.659  0.00  0.00    +0.076 A 
BRANCH  14  19
ATOM     19  C   UNL     1       8.398   3.969  23.360  0.00  0.00    +0.022 C 
ATOM     20  C   UNL     1       9.660   4.607  23.971  0.00  0.00    +0.023 C 
ATOM     21  C   UNL     1       9.406   5.908  24.738  0.00  0.00    +0.081 C 
ATOM     22  N   UNL     1       8.562   6.860  24.015  0.00  0.00    -0.316 NA
ATOM     23  H   UNL     1       8.380   7.668  24.607  0.00  0.00    +0.122 HD
ATOM     24  C   UNL     1       7.303   6.244  23.630  0.00  0.00    +0.081 C 
ATOM     25  C   UNL     1       7.568   5.081  22.685  0.00  0.00    +0.023 C 
ENDBRANCH  14  19
BRANCH  12  26
ATOM     26  O   UNL     1       5.995   2.736  27.536  0.00  0.00    -0.488 OA
BRANCH  26  28
ATOM     27  C   UNL     1       6.818   3.784  29.539  0.00  0.00    +0.051 C 
ATOM     28  C   UNL     1       7.008   2.624  28.564  0.00  0.00    +0.167 C 
ATOM     29  C   UNL     1       6.945   1.302  29.338  0.00  0.00    +0.051 C 
ENDBRANCH  26  28
ENDBRANCH  12  26
ENDBRANCH   1  18
BRANCH   7  30
ATOM     30  C   UNL     1       8.190  -3.366  24.207  0.00  0.00    +0.091 A 
ATOM     31  C   UNL     1       7.472  -2.875  23.107  0.00  0.00    +0.114 A 
ATOM     32  C   UNL     1       8.091  -1.970  22.235  0.00  0.00    +0.029 A 
ATOM     33  C   UNL     1       9.433  -1.627  22.411  0.00  0.00    +0.002 A 
ATOM     34  C   UNL     1      10.192  -2.267  23.386  0.00  0.00    +0.002 A 
ATOM     35  C   UNL     1       9.578  -3.161  24.256  0.00  0.00    +0.030 A 
BRANCH  31  36
ATOM     36  S   UNL     1       5.989  -3.690  22.507  0.00  0.00    +0.001 S 
ATOM     37  O   UNL     1       5.843  -3.267  21.129  0.00  0.00    -0.169 OA
ATOM     38  O   UNL     1       4.931  -3.360  23.453  0.00  0.00    -0.169 OA
BRANCH  36  39
ATOM     39  C   UNL     1       6.148  -5.476  22.536  0.00  0.00    +0.130 C 
ATOM     40  C   UNL     1       6.068  -6.017  21.094  0.00  0.00    +0.032 C 
ATOM     41  C   UNL     1       5.070  -6.151  23.381  0.00  0.00    +0.032 C 
ENDBRANCH  36  39
ENDBRANCH  31  36
ENDBRANCH   7  30
TORSDOF 7
ENDMDL
MODEL 2
REMARK VINA RESULT:      -7.0      2.426      3.253
REMARK  Name = 
REMARK  12 active torsions:
REMARK  status: ('A' for Active; 'I' for Inactive)
REMARK    1  A    between atoms: C_1  and  C_2
REMARK    2  A    between atoms: C_2  and  C_3
REMARK    3  A    between atoms: C_2  and  O_4
REMARK    4  A    between atoms: O_4  and  C_5
REMARK    5  A    between atoms: C_6  and  N_7
REMARK    6  A    between atoms: N_15  and  C_16
REMARK    7  A    between atoms: C_21  and  S_22
REMARK    8  A    between atoms: S_22  and  C_25
REMARK    9  A    between atoms: C_25  and  C_26
REMARK   10  A    between atoms: C_25  and  C_27
REMARK   11  A    between atoms: C_29  and  C_30
REMARK   12  A    between atoms: C_31  and  C_33
REMARK                            x       y       z     vdW  Elec       q    Type
REMARK                         _______ _______ _______ _____ _____    ______ ____
ROOT
ATOM      1  N   UNL     1       4.592  -0.747  26.760  0.00  0.00    -0.282 N 
ATOM      2  H   UNL     1       3.635  -0.566  26.478  0.00  0.00    +0.155 HD
ATOM      3  C   UNL     1       4.618  -1.790  27.653  0.00  0.00    +0.199 A 
ATOM      4  N   UNL     1       5.424  -2.880  27.423  0.00  0.00    -0.311 N 
ATOM      5  H   UNL     1       6.161  -2.781  26.760  0.00  0.00    +0.170 HD
ATOM      6  C   UNL     1       5.255  -4.090  28.117  0.00  0.00    +0.154 A 
ATOM      7  N   UNL     1       5.784  -5.268  27.844  0.00  0.00    -0.227 NA
ATOM      8  C   UNL     1       4.300  -4.049  29.279  0.00  0.00    +0.101 A 
ATOM      9 CL   UNL     1       4.037  -5.415  30.274  0.00  0.00    -0.078 Cl
ATOM     10  C   UNL     1       3.628  -2.898  29.418  0.00  0.00    +0.138 A 
ATOM     11  N   UNL     1       3.699  -1.789  28.595  0.00  0.00    -0.223 NA
ENDROOT
BRANCH   1  18
ATOM     12  C   UNL     1       6.232   0.889  25.860  0.00  0.00    +0.142 A 
ATOM     13  C   UNL     1       7.289   1.156  24.945  0.00  0.00    +0.051 A 
ATOM     14  C   UNL     1       7.586   0.279  23.880  0.00  0.00    -0.038 A 
ATOM     15  C   UNL     1       6.757  -0.865  23.747  0.00  0.00    -0.045 A 
ATOM     16  C   UNL     1       7.001  -1.937  22.714  0.00  0.00    +0.044 C 
ATOM     17  C   UNL     1       5.715  -1.108  24.663  0.00  0.00    +0.030 A 
ATOM     18  C   UNL     1       5.523  -0.322  25.798  0.00  0.00    +0.076 A 
BRANCH  14  19
ATOM     19  C   UNL     1       8.698   0.518  22.840  0.00  0.00    +0.022 C 
ATOM     20  C   UNL     1      10.171   0.647  23.277  0.00  0.00    +0.023 C 
ATOM     21  C   UNL     1      10.586   2.058  23.700  0.00  0.00    +0.081 C 
ATOM     22  N   UNL     1      10.162   3.101  22.765  0.00  0.00    -0.316 NA
ATOM     23  H   UNL     1      10.411   4.014  23.140  0.00  0.00    +0.122 HD
ATOM     24  C   UNL     1       8.726   3.040  22.541  0.00  0.00    +0.081 C 
ATOM     25  C   UNL     1       8.361   1.704  21.912  0.00  0.00    +0.023 C 
ENDBRANCH  14  19
BRANCH  12  26
ATOM     26  O   UNL     1       5.942   1.913  26.738  0.00  0.00    -0.488 OA
BRANCH  26  28
ATOM     27  C   UNL     1       6.790   3.604  28.225  0.00  0.00    +0.051 C 
ATOM     28  C   UNL     1       6.890   2.137  27.810  0.00  0.00    +0.167 C 
ATOM     29  C   UNL     1       6.642   1.250  29.035  0.00  0.00    +0.051 C 
ENDBRANCH  26  28
ENDBRANCH  12  26
ENDBRANCH   1  18
BRANCH   7  30
ATOM     30  C   UNL     1       6.548  -5.417  26.681  0.00  0.00    +0.091 A 
ATOM     31  C   UNL     1       5.954  -5.570  25.419  0.00  0.00    +0.114 A 
ATOM     32  C   UNL     1       6.712  -5.308  24.270  0.00  0.00    +0.029 A 
ATOM     33  C   UNL     1       8.065  -4.981  24.378  0.00  0.00    +0.002 A 
ATOM     34  C   UNL     1       8.694  -5.023  25.618  0.00  0.00    +0.002 A 
ATOM     35  C   UNL     1       7.942  -5.277  26.759  0.00  0.00    +0.030 A 
BRANCH  31  36
ATOM     36  S   UNL     1       4.445  -6.517  25.194  0.00  0.00    +0.001 S 
ATOM     37  O   UNL     1       4.160  -7.106  26.487  0.00  0.00    -0.169 OA
ATOM     38  O   UNL     1       4.684  -7.401  24.063  0.00  0.00    -0.169 OA
BRANCH  36  39
ATOM     39  C   UNL     1       3.062  -5.472  24.732  0.00  0.00    +0.130 C 
ATOM     40  C   UNL     1       2.644  -5.795  23.283  0.00  0.00    +0.032 C 
ATOM     41  C   UNL     1       3.387  -3.984  24.837  0.00  0.00    +0.032 C 
ENDBRANCH  36  39
ENDBRANCH  31  36
ENDBRANCH   7  30
TORSDOF 7
ENDMDL
MODEL 3
REMARK VINA RESULT:      -6.7      2.020      3.239
REMARK  Name = 
REMARK  12 active torsions:
REMARK  status: ('A' for Active; 'I' for Inactive)
REMARK    1  A    between atoms: C_1  and  C_2
REMARK    2  A    between atoms: C_2  and  C_3
REMARK    3  A    between atoms: C_2  and  O_4
REMARK    4  A    between atoms: O_4  and  C_5
REMARK    5  A    between atoms: C_6  and  N_7
REMARK    6  A    between atoms: N_15  and  C_16
REMARK    7  A    between atoms: C_21  and  S_22
REMARK    8  A    between atoms: S_22  and  C_25
REMARK    9  A    between atoms: C_25  and  C_26
REMARK   10  A    between atoms: C_25  and  C_27
REMARK   11  A    between atoms: C_29  and  C_30
REMARK   12  A    between atoms: C_31  and  C_33
REMARK                            x       y       z     vdW  Elec       q    Type
REMARK                         _______ _______ _______ _____ _____    ______ ____
ROOT
ATOM      1  N   UNL     1       4.853  -1.147  26.985  0.00  0.00    -0.282 N 
ATOM      2  H   UNL     1       3.898  -0.832  27.110  0.00  0.00    +0.155 HD
ATOM      3  C   UNL     1       4.960  -2.459  27.378  0.00  0.00    +0.199 A 
ATOM      4  N   UNL     1       5.483  -3.399  26.521  0.00  0.00    -0.311 N 
ATOM      5  H   UNL     1       6.011  -3.073  25.741  0.00  0.00    +0.170 HD
ATOM      6  C   UNL     1       5.323  -4.777  26.741  0.00  0.00    +0.154 A 
ATOM      7  N   UNL     1       5.559  -5.770  25.905  0.00  0.00    -0.227 NA
ATOM      8  C   UNL     1       4.751  -5.163  28.079  0.00  0.00    +0.101 A 
ATOM      9 CL   UNL     1       4.561  -6.800  28.536  0.00  0.00    -0.078 Cl
ATOM     10  C   UNL     1       4.339  -4.136  28.835  0.00  0.00    +0.138 A 
ATOM     11  N   UNL     1       4.354  -2.795  28.495  0.00  0.00    -0.223 NA
ENDROOT
BRANCH   1  18
ATOM     12  C   UNL     1       5.991   0.905  26.166  0.00  0.00    +0.142 A 
ATOM     13  C   UNL     1       6.831   1.509  25.189  0.00  0.00    +0.051 A 
ATOM     14  C   UNL     1       7.138   0.860  23.974  0.00  0.00    -0.038 A 
ATOM     15  C   UNL     1       6.540  -0.410  23.761  0.00  0.00    -0.045 A 
ATOM     16  C   UNL     1       6.839  -1.264  22.553  0.00  0.00    +0.044 C 
ATOM     17  C   UNL     1       5.710  -0.987  24.742  0.00  0.00    +0.030 A 
ATOM     18  C   UNL     1       5.533  -0.412  26.000  0.00  0.00    +0.076 A 
BRANCH  14  19
ATOM     19  C   UNL     1       8.019   1.464  22.863  0.00  0.00    +0.022 C 
ATOM     20  C   UNL     1       9.329   2.198  23.208  0.00  0.00    +0.023 C 
ATOM     21  C   UNL     1       9.155   3.679  23.552  0.00  0.00    +0.081 C 
ATOM     22  N   UNL     1       8.312   4.407  22.604  0.00  0.00    -0.316 NA
ATOM     23  H   UNL     1       8.185   5.364  22.929  0.00  0.00    +0.122 HD
ATOM     24  C   UNL     1       7.016   3.762  22.467  0.00  0.00    +0.081 C 
ATOM     25  C   UNL     1       7.197   2.358  21.911  0.00  0.00    +0.023 C 
ENDBRANCH  14  19
BRANCH  12  26
ATOM     26  O   UNL     1       5.635   1.722  27.220  0.00  0.00    -0.488 OA
BRANCH  26  28
ATOM     27  C   UNL     1       6.834   3.319  28.562  0.00  0.00    +0.051 C 
ATOM     28  C   UNL     1       6.587   1.833  28.305  0.00  0.00    +0.167 C 
ATOM     29  C   UNL     1       6.109   1.173  29.603  0.00  0.00    +0.051 C 
ENDBRANCH  26  28
ENDBRANCH  12  26
ENDBRANCH   1  18
BRANCH   7  30
ATOM     30  C   UNL     1       5.932  -5.476  24.588  0.00  0.00    +0.091 A 
ATOM     31  C   UNL     1       7.278  -5.424  24.194  0.00  0.00    +0.114 A 
ATOM     32  C   UNL     1       7.597  -5.536  22.834  0.00  0.00    +0.029 A 
ATOM     33  C   UNL     1       6.584  -5.614  21.877  0.00  0.00    +0.002 A 
ATOM     34  C   UNL     1       5.254  -5.468  22.258  0.00  0.00    +0.002 A 
ATOM     35  C   UNL     1       4.936  -5.362  23.607  0.00  0.00    +0.030 A 
BRANCH  31  36
ATOM     36  S   UNL     1       8.553  -4.764  25.272  0.00  0.00    +0.001 S 
ATOM     37  O   UNL     1       9.803  -5.296  24.767  0.00  0.00    -0.169 OA
ATOM     38  O   UNL     1       8.152  -5.100  26.631  0.00  0.00    -0.169 OA
BRANCH  36  39
ATOM     39  C   UNL     1       8.630  -2.974  25.200  0.00  0.00    +0.130 C 
ATOM     40  C   UNL     1       9.798  -2.552  24.285  0.00  0.00    +0.032 C 
ATOM     41  C   UNL     1       8.819  -2.337  26.575  0.00  0.00    +0.032 C 
ENDBRANCH  36  39
ENDBRANCH  31  36
ENDBRANCH   7  30
TORSDOF 7
ENDMDL
MODEL 4
REMARK VINA RESULT:      -6.6      3.785      8.204
REMARK  Name = 
REMARK  12 active torsions:
REMARK  status: ('A' for Active; 'I' for Inactive)
REMARK    1  A    between atoms: C_1  and  C_2
REMARK    2  A    between atoms: C_2  and  C_3
REMARK    3  A    between atoms: C_2  and  O_4
REMARK    4  A    between atoms: O_4  and  C_5
REMARK    5  A    between atoms: C_6  and  N_7
REMARK    6  A    between atoms: N_15  and  C_16
REMARK    7  A    between atoms: C_21  and  S_22
REMARK    8  A    between atoms: S_22  and  C_25
REMARK    9  A    between atoms: C_25  and  C_26
REMARK   10  A    between atoms: C_25  and  C_27
REMARK   11  A    between atoms: C_29  and  C_30
REMARK   12  A    between atoms: C_31  and  C_33
REMARK                            x       y       z     vdW  Elec       q    Type
REMARK                         _______ _______ _______ _____ _____    ______ ____
ROOT
ATOM      1  N   UNL     1       5.112   1.787  26.310  0.00  0.00    -0.282 N 
ATOM      2  H   UNL     1       5.133   2.117  27.268  0.00  0.00    +0.155 HD
ATOM      3  C   UNL     1       5.010   2.858  25.457  0.00  0.00    +0.199 A 
ATOM      4  N   UNL     1       5.918   3.023  24.438  0.00  0.00    -0.311 N 
ATOM      5  H   UNL     1       6.469   2.234  24.175  0.00  0.00    +0.170 HD
ATOM      6  C   UNL     1       6.054   4.240  23.751  0.00  0.00    +0.154 A 
ATOM      7  N   UNL     1       7.019   4.612  22.931  0.00  0.00    -0.227 NA
ATOM      8  C   UNL     1       4.997   5.274  24.037  0.00  0.00    +0.101 A 
ATOM      9 CL   UNL     1       4.974   6.781  23.230  0.00  0.00    -0.078 Cl
ATOM     10  C   UNL     1       4.141   4.950  25.015  0.00  0.00    +0.138 A 
ATOM     11  N   UNL     1       4.158   3.804  25.790  0.00  0.00    -0.223 NA
ENDROOT
BRANCH   1  18
ATOM     12  C   UNL     1       5.042  -0.683  26.044  0.00  0.00    +0.142 A 
ATOM     13  C   UNL     1       5.738  -1.879  25.711  0.00  0.00    +0.051 A 
ATOM     14  C   UNL     1       7.145  -1.912  25.603  0.00  0.00    -0.038 A 
ATOM     15  C   UNL     1       7.833  -0.701  25.875  0.00  0.00    -0.045 A 
ATOM     16  C   UNL     1       9.326  -0.555  25.718  0.00  0.00    +0.044 C 
ATOM     17  C   UNL     1       7.123   0.470  26.205  0.00  0.00    +0.030 A 
ATOM     18  C   UNL     1       5.732   0.535  26.161  0.00  0.00    +0.076 A 
BRANCH  14  19
ATOM     19  C   UNL     1       7.963  -3.175  25.271  0.00  0.00    +0.022 C 
ATOM     20  C   UNL     1       7.421  -4.227  24.283  0.00  0.00    +0.023 C 
ATOM     21  C   UNL     1       6.499  -5.274  24.913  0.00  0.00    +0.081 C 
ATOM     22  N   UNL     1       7.026  -5.852  26.150  0.00  0.00    -0.316 NA
ATOM     23  H   UNL     1       6.336  -6.487  26.547  0.00  0.00    +0.122 HD
ATOM     24  C   UNL     1       7.342  -4.809  27.112  0.00  0.00    +0.081 C 
ATOM     25  C   UNL     1       8.426  -3.903  26.550  0.00  0.00    +0.023 C 
ENDBRANCH  14  19
BRANCH  12  26
ATOM     26  O   UNL     1       3.693  -0.837  26.288  0.00  0.00    -0.488 OA
BRANCH  26  28
ATOM     27  C   UNL     1       3.402  -0.858  28.676  0.00  0.00    +0.051 C 
ATOM     28  C   UNL     1       3.327  -1.692  27.398  0.00  0.00    +0.167 C 
ATOM     29  C   UNL     1       1.921  -2.287  27.269  0.00  0.00    +0.051 C 
ENDBRANCH  26  28
ENDBRANCH  12  26
ENDBRANCH   1  18
BRANCH   7  30
ATOM     30  C   UNL     1       8.121   3.767  22.750  0.00  0.00    +0.091 A 
ATOM     31  C   UNL     1       9.276   3.877  23.538  0.00  0.00    +0.114 A 
ATOM     32  C   UNL     1      10.160   2.792  23.610  0.00  0.00    +0.029 A 
ATOM     33  C   UNL     1       9.936   1.648  22.842  0.00  0.00    +0.002 A 
ATOM     34  C   UNL     1       8.897   1.624  21.918  0.00  0.00    +0.002 A 
ATOM     35  C   UNL     1       8.016   2.696  21.849  0.00  0.00    +0.030 A 
BRANCH  31  36
ATOM     36  S   UNL     1       9.907   5.471  24.073  0.00  0.00    +0.001 S 
ATOM     37  O   UNL     1       9.356   5.682  25.397  0.00  0.00    -0.169 OA
ATOM     38  O   UNL     1       9.568   6.417  23.019  0.00  0.00    -0.169 OA
BRANCH  36  39
ATOM     39  C   UNL     1      11.696   5.476  24.196  0.00  0.00    +0.130 C 
ATOM     40  C   UNL     1      12.145   6.699  25.020  0.00  0.00    +0.032 C 
ATOM     41  C   UNL     1      12.380   5.515  22.832  0.00  0.00    +0.032 C 
ENDBRANCH  36  39
ENDBRANCH  31  36
ENDBRANCH   7  30
TORSDOF 7
ENDMDL
MODEL 5
REMARK VINA RESULT:      -6.6      3.336      8.687
REMARK  Name = 
REMARK  12 active torsions:
REMARK  status: ('A' for Active; 'I' for Inactive)
REMARK    1  A    between atoms: C_1  and  C_2
REMARK    2  A    between atoms: C_2  and  C_3
REMARK    3  A    between atoms: C_2  and  O_4
REMARK    4  A    between atoms: O_4  and  C_5
REMARK    5  A    between atoms: C_6  and  N_7
REMARK    6  A    between atoms: N_15  and  C_16
REMARK    7  A    between atoms: C_21  and  S_22
REMARK    8  A    between atoms: S_22  and  C_25
REMARK    9  A    between atoms: C_25  and  C_26
REMARK   10  A    between atoms: C_25  and  C_27
REMARK   11  A    between atoms: C_29  and  C_30
REMARK   12  A    between atoms: C_31  and  C_33
REMARK                            x       y       z     vdW  Elec       q    Type
REMARK                         _______ _______ _______ _____ _____    ______ ____
ROOT
ATOM      1  N   UNL     1       8.750  -1.529  23.899  0.00  0.00    -0.282 N 
ATOM      2  H   UNL     1       8.791  -1.813  22.927  0.00  0.00    +0.155 HD
ATOM      3  C   UNL     1       9.243  -0.253  24.027  0.00  0.00    +0.199 A 
ATOM      4  N   UNL     1       8.492   0.723  24.639  0.00  0.00    -0.311 N 
ATOM      5  H   UNL     1       7.726   0.432  25.206  0.00  0.00    +0.170 HD
ATOM      6  C   UNL     1       8.801   2.088  24.513  0.00  0.00    +0.154 A 
ATOM      7  N   UNL     1       8.055   3.126  24.839  0.00  0.00    -0.227 NA
ATOM      8  C   UNL     1      10.123   2.402  23.867  0.00  0.00    +0.101 A 
ATOM      9 CL   UNL     1      10.684   4.010  23.706  0.00  0.00    -0.078 Cl
ATOM     10  C   UNL     1      10.775   1.342  23.369  0.00  0.00    +0.138 A 
ATOM     11  N   UNL     1      10.341   0.029  23.360  0.00  0.00    -0.223 NA
ENDROOT
BRANCH   1  18
ATOM     12  C   UNL     1       7.365  -3.541  24.354  0.00  0.00    +0.142 A 
ATOM     13  C   UNL     1       6.491  -4.226  25.243  0.00  0.00    +0.051 A 
ATOM     14  C   UNL     1       5.900  -3.576  26.348  0.00  0.00    -0.038 A 
ATOM     15  C   UNL     1       6.195  -2.197  26.508  0.00  0.00    -0.045 A 
ATOM     16  C   UNL     1       5.710  -1.388  27.685  0.00  0.00    +0.044 C 
ATOM     17  C   UNL     1       7.062  -1.539  25.613  0.00  0.00    +0.030 A 
ATOM     18  C   UNL     1       7.760  -2.219  24.617  0.00  0.00    +0.076 A 
BRANCH  14  19
ATOM     19  C   UNL     1       4.926  -4.249  27.335  0.00  0.00    +0.022 C 
ATOM     20  C   UNL     1       5.433  -4.821  28.674  0.00  0.00    +0.023 C 
ATOM     21  C   UNL     1       5.968  -6.253  28.590  0.00  0.00    +0.081 C 
ATOM     22  N   UNL     1       5.089  -7.167  27.860  0.00  0.00    -0.316 NA
ATOM     23  H   UNL     1       5.536  -8.079  27.785  0.00  0.00    +0.122 HD
ATOM     24  C   UNL     1       4.802  -6.654  26.530  0.00  0.00    +0.081 C 
ATOM     25  C   UNL     1       4.068  -5.326  26.639  0.00  0.00    +0.023 C 
ENDBRANCH  14  19
BRANCH  12  26
ATOM     26  O   UNL     1       7.726  -4.248  23.224  0.00  0.00    -0.488 OA
BRANCH  26  28
ATOM     27  C   UNL     1       6.065  -3.609  21.605  0.00  0.00    +0.051 C 
ATOM     28  C   UNL     1       6.646  -4.769  22.412  0.00  0.00    +0.167 C 
ATOM     29  C   UNL     1       7.090  -5.877  21.451  0.00  0.00    +0.051 C 
ENDBRANCH  26  28
ENDBRANCH  12  26
ENDBRANCH   1  18
BRANCH   7  30
ATOM     30  C   UNL     1       6.747   2.910  25.289  0.00  0.00    +0.091 A 
ATOM     31  C   UNL     1       5.682   2.706  24.399  0.00  0.00    +0.114 A 
ATOM     32  C   UNL     1       4.507   2.101  24.865  0.00  0.00    +0.029 A 
ATOM     33  C   UNL     1       4.368   1.782  26.217  0.00  0.00    +0.002 A 
ATOM     34  C   UNL     1       5.348   2.164  27.127  0.00  0.00    +0.002 A 
ATOM     35  C   UNL     1       6.516   2.760  26.665  0.00  0.00    +0.030 A 
BRANCH  31  36
ATOM     36  S   UNL     1       5.572   3.588  22.839  0.00  0.00    +0.001 S 
ATOM     37  O   UNL     1       4.178   3.521  22.452  0.00  0.00    -0.169 OA
ATOM     38  O   UNL     1       6.568   2.989  21.961  0.00  0.00    -0.169 OA
BRANCH  36  39
ATOM     39  C   UNL     1       6.029   5.314  23.012  0.00  0.00    +0.130 C 
ATOM     40  C   UNL     1       4.822   6.199  22.643  0.00  0.00    +0.032 C 
ATOM     41  C   UNL     1       7.217   5.700  22.133  0.00  0.00    +0.032 C 
ENDBRANCH  36  39
ENDBRANCH  31  36
ENDBRANCH   7  30
TORSDOF 7
ENDMDL
MODEL 6
REMARK VINA RESULT:      -6.6      3.362      7.603
REMARK  Name = 
REMARK  12 active torsions:
REMARK  status: ('A' for Active; 'I' for Inactive)
REMARK    1  A    between atoms: C_1  and  C_2
REMARK    2  A    between atoms: C_2  and  C_3
REMARK    3  A    between atoms: C_2  and  O_4
REMARK    4  A    between atoms: O_4  and  C_5
REMARK    5  A    between atoms: C_6  and  N_7
REMARK    6  A    between atoms: N_15  and  C_16
REMARK    7  A    between atoms: C_21  and  S_22
REMARK    8  A    between atoms: S_22  and  C_25
REMARK    9  A    between atoms: C_25  and  C_26
REMARK   10  A    between atoms: C_25  and  C_27
REMARK   11  A    between atoms: C_29  and  C_30
REMARK   12  A    between atoms: C_31  and  C_33
REMARK                            x       y       z     vdW  Elec       q    Type
REMARK                         _______ _______ _______ _____ _____    ______ ____
ROOT
ATOM      1  N   UNL     1       5.094   0.188  27.082  0.00  0.00    -0.282 N 
ATOM      2  H   UNL     1       5.673   0.643  27.778  0.00  0.00    +0.155 HD
ATOM      3  C   UNL     1       5.265   0.806  25.867  0.00  0.00    +0.199 A 
ATOM      4  N   UNL     1       5.616   0.072  24.759  0.00  0.00    -0.311 N 
ATOM      5  H   UNL     1       5.484  -0.916  24.795  0.00  0.00    +0.170 HD
ATOM      6  C   UNL     1       6.109   0.677  23.590  0.00  0.00    +0.154 A 
ATOM      7  N   UNL     1       6.694   0.101  22.558  0.00  0.00    -0.227 NA
ATOM      8  C   UNL     1       6.012   2.178  23.542  0.00  0.00    +0.101 A 
ATOM      9 CL   UNL     1       6.499   3.064  22.162  0.00  0.00    -0.078 Cl
ATOM     10  C   UNL     1       5.596   2.755  24.677  0.00  0.00    +0.138 A 
ATOM     11  N   UNL     1       5.291   2.121  25.868  0.00  0.00    -0.223 NA
ENDROOT
BRANCH   1  18
ATOM     12  C   UNL     1       5.637  -2.237  27.116  0.00  0.00    +0.142 A 
ATOM     13  C   UNL     1       5.360  -3.526  27.650  0.00  0.00    +0.051 A 
ATOM     14  C   UNL     1       4.188  -3.783  28.394  0.00  0.00    -0.038 A 
ATOM     15  C   UNL     1       3.285  -2.700  28.554  0.00  0.00    -0.045 A 
ATOM     16  C   UNL     1       2.035  -2.794  29.394  0.00  0.00    +0.044 C 
ATOM     17  C   UNL     1       3.580  -1.433  28.014  0.00  0.00    +0.030 A 
ATOM     18  C   UNL     1       4.804  -1.146  27.414  0.00  0.00    +0.076 A 
BRANCH  14  19
ATOM     19  C   UNL     1       3.813  -5.158  28.979  0.00  0.00    +0.022 C 
ATOM     20  C   UNL     1       4.689  -5.819  30.061  0.00  0.00    +0.023 C 
ATOM     21  C   UNL     1       5.865  -6.633  29.516  0.00  0.00    +0.081 C 
ATOM     22  N   UNL     1       5.497  -7.541  28.429  0.00  0.00    -0.316 NA
ATOM     23  H   UNL     1       6.334  -7.998  28.072  0.00  0.00    +0.122 HD
ATOM     24  C   UNL     1       4.839  -6.817  27.354  0.00  0.00    +0.081 C 
ATOM     25  C   UNL     1       3.549  -6.195  27.867  0.00  0.00    +0.023 C 
ENDBRANCH  14  19
BRANCH  12  26
ATOM     26  O   UNL     1       6.722  -2.174  26.265  0.00  0.00    -0.488 OA
BRANCH  26  28
ATOM     27  C   UNL     1       8.833  -3.275  26.612  0.00  0.00    +0.051 C 
ATOM     28  C   UNL     1       8.022  -2.009  26.882  0.00  0.00    +0.167 C 
ATOM     29  C   UNL     1       8.795  -0.795  26.355  0.00  0.00    +0.051 C 
ENDBRANCH  26  28
ENDBRANCH  12  26
ENDBRANCH   1  18
BRANCH   7  30
ATOM     30  C   UNL     1       6.968  -1.271  22.609  0.00  0.00    +0.091 A 
ATOM     31  C   UNL     1       8.249  -1.760  22.908  0.00  0.00    +0.114 A 
ATOM     32  C   UNL     1       8.391  -3.084  23.346  0.00  0.00    +0.029 A 
ATOM     33  C   UNL     1       7.282  -3.929  23.403  0.00  0.00    +0.002 A 
ATOM     34  C   UNL     1       6.051  -3.496  22.920  0.00  0.00    +0.002 A 
ATOM     35  C   UNL     1       5.907  -2.182  22.491  0.00  0.00    +0.030 A 
BRANCH  31  36
ATOM     36  S   UNL     1       9.734  -0.939  22.321  0.00  0.00    +0.001 S 
ATOM     37  O   UNL     1       9.494  -0.655  20.920  0.00  0.00    -0.169 OA
ATOM     38  O   UNL     1      10.847  -1.808  22.675  0.00  0.00    -0.169 OA
BRANCH  36  39
ATOM     39  C   UNL     1      10.021   0.614  23.171  0.00  0.00    +0.130 C 
ATOM     40  C   UNL     1      10.175   1.742  22.131  0.00  0.00    +0.032 C 
ATOM     41  C   UNL     1      11.264   0.580  24.057  0.00  0.00    +0.032 C 
ENDBRANCH  36  39
ENDBRANCH  31  36
ENDBRANCH   7  30
TORSDOF 7
ENDMDL
MODEL 7
REMARK VINA RESULT:      -6.5      3.501      8.763
REMARK  Name = 
REMARK  12 active torsions:
REMARK  status: ('A' for Active; 'I' for Inactive)
REMARK    1  A    between atoms: C_1  and  C_2
REMARK    2  A    between atoms: C_2  and  C_3
REMARK    3  A    between atoms: C_2  and  O_4
REMARK    4  A    between atoms: O_4  and  C_5
REMARK    5  A    between atoms: C_6  and  N_7
REMARK    6  A    between atoms: N_15  and  C_16
REMARK    7  A    between atoms: C_21  and  S_22
REMARK    8  A    between atoms: S_22  and  C_25
REMARK    9  A    between atoms: C_25  and  C_26
REMARK   10  A    between atoms: C_25  and  C_27
REMARK   11  A    between atoms: C_29  and  C_30
REMARK   12  A    between atoms: C_31  and  C_33
REMARK                            x       y       z     vdW  Elec       q    Type
REMARK                         _______ _______ _______ _____ _____    ______ ____
ROOT
ATOM      1  N   UNL     1       7.336  -1.922  22.840  0.00  0.00    -0.282 N 
ATOM      2  H   UNL     1       7.277  -2.021  21.833  0.00  0.00    +0.155 HD
ATOM      3  C   UNL     1       8.219  -0.917  23.152  0.00  0.00    +0.199 A 
ATOM      4  N   UNL     1       7.830   0.119  23.968  0.00  0.00    -0.311 N 
ATOM      5  H   UNL     1       7.014  -0.010  24.525  0.00  0.00    +0.170 HD
ATOM      6  C   UNL     1       8.567   1.312  24.059  0.00  0.00    +0.154 A 
ATOM      7  N   UNL     1       8.202   2.456  24.605  0.00  0.00    -0.227 NA
ATOM      8  C   UNL     1       9.917   1.298  23.393  0.00  0.00    +0.101 A 
ATOM      9 CL   UNL     1      10.971   2.643  23.474  0.00  0.00    -0.078 Cl
ATOM     10  C   UNL     1      10.184   0.195  22.680  0.00  0.00    +0.138 A 
ATOM     11  N   UNL     1       9.346  -0.885  22.474  0.00  0.00    -0.223 NA
ENDROOT
BRANCH   1  18
ATOM     12  C   UNL     1       5.410  -3.475  23.068  0.00  0.00    +0.142 A 
ATOM     13  C   UNL     1       4.362  -3.983  23.886  0.00  0.00    +0.051 A 
ATOM     14  C   UNL     1       3.980  -3.342  25.084  0.00  0.00    -0.038 A 
ATOM     15  C   UNL     1       4.671  -2.147  25.415  0.00  0.00    -0.045 A 
ATOM     16  C   UNL     1       4.437  -1.395  26.702  0.00  0.00    +0.044 C 
ATOM     17  C   UNL     1       5.703  -1.661  24.588  0.00  0.00    +0.030 A 
ATOM     18  C   UNL     1       6.178  -2.378  23.491  0.00  0.00    +0.076 A 
BRANCH  14  19
ATOM     19  C   UNL     1       2.841  -3.822  26.004  0.00  0.00    +0.022 C 
ATOM     20  C   UNL     1       2.753  -5.296  26.445  0.00  0.00    +0.023 C 
ATOM     21  C   UNL     1       2.026  -6.212  25.457  0.00  0.00    +0.081 C 
ATOM     22  N   UNL     1       0.754  -5.670  24.980  0.00  0.00    -0.316 NA
ATOM     23  H   UNL     1       0.360  -6.295  24.280  0.00  0.00    +0.122 HD
ATOM     24  C   UNL     1       0.941  -4.348  24.403  0.00  0.00    +0.081 C 
ATOM     25  C   UNL     1       1.459  -3.392  25.467  0.00  0.00    +0.023 C 
ENDBRANCH  14  19
BRANCH  12  26
ATOM     26  O   UNL     1       5.555  -4.099  21.846  0.00  0.00    -0.488 OA
BRANCH  26  28
ATOM     27  C   UNL     1       6.096  -5.962  20.423  0.00  0.00    +0.051 C 
ATOM     28  C   UNL     1       6.014  -5.472  21.868  0.00  0.00    +0.167 C 
ATOM     29  C   UNL     1       7.383  -5.644  22.534  0.00  0.00    +0.051 C 
ENDBRANCH  26  28
ENDBRANCH  12  26
ENDBRANCH   1  18
BRANCH   7  30
ATOM     30  C   UNL     1       6.898   2.592  25.094  0.00  0.00    +0.091 A 
ATOM     31  C   UNL     1       5.813   2.859  24.246  0.00  0.00    +0.114 A 
ATOM     32  C   UNL     1       4.513   2.586  24.691  0.00  0.00    +0.029 A 
ATOM     33  C   UNL     1       4.295   2.132  25.993  0.00  0.00    +0.002 A 
ATOM     34  C   UNL     1       5.356   2.056  26.890  0.00  0.00    +0.002 A 
ATOM     35  C   UNL     1       6.647   2.322  26.448  0.00  0.00    +0.030 A 
BRANCH  31  36
ATOM     36  S   UNL     1       5.969   3.949  22.827  0.00  0.00    +0.001 S 
ATOM     37  O   UNL     1       4.629   4.429  22.556  0.00  0.00    -0.169 OA
ATOM     38  O   UNL     1       6.657   3.182  21.798  0.00  0.00    -0.169 OA
BRANCH  36  39
ATOM     39  C   UNL     1       7.014   5.363  23.181  0.00  0.00    +0.130 C 
ATOM     40  C   UNL     1       6.351   6.225  24.275  0.00  0.00    +0.032 C 
ATOM     41  C   UNL     1       7.270   6.230  21.951  0.00  0.00    +0.032 C 
ENDBRANCH  36  39
ENDBRANCH  31  36
ENDBRANCH   7  30
TORSDOF 7
ENDMDL
MODEL 8
REMARK VINA RESULT:      -6.5      2.867      5.106
REMARK  Name = 
REMARK  12 active torsions:
REMARK  status: ('A' for Active; 'I' for Inactive)
REMARK    1  A    between atoms: C_1  and  C_2
REMARK    2  A    between atoms: C_2  and  C_3
REMARK    3  A    between atoms: C_2  and  O_4
REMARK    4  A    between atoms: O_4  and  C_5
REMARK    5  A    between atoms: C_6  and  N_7
REMARK    6  A    between atoms: N_15  and  C_16
REMARK    7  A    between atoms: C_21  and  S_22
REMARK    8  A    between atoms: S_22  and  C_25
REMARK    9  A    between atoms: C_25  and  C_26
REMARK   10  A    between atoms: C_25  and  C_27
REMARK   11  A    between atoms: C_29  and  C_30
REMARK   12  A    between atoms: C_31  and  C_33
REMARK                            x       y       z     vdW  Elec       q    Type
REMARK                         _______ _______ _______ _____ _____    ______ ____
ROOT
ATOM      1  N   UNL     1       7.734  -0.748  23.638  0.00  0.00    -0.282 N 
ATOM      2  H   UNL     1       8.733  -0.915  23.680  0.00  0.00    +0.155 HD
ATOM      3  C   UNL     1       7.094  -1.888  23.217  0.00  0.00    +0.199 A 
ATOM      4  N   UNL     1       6.070  -2.423  23.962  0.00  0.00    -0.311 N 
ATOM      5  H   UNL     1       5.638  -1.839  24.646  0.00  0.00    +0.170 HD
ATOM      6  C   UNL     1       5.605  -3.733  23.756  0.00  0.00    +0.154 A 
ATOM      7  N   UNL     1       4.810  -4.448  24.530  0.00  0.00    -0.227 NA
ATOM      8  C   UNL     1       6.133  -4.428  22.530  0.00  0.00    +0.101 A 
ATOM      9 CL   UNL     1       5.612  -5.998  22.094  0.00  0.00    -0.078 Cl
ATOM     10  C   UNL     1       7.086  -3.759  21.867  0.00  0.00    +0.138 A 
ATOM     11  N   UNL     1       7.641  -2.540  22.214  0.00  0.00    -0.223 NA
ENDROOT
BRANCH   1  18
ATOM     12  C   UNL     1       8.083   1.436  24.773  0.00  0.00    +0.142 A 
ATOM     13  C   UNL     1       7.519   2.513  25.512  0.00  0.00    +0.051 A 
ATOM     14  C   UNL     1       6.237   2.419  26.096  0.00  0.00    -0.038 A 
ATOM     15  C   UNL     1       5.553   1.186  25.937  0.00  0.00    -0.045 A 
ATOM     16  C   UNL     1       4.144   0.961  26.428  0.00  0.00    +0.044 C 
ATOM     17  C   UNL     1       6.133   0.132  25.203  0.00  0.00    +0.030 A 
ATOM     18  C   UNL     1       7.328   0.282  24.502  0.00  0.00    +0.076 A 
BRANCH  14  19
ATOM     19  C   UNL     1       5.576   3.535  26.928  0.00  0.00    +0.022 C 
ATOM     20  C   UNL     1       5.951   5.013  26.702  0.00  0.00    +0.023 C 
ATOM     21  C   UNL     1       7.181   5.482  27.481  0.00  0.00    +0.081 C 
ATOM     22  N   UNL     1       7.167   5.094  28.892  0.00  0.00    -0.316 NA
ATOM     23  H   UNL     1       8.041   5.378  29.331  0.00  0.00    +0.122 HD
ATOM     24  C   UNL     1       6.998   3.656  29.029  0.00  0.00    +0.081 C 
ATOM     25  C   UNL     1       5.658   3.239  28.441  0.00  0.00    +0.023 C 
ENDBRANCH  14  19
BRANCH  12  26
ATOM     26  O   UNL     1       9.405   1.599  24.412  0.00  0.00    -0.488 OA
BRANCH  26  28
ATOM     27  C   UNL     1      10.891   3.254  23.495  0.00  0.00    +0.051 C 
ATOM     28  C   UNL     1       9.661   2.388  23.225  0.00  0.00    +0.167 C 
ATOM     29  C   UNL     1       9.910   1.538  21.974  0.00  0.00    +0.051 C 
ENDBRANCH  26  28
ENDBRANCH  12  26
ENDBRANCH   1  18
BRANCH   7  30
ATOM     30  C   UNL     1       4.416  -3.926  25.768  0.00  0.00    +0.091 A 
ATOM     31  C   UNL     1       5.294  -3.869  26.860  0.00  0.00    +0.114 A 
ATOM     32  C   UNL     1       5.013  -2.994  27.919  0.00  0.00    +0.029 A 
ATOM     33  C   UNL     1       3.830  -2.252  27.924  0.00  0.00    +0.002 A 
ATOM     34  C   UNL     1       2.874  -2.460  26.935  0.00  0.00    +0.002 A 
ATOM     35  C   UNL     1       3.154  -3.323  25.881  0.00  0.00    +0.030 A 
BRANCH  31  36
ATOM     36  S   UNL     1       6.487  -5.171  27.183  0.00  0.00    +0.001 S 
ATOM     37  O   UNL     1       6.034  -6.312  26.413  0.00  0.00    -0.169 OA
ATOM     38  O   UNL     1       6.570  -5.297  28.632  0.00  0.00    -0.169 OA
BRANCH  36  39
ATOM     39  C   UNL     1       8.132  -4.727  26.623  0.00  0.00    +0.130 C 
ATOM     40  C   UNL     1       8.238  -3.192  26.525  0.00  0.00    +0.032 C 
ATOM     41  C   UNL     1       8.477  -5.338  25.267  0.00  0.00    +0.032 C 
ENDBRANCH  36  39
ENDBRANCH  31  36
ENDBRANCH   7  30
TORSDOF 7
ENDMDL
MODEL 9
REMARK VINA RESULT:      -6.5      2.304      3.160
REMARK  Name = 
REMARK  12 active torsions:
REMARK  status: ('A' for Active; 'I' for Inactive)
REMARK    1  A    between atoms: C_1  and  C_2
REMARK    2  A    between atoms: C_2  and  C_3
REMARK    3  A    between atoms: C_2  and  O_4
REMARK    4  A    between atoms: O_4  and  C_5
REMARK    5  A    between atoms: C_6  and  N_7
REMARK    6  A    between atoms: N_15  and  C_16
REMARK    7  A    between atoms: C_21  and  S_22
REMARK    8  A    between atoms: S_22  and  C_25
REMARK    9  A    between atoms: C_25  and  C_26
REMARK   10  A    between atoms: C_25  and  C_27
REMARK   11  A    between atoms: C_29  and  C_30
REMARK   12  A    between atoms: C_31  and  C_33
REMARK                            x       y       z     vdW  Elec       q    Type
REMARK                         _______ _______ _______ _____ _____    ______ ____
ROOT
ATOM      1  N   UNL     1       4.855  -1.027  27.408  0.00  0.00    -0.282 N 
ATOM      2  H   UNL     1       3.885  -0.745  27.329  0.00  0.00    +0.155 HD
ATOM      3  C   UNL     1       4.921  -2.330  27.836  0.00  0.00    +0.199 A 
ATOM      4  N   UNL     1       5.639  -3.260  27.121  0.00  0.00    -0.311 N 
ATOM      5  H   UNL     1       6.306  -2.924  26.461  0.00  0.00    +0.170 HD
ATOM      6  C   UNL     1       5.482  -4.641  27.326  0.00  0.00    +0.154 A 
ATOM      7  N   UNL     1       5.916  -5.632  26.572  0.00  0.00    -0.227 NA
ATOM      8  C   UNL     1       4.659  -5.033  28.524  0.00  0.00    +0.101 A 
ATOM      9 CL   UNL     1       4.431  -6.672  28.958  0.00  0.00    -0.078 Cl
ATOM     10  C   UNL     1       4.067  -4.014  29.162  0.00  0.00    +0.138 A 
ATOM     11  N   UNL     1       4.109  -2.677  28.811  0.00  0.00    -0.223 NA
ENDROOT
BRANCH   1  18
ATOM     12  C   UNL     1       5.308   0.877  25.876  0.00  0.00    +0.142 A 
ATOM     13  C   UNL     1       6.271   1.677  25.201  0.00  0.00    +0.051 A 
ATOM     14  C   UNL     1       7.624   1.285  25.105  0.00  0.00    -0.038 A 
ATOM     15  C   UNL     1       7.968   0.037  25.687  0.00  0.00    -0.045 A 
ATOM     16  C   UNL     1       9.385  -0.478  25.742  0.00  0.00    +0.044 C 
ATOM     17  C   UNL     1       6.996  -0.740  26.348  0.00  0.00    +0.030 A 
ATOM     18  C   UNL     1       5.700  -0.279  26.572  0.00  0.00    +0.076 A 
BRANCH  14  19
ATOM     19  C   UNL     1       8.714   2.089  24.370  0.00  0.00    +0.022 C 
ATOM     20  C   UNL     1       8.811   3.618  24.536  0.00  0.00    +0.023 C 
ATOM     21  C   UNL     1       7.912   4.418  23.590  0.00  0.00    +0.081 C 
ATOM     22  N   UNL     1       7.985   3.977  22.197  0.00  0.00    -0.316 NA
ATOM     23  H   UNL     1       7.316   4.504  21.639  0.00  0.00    +0.122 HD
ATOM     24  C   UNL     1       7.697   2.556  22.090  0.00  0.00    +0.081 C 
ATOM     25  C   UNL     1       8.740   1.761  22.862  0.00  0.00    +0.023 C 
ENDBRANCH  14  19
BRANCH  12  26
ATOM     26  O   UNL     1       3.999   1.292  25.739  0.00  0.00    -0.488 OA
BRANCH  26  28
ATOM     27  C   UNL     1       3.095   3.521  25.674  0.00  0.00    +0.051 C 
ATOM     28  C   UNL     1       3.575   2.390  26.583  0.00  0.00    +0.167 C 
ATOM     29  C   UNL     1       2.449   2.011  27.551  0.00  0.00    +0.051 C 
ENDBRANCH  26  28
ENDBRANCH  12  26
ENDBRANCH   1  18
BRANCH   7  30
ATOM     30  C   UNL     1       6.543  -5.338  25.356  0.00  0.00    +0.091 A 
ATOM     31  C   UNL     1       5.811  -5.120  24.179  0.00  0.00    +0.114 A 
ATOM     32  C   UNL     1       6.418  -4.442  23.113  0.00  0.00    +0.029 A 
ATOM     33  C   UNL     1       7.759  -4.065  23.189  0.00  0.00    +0.002 A 
ATOM     34  C   UNL     1       8.531  -4.458  24.278  0.00  0.00    +0.002 A 
ATOM     35  C   UNL     1       7.930  -5.124  25.340  0.00  0.00    +0.030 A 
BRANCH  31  36
ATOM     36  S   UNL     1       4.326  -6.056  23.803  0.00  0.00    +0.001 S 
ATOM     37  O   UNL     1       4.516  -7.353  24.422  0.00  0.00    -0.169 OA
ATOM     38  O   UNL     1       4.159  -5.991  22.358  0.00  0.00    -0.169 OA
BRANCH  36  39
ATOM     39  C   UNL     1       2.862  -5.301  24.512  0.00  0.00    +0.130 C 
ATOM     40  C   UNL     1       3.145  -3.812  24.798  0.00  0.00    +0.032 C 
ATOM     41  C   UNL     1       2.415  -5.980  25.804  0.00  0.00    +0.032 C 
ENDBRANCH  36  39
ENDBRANCH  31  36
ENDBRANCH   7  30
TORSDOF 7
ENDMDL
