MODEL 1
REMARK VINA RESULT:      -5.8      0.000      0.000
REMARK  Name = 
REMARK  3 active torsions:
REMARK  status: ('A' for Active; 'I' for Inactive)
REMARK    1  A    between atoms: O_1  and  C_2
REMARK    2  A    between atoms: C_6  and  C_10
REMARK    3  A    between atoms: C_14  and  O_15
REMARK                            x       y       z     vdW  Elec       q    Type
REMARK                         _______ _______ _______ _____ _____    ______ ____
ROOT
ATOM      1  C   UNL     1       9.492  -0.299  24.894  0.00  0.00    +0.153 A 
ATOM      2  C   UNL     1       9.346  -0.799  23.603  0.00  0.00    +0.084 A 
ATOM      3 CL   UNL     1      10.108  -0.039  22.252  0.00  0.00    -0.080 Cl
ATOM      4  C   UNL     1       8.566  -1.941  23.371  0.00  0.00    +0.032 A 
ATOM      5  C   UNL     1       7.924  -2.622  24.424  0.00  0.00    -0.015 A 
ATOM      6  C   UNL     1       8.099  -2.104  25.722  0.00  0.00    +0.032 A 
ATOM      7  C   UNL     1       8.864  -0.955  25.950  0.00  0.00    +0.084 A 
ATOM      8 CL   UNL     1       9.017  -0.357  27.562  0.00  0.00    -0.080 Cl
ENDROOT
BRANCH   5   9
ATOM      9  C   UNL     1       7.098  -3.832  24.179  0.00  0.00    -0.015 A 
ATOM     10  C   UNL     1       6.466  -4.520  25.234  0.00  0.00    +0.032 A 
ATOM     11  C   UNL     1       5.690  -5.665  25.005  0.00  0.00    +0.084 A 
ATOM     12 CL   UNL     1       4.969  -6.453  26.363  0.00  0.00    -0.080 Cl
ATOM     13  C   UNL     1       5.511  -6.144  23.711  0.00  0.00    +0.153 A 
ATOM     14  C   UNL     1       6.123  -5.477  22.651  0.00  0.00    +0.084 A 
ATOM     15 CL   UNL     1       5.916  -6.038  21.031  0.00  0.00    -0.080 Cl
ATOM     16  C   UNL     1       6.910  -4.344  22.882  0.00  0.00    +0.032 A 
BRANCH  13  17
ATOM     17  O   UNL     1       4.743  -7.257  23.491  0.00  0.00    -0.504 OA
ATOM     18  H   UNL     1       5.271  -7.891  22.972  0.00  0.00    +0.292 HD
ENDBRANCH  13  17
ENDBRANCH   5   9
BRANCH   1  19
ATOM     19  O   UNL     1      10.247   0.825  25.112  0.00  0.00    -0.504 OA
ATOM     20  H   UNL     1      10.225   1.021  26.068  0.00  0.00    +0.292 HD
ENDBRANCH   1  19
TORSDOF 3
ENDMDL
MODEL 2
REMARK VINA RESULT:      -5.8      0.024      2.135
REMARK  Name = 
REMARK  3 active torsions:
REMARK  status: ('A' for Active; 'I' for Inactive)
REMARK    1  A    between atoms: O_1  and  C_2
REMARK    2  A    between atoms: C_6  and  C_10
REMARK    3  A    between atoms: C_14  and  O_15
REMARK                            x       y       z     vdW  Elec       q    Type
REMARK                         _______ _______ _______ _____ _____    ______ ____
ROOT
ATOM      1  C   UNL     1       9.508  -0.288  24.880  0.00  0.00    +0.153 A 
ATOM      2  C   UNL     1       8.873  -0.931  25.939  0.00  0.00    +0.084 A 
ATOM      3 CL   UNL     1       9.018  -0.352  27.560  0.00  0.00    -0.080 Cl
ATOM      4  C   UNL     1       8.097  -2.076  25.709  0.00  0.00    +0.032 A 
ATOM      5  C   UNL     1       7.921  -2.600  24.413  0.00  0.00    -0.015 A 
ATOM      6  C   UNL     1       8.563  -1.923  23.357  0.00  0.00    +0.032 A 
ATOM      7  C   UNL     1       9.351  -0.791  23.590  0.00  0.00    +0.084 A 
ATOM      8 CL   UNL     1      10.131  -0.024  22.254  0.00  0.00    -0.080 Cl
ENDROOT
BRANCH   5   9
ATOM      9  C   UNL     1       7.099  -3.812  24.168  0.00  0.00    -0.015 A 
ATOM     10  C   UNL     1       6.461  -4.497  25.221  0.00  0.00    +0.032 A 
ATOM     11  C   UNL     1       5.689  -5.644  24.992  0.00  0.00    +0.084 A 
ATOM     12 CL   UNL     1       4.959  -6.428  26.348  0.00  0.00    -0.080 Cl
ATOM     13  C   UNL     1       5.519  -6.129  23.698  0.00  0.00    +0.153 A 
ATOM     14  C   UNL     1       6.137  -5.465  22.639  0.00  0.00    +0.084 A 
ATOM     15 CL   UNL     1       5.943  -6.033  21.021  0.00  0.00    -0.080 Cl
ATOM     16  C   UNL     1       6.921  -4.330  22.871  0.00  0.00    +0.032 A 
BRANCH  13  17
ATOM     17  O   UNL     1       4.754  -7.244  23.477  0.00  0.00    -0.504 OA
ATOM     18  H   UNL     1       5.277  -8.025  23.736  0.00  0.00    +0.292 HD
ENDBRANCH  13  17
ENDBRANCH   5   9
BRANCH   1  19
ATOM     19  O   UNL     1      10.275   0.824  25.114  0.00  0.00    -0.504 OA
ATOM     20  H   UNL     1      11.165   0.525  25.380  0.00  0.00    +0.292 HD
ENDBRANCH   1  19
TORSDOF 3
ENDMDL
MODEL 3
REMARK VINA RESULT:      -5.8      0.020      3.020
REMARK  Name = 
REMARK  3 active torsions:
REMARK  status: ('A' for Active; 'I' for Inactive)
REMARK    1  A    between atoms: O_1  and  C_2
REMARK    2  A    between atoms: C_6  and  C_10
REMARK    3  A    between atoms: C_14  and  O_15
REMARK                            x       y       z     vdW  Elec       q    Type
REMARK                         _______ _______ _______ _____ _____    ______ ____
ROOT
ATOM      1  C   UNL     1       9.508  -0.300  24.885  0.00  0.00    +0.153 A 
ATOM      2  C   UNL     1       8.868  -0.935  25.946  0.00  0.00    +0.084 A 
ATOM      3 CL   UNL     1       9.011  -0.350  27.564  0.00  0.00    -0.080 Cl
ATOM      4  C   UNL     1       8.089  -2.079  25.718  0.00  0.00    +0.032 A 
ATOM      5  C   UNL     1       7.914  -2.608  24.424  0.00  0.00    -0.015 A 
ATOM      6  C   UNL     1       8.561  -1.938  23.367  0.00  0.00    +0.032 A 
ATOM      7  C   UNL     1       9.352  -0.807  23.598  0.00  0.00    +0.084 A 
ATOM      8 CL   UNL     1      10.137  -0.049  22.260  0.00  0.00    -0.080 Cl
ENDROOT
BRANCH   5   9
ATOM      9  C   UNL     1       7.088  -3.819  24.183  0.00  0.00    -0.015 A 
ATOM     10  C   UNL     1       6.906  -4.342  22.887  0.00  0.00    +0.032 A 
ATOM     11  C   UNL     1       6.123  -5.481  22.657  0.00  0.00    +0.084 A 
ATOM     12 CL   UNL     1       5.942  -6.038  21.031  0.00  0.00    -0.080 Cl
ATOM     13  C   UNL     1       5.513  -6.140  23.720  0.00  0.00    +0.153 A 
ATOM     14  C   UNL     1       5.683  -5.643  25.012  0.00  0.00    +0.084 A 
ATOM     15 CL   UNL     1       4.948  -6.439  26.356  0.00  0.00    -0.080 Cl
ATOM     16  C   UNL     1       6.451  -4.497  25.239  0.00  0.00    +0.032 A 
BRANCH  13  17
ATOM     17  O   UNL     1       4.757  -7.259  23.492  0.00  0.00    -0.504 OA
ATOM     18  H   UNL     1       5.158  -8.000  23.983  0.00  0.00    +0.292 HD
ENDBRANCH  13  17
ENDBRANCH   5   9
BRANCH   1  19
ATOM     19  O   UNL     1      10.277   0.811  25.116  0.00  0.00    -0.504 OA
ATOM     20  H   UNL     1      10.553   1.170  24.251  0.00  0.00    +0.292 HD
ENDBRANCH   1  19
TORSDOF 3
ENDMDL
MODEL 4
REMARK VINA RESULT:      -5.8      0.027      2.135
REMARK  Name = 
REMARK  3 active torsions:
REMARK  status: ('A' for Active; 'I' for Inactive)
REMARK    1  A    between atoms: O_1  and  C_2
REMARK    2  A    between atoms: C_6  and  C_10
REMARK    3  A    between atoms: C_14  and  O_15
REMARK                            x       y       z     vdW  Elec       q    Type
REMARK                         _______ _______ _______ _____ _____    ______ ____
ROOT
ATOM      1  C   UNL     1       9.491  -0.299  24.900  0.00  0.00    +0.153 A 
ATOM      2  C   UNL     1       9.358  -0.812  23.612  0.00  0.00    +0.084 A 
ATOM      3 CL   UNL     1      10.138  -0.068  22.263  0.00  0.00    -0.080 Cl
ATOM      4  C   UNL     1       8.576  -1.953  23.383  0.00  0.00    +0.032 A 
ATOM      5  C   UNL     1       7.919  -2.622  24.434  0.00  0.00    -0.015 A 
ATOM      6  C   UNL     1       8.081  -2.091  25.729  0.00  0.00    +0.032 A 
ATOM      7  C   UNL     1       8.848  -0.943  25.955  0.00  0.00    +0.084 A 
ATOM      8 CL   UNL     1       8.985  -0.330  27.563  0.00  0.00    -0.080 Cl
ENDROOT
BRANCH   5   9
ATOM      9  C   UNL     1       7.091  -3.831  24.192  0.00  0.00    -0.015 A 
ATOM     10  C   UNL     1       6.916  -4.359  22.897  0.00  0.00    +0.032 A 
ATOM     11  C   UNL     1       6.131  -5.496  22.667  0.00  0.00    +0.084 A 
ATOM     12 CL   UNL     1       5.959  -6.060  21.043  0.00  0.00    -0.080 Cl
ATOM     13  C   UNL     1       5.512  -6.149  23.729  0.00  0.00    +0.153 A 
ATOM     14  C   UNL     1       5.674  -5.648  25.020  0.00  0.00    +0.084 A 
ATOM     15 CL   UNL     1       4.928  -6.435  26.362  0.00  0.00    -0.080 Cl
ATOM     16  C   UNL     1       6.445  -4.502  25.247  0.00  0.00    +0.032 A 
BRANCH  13  17
ATOM     17  O   UNL     1       4.753  -7.267  23.501  0.00  0.00    -0.504 OA
ATOM     18  H   UNL     1       4.157  -7.389  24.262  0.00  0.00    +0.292 HD
ENDBRANCH  13  17
ENDBRANCH   5   9
BRANCH   1  19
ATOM     19  O   UNL     1      10.248   0.823  25.116  0.00  0.00    -0.504 OA
ATOM     20  H   UNL     1      10.034   1.469  24.416  0.00  0.00    +0.292 HD
ENDBRANCH   1  19
TORSDOF 3
ENDMDL
MODEL 5
REMARK VINA RESULT:      -5.8      0.059      6.198
REMARK  Name = 
REMARK  3 active torsions:
REMARK  status: ('A' for Active; 'I' for Inactive)
REMARK    1  A    between atoms: O_1  and  C_2
REMARK    2  A    between atoms: C_6  and  C_10
REMARK    3  A    between atoms: C_14  and  O_15
REMARK                            x       y       z     vdW  Elec       q    Type
REMARK                         _______ _______ _______ _____ _____    ______ ____
ROOT
ATOM      1  C   UNL     1       5.541  -6.128  23.707  0.00  0.00    +0.153 A 
ATOM      2  C   UNL     1       6.146  -5.463  22.644  0.00  0.00    +0.084 A 
ATOM      3 CL   UNL     1       5.977  -6.023  21.019  0.00  0.00    -0.080 Cl
ATOM      4  C   UNL     1       6.915  -4.314  22.876  0.00  0.00    +0.032 A 
ATOM      5  C   UNL     1       7.087  -3.789  24.171  0.00  0.00    -0.015 A 
ATOM      6  C   UNL     1       6.454  -4.473  25.227  0.00  0.00    +0.032 A 
ATOM      7  C   UNL     1       5.700  -5.629  24.998  0.00  0.00    +0.084 A 
ATOM      8 CL   UNL     1       4.972  -6.433  26.340  0.00  0.00    -0.080 Cl
ENDROOT
BRANCH   5   9
ATOM      9  C   UNL     1       7.902  -2.571  24.417  0.00  0.00    -0.015 A 
ATOM     10  C   UNL     1       8.095  -2.061  25.717  0.00  0.00    +0.032 A 
ATOM     11  C   UNL     1       8.858  -0.910  25.949  0.00  0.00    +0.084 A 
ATOM     12 CL   UNL     1       9.024  -0.349  27.575  0.00  0.00    -0.080 Cl
ATOM     13  C   UNL     1       9.465  -0.244  24.888  0.00  0.00    +0.153 A 
ATOM     14  C   UNL     1       9.292  -0.732  23.593  0.00  0.00    +0.084 A 
ATOM     15 CL   UNL     1      10.036   0.063  22.254  0.00  0.00    -0.080 Cl
ATOM     16  C   UNL     1       8.516  -1.872  23.361  0.00  0.00    +0.032 A 
BRANCH  13  17
ATOM     17  O   UNL     1      10.220   0.876  25.120  0.00  0.00    -0.504 OA
ATOM     18  H   UNL     1      10.022   1.192  26.021  0.00  0.00    +0.292 HD
ENDBRANCH  13  17
ENDBRANCH   5   9
BRANCH   1  19
ATOM     19  O   UNL     1       4.800  -7.258  23.476  0.00  0.00    -0.504 OA
ATOM     20  H   UNL     1       4.028  -7.239  24.073  0.00  0.00    +0.292 HD
ENDBRANCH   1  19
TORSDOF 3
ENDMDL
MODEL 6
REMARK VINA RESULT:      -5.8      0.113      6.895
REMARK  Name = 
REMARK  3 active torsions:
REMARK  status: ('A' for Active; 'I' for Inactive)
REMARK    1  A    between atoms: O_1  and  C_2
REMARK    2  A    between atoms: C_6  and  C_10
REMARK    3  A    between atoms: C_14  and  O_15
REMARK                            x       y       z     vdW  Elec       q    Type
REMARK                         _______ _______ _______ _____ _____    ______ ____
ROOT
ATOM      1  C   UNL     1       5.570  -6.100  23.598  0.00  0.00    +0.153 A 
ATOM      2  C   UNL     1       5.708  -5.614  24.895  0.00  0.00    +0.084 A 
ATOM      3 CL   UNL     1       4.933  -6.384  26.232  0.00  0.00    -0.080 Cl
ATOM      4  C   UNL     1       6.487  -4.474  25.143  0.00  0.00    +0.032 A 
ATOM      5  C   UNL     1       7.160  -3.799  24.106  0.00  0.00    -0.015 A 
ATOM      6  C   UNL     1       7.015  -4.319  22.805  0.00  0.00    +0.032 A 
ATOM      7  C   UNL     1       6.224  -5.447  22.556  0.00  0.00    +0.084 A 
ATOM      8 CL   UNL     1       6.068  -6.017  20.934  0.00  0.00    -0.080 Cl
ENDROOT
BRANCH   5   9
ATOM      9  C   UNL     1       7.986  -2.592  24.369  0.00  0.00    -0.015 A 
ATOM     10  C   UNL     1       8.636  -1.901  23.327  0.00  0.00    +0.032 A 
ATOM     11  C   UNL     1       9.418  -0.766  23.574  0.00  0.00    +0.084 A 
ATOM     12 CL   UNL     1      10.193   0.005  22.235  0.00  0.00    -0.080 Cl
ATOM     13  C   UNL     1       9.560  -0.279  24.870  0.00  0.00    +0.153 A 
ATOM     14  C   UNL     1       8.922  -0.943  25.917  0.00  0.00    +0.084 A 
ATOM     15 CL   UNL     1       9.068  -0.364  27.536  0.00  0.00    -0.080 Cl
ATOM     16  C   UNL     1       8.154  -2.086  25.672  0.00  0.00    +0.032 A 
BRANCH  13  17
ATOM     17  O   UNL     1      10.317   0.838  25.106  0.00  0.00    -0.504 OA
ATOM     18  H   UNL     1      11.227   0.550  25.307  0.00  0.00    +0.292 HD
ENDBRANCH  13  17
ENDBRANCH   5   9
BRANCH   1  19
ATOM     19  O   UNL     1       4.798  -7.207  23.360  0.00  0.00    -0.504 OA
ATOM     20  H   UNL     1       5.309  -7.993  23.632  0.00  0.00    +0.292 HD
ENDBRANCH   1  19
TORSDOF 3
ENDMDL
MODEL 7
REMARK VINA RESULT:      -5.8      0.117      6.556
REMARK  Name = 
REMARK  3 active torsions:
REMARK  status: ('A' for Active; 'I' for Inactive)
REMARK    1  A    between atoms: O_1  and  C_2
REMARK    2  A    between atoms: C_6  and  C_10
REMARK    3  A    between atoms: C_14  and  O_15
REMARK                            x       y       z     vdW  Elec       q    Type
REMARK                         _______ _______ _______ _____ _____    ______ ____
ROOT
ATOM      1  C   UNL     1       5.579  -6.102  23.595  0.00  0.00    +0.153 A 
ATOM      2  C   UNL     1       5.720  -5.616  24.892  0.00  0.00    +0.084 A 
ATOM      3 CL   UNL     1       4.951  -6.389  26.232  0.00  0.00    -0.080 Cl
ATOM      4  C   UNL     1       6.495  -4.474  25.139  0.00  0.00    +0.032 A 
ATOM      5  C   UNL     1       7.163  -3.797  24.100  0.00  0.00    -0.015 A 
ATOM      6  C   UNL     1       7.015  -4.317  22.799  0.00  0.00    +0.032 A 
ATOM      7  C   UNL     1       6.228  -5.447  22.552  0.00  0.00    +0.084 A 
ATOM      8 CL   UNL     1       6.068  -6.017  20.930  0.00  0.00    -0.080 Cl
ENDROOT
BRANCH   5   9
ATOM      9  C   UNL     1       7.986  -2.588  24.360  0.00  0.00    -0.015 A 
ATOM     10  C   UNL     1       8.158  -2.078  25.663  0.00  0.00    +0.032 A 
ATOM     11  C   UNL     1       8.929  -0.935  25.909  0.00  0.00    +0.084 A 
ATOM     12 CL   UNL     1       9.068  -0.372  27.537  0.00  0.00    -0.080 Cl
ATOM     13  C   UNL     1       9.565  -0.277  24.859  0.00  0.00    +0.153 A 
ATOM     14  C   UNL     1       9.413  -0.766  23.562  0.00  0.00    +0.084 A 
ATOM     15 CL   UNL     1      10.193   0.019  22.237  0.00  0.00    -0.080 Cl
ATOM     16  C   UNL     1       8.630  -1.898  23.315  0.00  0.00    +0.032 A 
BRANCH  13  17
ATOM     17  O   UNL     1      10.327   0.835  25.106  0.00  0.00    -0.504 OA
ATOM     18  H   UNL     1       9.872   1.369  25.782  0.00  0.00    +0.292 HD
ENDBRANCH  13  17
ENDBRANCH   5   9
BRANCH   1  19
ATOM     19  O   UNL     1       4.810  -7.212  23.360  0.00  0.00    -0.504 OA
ATOM     20  H   UNL     1       5.401  -7.989  23.340  0.00  0.00    +0.292 HD
ENDBRANCH   1  19
TORSDOF 3
ENDMDL
MODEL 8
REMARK VINA RESULT:      -5.8      0.112      6.556
REMARK  Name = 
REMARK  3 active torsions:
REMARK  status: ('A' for Active; 'I' for Inactive)
REMARK    1  A    between atoms: O_1  and  C_2
REMARK    2  A    between atoms: C_6  and  C_10
REMARK    3  A    between atoms: C_14  and  O_15
REMARK                            x       y       z     vdW  Elec       q    Type
REMARK                         _______ _______ _______ _____ _____    ______ ____
ROOT
ATOM      1  C   UNL     1       5.564  -6.103  23.605  0.00  0.00    +0.153 A 
ATOM      2  C   UNL     1       6.207  -5.454  22.555  0.00  0.00    +0.084 A 
ATOM      3 CL   UNL     1       6.068  -6.017  20.929  0.00  0.00    -0.080 Cl
ATOM      4  C   UNL     1       6.992  -4.319  22.801  0.00  0.00    +0.032 A 
ATOM      5  C   UNL     1       7.143  -3.792  24.099  0.00  0.00    -0.015 A 
ATOM      6  C   UNL     1       6.471  -4.460  25.141  0.00  0.00    +0.032 A 
ATOM      7  C   UNL     1       5.701  -5.602  24.898  0.00  0.00    +0.084 A 
ATOM      8 CL   UNL     1       4.924  -6.387  26.225  0.00  0.00    -0.080 Cl
ENDROOT
BRANCH   5   9
ATOM      9  C   UNL     1       7.974  -2.589  24.360  0.00  0.00    -0.015 A 
ATOM     10  C   UNL     1       8.627  -1.902  23.318  0.00  0.00    +0.032 A 
ATOM     11  C   UNL     1       9.415  -0.770  23.564  0.00  0.00    +0.084 A 
ATOM     12 CL   UNL     1      10.193  -0.004  22.224  0.00  0.00    -0.080 Cl
ATOM     13  C   UNL     1       9.559  -0.282  24.859  0.00  0.00    +0.153 A 
ATOM     14  C   UNL     1       8.918  -0.943  25.907  0.00  0.00    +0.084 A 
ATOM     15 CL   UNL     1       9.068  -0.362  27.526  0.00  0.00    -0.080 Cl
ATOM     16  C   UNL     1       8.145  -2.082  25.663  0.00  0.00    +0.032 A 
BRANCH  13  17
ATOM     17  O   UNL     1      10.322   0.831  25.094  0.00  0.00    -0.504 OA
ATOM     18  H   UNL     1       9.932   1.312  25.847  0.00  0.00    +0.292 HD
ENDBRANCH  13  17
ENDBRANCH   5   9
BRANCH   1  19
ATOM     19  O   UNL     1       4.807  -7.219  23.360  0.00  0.00    -0.504 OA
ATOM     20  H   UNL     1       4.520  -7.189  22.427  0.00  0.00    +0.292 HD
ENDBRANCH   1  19
TORSDOF 3
ENDMDL
MODEL 9
REMARK VINA RESULT:      -5.5      2.973      4.182
REMARK  Name = 
REMARK  3 active torsions:
REMARK  status: ('A' for Active; 'I' for Inactive)
REMARK    1  A    between atoms: O_1  and  C_2
REMARK    2  A    between atoms: C_6  and  C_10
REMARK    3  A    between atoms: C_14  and  O_15
REMARK                            x       y       z     vdW  Elec       q    Type
REMARK                         _______ _______ _______ _____ _____    ______ ____
ROOT
ATOM      1  C   UNL     1       8.297   2.865  22.804  0.00  0.00    +0.153 A 
ATOM      2  C   UNL     1       9.439   2.124  23.100  0.00  0.00    +0.084 A 
ATOM      3 CL   UNL     1      10.965   2.888  23.360  0.00  0.00    -0.080 Cl
ATOM      4  C   UNL     1       9.370   0.726  23.190  0.00  0.00    +0.032 A 
ATOM      5  C   UNL     1       8.158   0.033  23.004  0.00  0.00    -0.015 A 
ATOM      6  C   UNL     1       7.016   0.806  22.719  0.00  0.00    +0.032 A 
ATOM      7  C   UNL     1       7.089   2.200  22.612  0.00  0.00    +0.084 A 
ATOM      8 CL   UNL     1       5.656   3.086  22.235  0.00  0.00    -0.080 Cl
ENDROOT
BRANCH   5   9
ATOM      9  C   UNL     1       8.085  -1.448  23.101  0.00  0.00    -0.015 A 
ATOM     10  C   UNL     1       7.231  -2.201  22.270  0.00  0.00    +0.032 A 
ATOM     11  C   UNL     1       7.158  -3.597  22.364  0.00  0.00    +0.084 A 
ATOM     12 CL   UNL     1       6.068  -4.434  21.316  0.00  0.00    -0.080 Cl
ATOM     13  C   UNL     1       7.950  -4.282  23.281  0.00  0.00    +0.153 A 
ATOM     14  C   UNL     1       8.806  -3.558  24.110  0.00  0.00    +0.084 A 
ATOM     15 CL   UNL     1       9.809  -4.375  25.254  0.00  0.00    -0.080 Cl
ATOM     16  C   UNL     1       8.867  -2.164  24.027  0.00  0.00    +0.032 A 
BRANCH  13  17
ATOM     17  O   UNL     1       7.882  -5.648  23.362  0.00  0.00    -0.504 OA
ATOM     18  H   UNL     1       6.983  -5.922  23.105  0.00  0.00    +0.292 HD
ENDBRANCH  13  17
ENDBRANCH   5   9
BRANCH   1  19
ATOM     19  O   UNL     1       8.373   4.230  22.705  0.00  0.00    -0.504 OA
ATOM     20  H   UNL     1       8.319   4.600  23.607  0.00  0.00    +0.292 HD
ENDBRANCH   1  19
TORSDOF 3
ENDMDL
