MODEL 1
REMARK VINA RESULT:      -4.7      0.000      0.000
REMARK  Name = 
REMARK  4 active torsions:
REMARK  status: ('A' for Active; 'I' for Inactive)
REMARK    1  A    between atoms: C_1  and  O_2
REMARK    2  A    between atoms: O_2  and  C_3
REMARK    3  A    between atoms: C_5  and  C_6
REMARK    4  A    between atoms: C_10  and  O_11
REMARK                            x       y       z     vdW  Elec       q    Type
REMARK                         _______ _______ _______ _____ _____    ______ ____
ROOT
ATOM      1  C   UNL     1       9.930   0.888  23.504  0.00  0.00    +0.162 A 
ATOM      2  C   UNL     1       9.768   0.913  22.115  0.00  0.00    +0.158 A 
ATOM      3  C   UNL     1       9.610  -0.271  21.396  0.00  0.00    +0.050 A 
ATOM      4  C   UNL     1       9.601  -1.494  22.072  0.00  0.00    +0.012 A 
ATOM      5  C   UNL     1       9.728  -1.543  23.465  0.00  0.00    -0.022 A 
ATOM      6  C   UNL     1       9.891  -0.340  24.171  0.00  0.00    +0.057 A 
ENDROOT
BRANCH   1   8
ATOM      7  C   UNL     1       8.920   2.621  24.753  0.00  0.00    +0.277 C 
ATOM      8  O   UNL     1      10.092   2.093  24.142  0.00  0.00    -0.491 OA
ENDBRANCH   1   8
BRANCH   2   9
ATOM      9  O   UNL     1       9.794   2.113  21.458  0.00  0.00    -0.503 OA
ATOM     10  H   UNL     1       9.198   2.732  21.906  0.00  0.00    +0.292 HD
ENDBRANCH   2   9
BRANCH   5  11
ATOM     11  C   UNL     1       9.765  -2.849  24.137  0.00  0.00    +0.000 C 
ATOM     12  C   UNL     1       8.747  -3.719  24.187  0.00  0.00    +0.009 C 
ENDBRANCH   5  11
TORSDOF 3
ENDMDL
MODEL 2
REMARK VINA RESULT:      -4.4      1.854      4.076
REMARK  Name = 
REMARK  4 active torsions:
REMARK  status: ('A' for Active; 'I' for Inactive)
REMARK    1  A    between atoms: C_1  and  O_2
REMARK    2  A    between atoms: O_2  and  C_3
REMARK    3  A    between atoms: C_5  and  C_6
REMARK    4  A    between atoms: C_10  and  O_11
REMARK                            x       y       z     vdW  Elec       q    Type
REMARK                         _______ _______ _______ _____ _____    ______ ____
ROOT
ATOM      1  C   UNL     1       9.798  -0.568  23.595  0.00  0.00    +0.162 A 
ATOM      2  C   UNL     1       9.866  -0.424  22.205  0.00  0.00    +0.158 A 
ATOM      3  C   UNL     1       9.616   0.809  21.604  0.00  0.00    +0.050 A 
ATOM      4  C   UNL     1       9.306   1.915  22.400  0.00  0.00    +0.012 A 
ATOM      5  C   UNL     1       9.264   1.804  23.795  0.00  0.00    -0.022 A 
ATOM      6  C   UNL     1       9.515   0.553  24.381  0.00  0.00    +0.057 A 
ENDROOT
BRANCH   1   8
ATOM      7  C   UNL     1       8.909  -2.494  24.634  0.00  0.00    +0.277 C 
ATOM      8  O   UNL     1      10.045  -1.815  24.112  0.00  0.00    -0.491 OA
ENDBRANCH   1   8
BRANCH   2   9
ATOM      9  O   UNL     1      10.154  -1.515  21.431  0.00  0.00    -0.503 OA
ATOM     10  H   UNL     1      10.472  -1.215  20.566  0.00  0.00    +0.292 HD
ENDBRANCH   2   9
BRANCH   5  11
ATOM     11  C   UNL     1       8.885   2.976  24.597  0.00  0.00    +0.000 C 
ATOM     12  C   UNL     1       9.190   4.246  24.298  0.00  0.00    +0.009 C 
ENDBRANCH   5  11
TORSDOF 3
ENDMDL
MODEL 3
REMARK VINA RESULT:      -4.3      3.877      6.109
REMARK  Name = 
REMARK  4 active torsions:
REMARK  status: ('A' for Active; 'I' for Inactive)
REMARK    1  A    between atoms: C_1  and  O_2
REMARK    2  A    between atoms: O_2  and  C_3
REMARK    3  A    between atoms: C_5  and  C_6
REMARK    4  A    between atoms: C_10  and  O_11
REMARK                            x       y       z     vdW  Elec       q    Type
REMARK                         _______ _______ _______ _____ _____    ______ ____
ROOT
ATOM      1  C   UNL     1       8.724  -4.355  24.655  0.00  0.00    +0.162 A 
ATOM      2  C   UNL     1       8.544  -4.901  25.929  0.00  0.00    +0.158 A 
ATOM      3  C   UNL     1       7.315  -5.442  26.305  0.00  0.00    +0.050 A 
ATOM      4  C   UNL     1       6.256  -5.450  25.393  0.00  0.00    +0.012 A 
ATOM      5  C   UNL     1       6.422  -4.940  24.100  0.00  0.00    -0.022 A 
ATOM      6  C   UNL     1       7.665  -4.395  23.742  0.00  0.00    +0.057 A 
ENDROOT
BRANCH   1   8
ATOM      7  C   UNL     1       9.946  -2.521  23.804  0.00  0.00    +0.277 C 
ATOM      8  O   UNL     1       9.958  -3.830  24.362  0.00  0.00    -0.491 OA
ENDBRANCH   1   8
BRANCH   2   9
ATOM      9  O   UNL     1       9.580  -4.874  26.823  0.00  0.00    -0.503 OA
ATOM     10  H   UNL     1       9.234  -4.667  27.704  0.00  0.00    +0.292 HD
ENDBRANCH   2   9
BRANCH   5  11
ATOM     11  C   UNL     1       5.272  -4.918  23.185  0.00  0.00    +0.000 C 
ATOM     12  C   UNL     1       4.269  -5.808  23.186  0.00  0.00    +0.009 C 
ENDBRANCH   5  11
TORSDOF 3
ENDMDL
MODEL 4
REMARK VINA RESULT:      -4.3      3.453      5.450
REMARK  Name = 
REMARK  4 active torsions:
REMARK  status: ('A' for Active; 'I' for Inactive)
REMARK    1  A    between atoms: C_1  and  O_2
REMARK    2  A    between atoms: O_2  and  C_3
REMARK    3  A    between atoms: C_5  and  C_6
REMARK    4  A    between atoms: C_10  and  O_11
REMARK                            x       y       z     vdW  Elec       q    Type
REMARK                         _______ _______ _______ _____ _____    ______ ____
ROOT
ATOM      1  C   UNL     1       7.721  -3.698  22.962  0.00  0.00    +0.162 A 
ATOM      2  C   UNL     1       8.563  -3.942  24.052  0.00  0.00    +0.158 A 
ATOM      3  C   UNL     1       9.657  -3.116  24.306  0.00  0.00    +0.050 A 
ATOM      4  C   UNL     1       9.907  -2.024  23.470  0.00  0.00    +0.012 A 
ATOM      5  C   UNL     1       9.060  -1.740  22.392  0.00  0.00    -0.022 A 
ATOM      6  C   UNL     1       7.966  -2.586  22.150  0.00  0.00    +0.057 A 
ENDROOT
BRANCH   1   8
ATOM      7  C   UNL     1       6.796  -5.429  21.649  0.00  0.00    +0.277 C 
ATOM      8  O   UNL     1       6.672  -4.561  22.769  0.00  0.00    -0.491 OA
ENDBRANCH   1   8
BRANCH   2   9
ATOM      9  O   UNL     1       8.321  -5.022  24.857  0.00  0.00    -0.503 OA
ATOM     10  H   UNL     1       7.621  -4.797  25.488  0.00  0.00    +0.292 HD
ENDBRANCH   2   9
BRANCH   5  11
ATOM     11  C   UNL     1       9.383  -0.614  21.504  0.00  0.00    +0.000 C 
ATOM     12  C   UNL     1       9.793   0.595  21.911  0.00  0.00    +0.009 C 
ENDBRANCH   5  11
TORSDOF 3
ENDMDL
MODEL 5
REMARK VINA RESULT:      -4.3      5.685      7.153
REMARK  Name = 
REMARK  4 active torsions:
REMARK  status: ('A' for Active; 'I' for Inactive)
REMARK    1  A    between atoms: C_1  and  O_2
REMARK    2  A    between atoms: O_2  and  C_3
REMARK    3  A    between atoms: C_5  and  C_6
REMARK    4  A    between atoms: C_10  and  O_11
REMARK                            x       y       z     vdW  Elec       q    Type
REMARK                         _______ _______ _______ _____ _____    ______ ____
ROOT
ATOM      1  C   UNL     1       6.541  -5.701  25.733  0.00  0.00    +0.162 A 
ATOM      2  C   UNL     1       7.831  -5.210  25.959  0.00  0.00    +0.158 A 
ATOM      3  C   UNL     1       8.548  -4.593  24.934  0.00  0.00    +0.050 A 
ATOM      4  C   UNL     1       7.965  -4.452  23.672  0.00  0.00    +0.012 A 
ATOM      5  C   UNL     1       6.663  -4.906  23.430  0.00  0.00    -0.022 A 
ATOM      6  C   UNL     1       5.959  -5.528  24.473  0.00  0.00    +0.057 A 
ENDROOT
BRANCH   1   8
ATOM      7  C   UNL     1       4.599  -6.800  26.507  0.00  0.00    +0.277 C 
ATOM      8  O   UNL     1       5.903  -6.306  26.787  0.00  0.00    -0.491 OA
ENDBRANCH   1   8
BRANCH   2   9
ATOM      9  O   UNL     1       8.402  -5.366  27.193  0.00  0.00    -0.503 OA
ATOM     10  H   UNL     1       7.752  -5.759  27.795  0.00  0.00    +0.292 HD
ENDBRANCH   2   9
BRANCH   5  11
ATOM     11  C   UNL     1       6.101  -4.787  22.077  0.00  0.00    +0.000 C 
ATOM     12  C   UNL     1       6.250  -5.691  21.099  0.00  0.00    +0.009 C 
ENDBRANCH   5  11
TORSDOF 3
ENDMDL
MODEL 6
REMARK VINA RESULT:      -4.2      2.343      3.851
REMARK  Name = 
REMARK  4 active torsions:
REMARK  status: ('A' for Active; 'I' for Inactive)
REMARK    1  A    between atoms: C_1  and  O_2
REMARK    2  A    between atoms: O_2  and  C_3
REMARK    3  A    between atoms: C_5  and  C_6
REMARK    4  A    between atoms: C_10  and  O_11
REMARK                            x       y       z     vdW  Elec       q    Type
REMARK                         _______ _______ _______ _____ _____    ______ ____
ROOT
ATOM      1  C   UNL     1       9.361  -0.757  24.285  0.00  0.00    +0.162 A 
ATOM      2  C   UNL     1       9.857  -1.708  23.388  0.00  0.00    +0.158 A 
ATOM      3  C   UNL     1       9.947  -1.423  22.026  0.00  0.00    +0.050 A 
ATOM      4  C   UNL     1       9.550  -0.169  21.555  0.00  0.00    +0.012 A 
ATOM      5  C   UNL     1       9.081   0.811  22.438  0.00  0.00    -0.022 A 
ATOM      6  C   UNL     1       8.993   0.504  23.805  0.00  0.00    +0.057 A 
ENDROOT
BRANCH   1   8
ATOM      7  C   UNL     1       7.983  -1.120  26.170  0.00  0.00    +0.277 C 
ATOM      8  O   UNL     1       9.291  -1.115  25.609  0.00  0.00    -0.491 OA
ENDBRANCH   1   8
BRANCH   2   9
ATOM      9  O   UNL     1      10.228  -2.940  23.854  0.00  0.00    -0.503 OA
ATOM     10  H   UNL     1      11.195  -2.981  23.905  0.00  0.00    +0.292 HD
ENDBRANCH   2   9
BRANCH   5  11
ATOM     11  C   UNL     1       8.625   2.102  21.901  0.00  0.00    +0.000 C 
ATOM     12  C   UNL     1       7.354   2.528  21.898  0.00  0.00    +0.009 C 
ENDBRANCH   5  11
TORSDOF 3
ENDMDL
MODEL 7
REMARK VINA RESULT:      -4.1      3.229      4.683
REMARK  Name = 
REMARK  4 active torsions:
REMARK  status: ('A' for Active; 'I' for Inactive)
REMARK    1  A    between atoms: C_1  and  O_2
REMARK    2  A    between atoms: O_2  and  C_3
REMARK    3  A    between atoms: C_5  and  C_6
REMARK    4  A    between atoms: C_10  and  O_11
REMARK                            x       y       z     vdW  Elec       q    Type
REMARK                         _______ _______ _______ _____ _____    ______ ____
ROOT
ATOM      1  C   UNL     1       8.854  -3.394  23.899  0.00  0.00    +0.162 A 
ATOM      2  C   UNL     1       7.985  -3.024  22.867  0.00  0.00    +0.158 A 
ATOM      3  C   UNL     1       7.829  -1.685  22.512  0.00  0.00    +0.050 A 
ATOM      4  C   UNL     1       8.559  -0.703  23.186  0.00  0.00    +0.012 A 
ATOM      5  C   UNL     1       9.461  -1.051  24.200  0.00  0.00    -0.022 A 
ATOM      6  C   UNL     1       9.600  -2.404  24.546  0.00  0.00    +0.057 A 
ENDROOT
BRANCH   1   8
ATOM      7  C   UNL     1       9.610  -5.036  25.419  0.00  0.00    +0.277 C 
ATOM      8  O   UNL     1       8.945  -4.730  24.199  0.00  0.00    -0.491 OA
ENDBRANCH   1   8
BRANCH   2   9
ATOM      9  O   UNL     1       7.260  -3.990  22.223  0.00  0.00    -0.503 OA
ATOM     10  H   UNL     1       7.450  -4.851  22.626  0.00  0.00    +0.292 HD
ENDBRANCH   2   9
BRANCH   5  11
ATOM     11  C   UNL     1      10.174   0.013  24.922  0.00  0.00    +0.000 C 
ATOM     12  C   UNL     1      10.810   1.042  24.345  0.00  0.00    +0.009 C 
ENDBRANCH   5  11
TORSDOF 3
ENDMDL
MODEL 8
REMARK VINA RESULT:      -4.0      1.648      1.820
REMARK  Name = 
REMARK  4 active torsions:
REMARK  status: ('A' for Active; 'I' for Inactive)
REMARK    1  A    between atoms: C_1  and  O_2
REMARK    2  A    between atoms: O_2  and  C_3
REMARK    3  A    between atoms: C_5  and  C_6
REMARK    4  A    between atoms: C_10  and  O_11
REMARK                            x       y       z     vdW  Elec       q    Type
REMARK                         _______ _______ _______ _____ _____    ______ ____
ROOT
ATOM      1  C   UNL     1       7.893   0.937  22.574  0.00  0.00    +0.162 A 
ATOM      2  C   UNL     1       9.071   0.930  21.821  0.00  0.00    +0.158 A 
ATOM      3  C   UNL     1       9.708  -0.270  21.506  0.00  0.00    +0.050 A 
ATOM      4  C   UNL     1       9.155  -1.479  21.939  0.00  0.00    +0.012 A 
ATOM      5  C   UNL     1       7.959  -1.499  22.666  0.00  0.00    -0.022 A 
ATOM      6  C   UNL     1       7.336  -0.281  22.976  0.00  0.00    +0.057 A 
ENDROOT
BRANCH   1   8
ATOM      7  C   UNL     1       7.412   2.569  24.214  0.00  0.00    +0.277 C 
ATOM      8  O   UNL     1       7.331   2.158  22.854  0.00  0.00    -0.491 OA
ENDBRANCH   1   8
BRANCH   2   9
ATOM      9  O   UNL     1       9.615   2.118  21.415  0.00  0.00    -0.503 OA
ATOM     10  H   UNL     1       9.049   2.845  21.717  0.00  0.00    +0.292 HD
ENDBRANCH   2   9
BRANCH   5  11
ATOM     11  C   UNL     1       7.434  -2.785  23.148  0.00  0.00    +0.000 C 
ATOM     12  C   UNL     1       8.168  -3.752  23.716  0.00  0.00    +0.009 C 
ENDBRANCH   5  11
TORSDOF 3
ENDMDL
MODEL 9
REMARK VINA RESULT:      -4.0      2.784      4.289
REMARK  Name = 
REMARK  4 active torsions:
REMARK  status: ('A' for Active; 'I' for Inactive)
REMARK    1  A    between atoms: C_1  and  O_2
REMARK    2  A    between atoms: O_2  and  C_3
REMARK    3  A    between atoms: C_5  and  C_6
REMARK    4  A    between atoms: C_10  and  O_11
REMARK                            x       y       z     vdW  Elec       q    Type
REMARK                         _______ _______ _______ _____ _____    ______ ____
ROOT
ATOM      1  C   UNL     1       8.153  -2.316  22.950  0.00  0.00    +0.162 A 
ATOM      2  C   UNL     1       8.981  -2.626  24.033  0.00  0.00    +0.158 A 
ATOM      3  C   UNL     1       9.016  -3.918  24.555  0.00  0.00    +0.050 A 
ATOM      4  C   UNL     1       8.226  -4.917  23.981  0.00  0.00    +0.012 A 
ATOM      5  C   UNL     1       7.413  -4.639  22.875  0.00  0.00    -0.022 A 
ATOM      6  C   UNL     1       7.387  -3.331  22.367  0.00  0.00    +0.057 A 
ENDROOT
BRANCH   1   8
ATOM      7  C   UNL     1       7.083  -0.210  22.951  0.00  0.00    +0.277 C 
ATOM      8  O   UNL     1       8.163  -1.019  22.500  0.00  0.00    -0.491 OA
ENDBRANCH   1   8
BRANCH   2   9
ATOM      9  O   UNL     1       9.740  -1.640  24.601  0.00  0.00    -0.503 OA
ATOM     10  H   UNL     1      10.586  -2.016  24.889  0.00  0.00    +0.292 HD
ENDBRANCH   2   9
BRANCH   5  11
ATOM     11  C   UNL     1       6.557  -5.702  22.328  0.00  0.00    +0.000 C 
ATOM     12  C   UNL     1       6.203  -5.820  21.041  0.00  0.00    +0.009 C 
ENDBRANCH   5  11
TORSDOF 3
ENDMDL
