MODEL 1
REMARK VINA RESULT:      -6.7      0.000      0.000
REMARK  Name = 
REMARK  4 active torsions:
REMARK  status: ('A' for Active; 'I' for Inactive)
REMARK    1  A    between atoms: O_1  and  C_2
REMARK    2  A    between atoms: C_4  and  C_6
REMARK    3  A    between atoms: C_9  and  N_14
REMARK    4  A    between atoms: C_11  and  O_13
REMARK                            x       y       z     vdW  Elec       q    Type
REMARK                         _______ _______ _______ _____ _____    ______ ____
ROOT
ATOM      1  C   UNL     1       8.123  -5.480  25.911  0.00  0.00    +0.181 C 
ATOM      2  C   UNL     1       9.251  -4.544  25.490  0.00  0.00    +0.217 C 
ATOM      3  C   UNL     1       8.654  -3.757  24.305  0.00  0.00    +0.340 C 
ATOM      4  O   UNL     1       7.272  -4.151  24.169  0.00  0.00    -0.329 OA
ATOM      5  C   UNL     1       6.889  -4.752  25.412  0.00  0.00    +0.185 C 
ENDROOT
BRANCH   3   6
ATOM      6  N   UNL     1       8.761  -2.325  24.470  0.00  0.00    -0.149 N 
ATOM      7  C   UNL     1       8.959  -1.431  23.456  0.00  0.00    +0.338 C 
ATOM      8  N   UNL     1       9.282  -1.591  22.222  0.00  0.00    -0.004 NA
ATOM      9  C   UNL     1       9.663  -0.446  21.555  0.00  0.00    +0.505 C 
ATOM     10  N   UNL     1       9.972   0.692  22.095  0.00  0.00    +0.001 NA
ATOM     11  C   UNL     1       9.822   0.834  23.445  0.00  0.00    +0.374 C 
ATOM     12  N   UNL     1      10.439   1.814  24.008  0.00  0.00    -0.096 NA
ATOM     13  H   UNL     1      10.971   2.273  23.261  0.00  0.00    +0.363 HD
ATOM     14  C   UNL     1       8.845  -0.073  24.118  0.00  0.00    +0.344 C 
ATOM     15  N   UNL     1       9.053  -0.363  25.587  0.00  0.00    -0.226 NA
ATOM     16  C   UNL     1       8.892  -1.658  25.653  0.00  0.00    +0.304 C 
ENDBRANCH   3   6
BRANCH   1  17
ATOM     17  O   UNL     1       8.101  -5.656  27.324  0.00  0.00    -0.386 OA
ATOM     18  H   UNL     1       7.846  -6.582  27.502  0.00  0.00    +0.210 HD
ENDBRANCH   1  17
BRANCH   2  19
ATOM     19  O   UNL     1      10.395  -5.313  25.093  0.00  0.00    -0.383 OA
ATOM     20  H   UNL     1      10.067  -6.064  24.565  0.00  0.00    +0.210 HD
ENDBRANCH   2  19
BRANCH   5  21
ATOM     21  C   UNL     1       5.695  -5.671  25.232  0.00  0.00    +0.247 C 
ATOM     22  F   UNL     1       5.622  -6.049  23.927  0.00  0.00    -0.246 F 
ENDBRANCH   5  21
TORSDOF 4
ENDMDL
MODEL 2
REMARK VINA RESULT:      -6.5      3.810      6.184
REMARK  Name = 
REMARK  4 active torsions:
REMARK  status: ('A' for Active; 'I' for Inactive)
REMARK    1  A    between atoms: O_1  and  C_2
REMARK    2  A    between atoms: C_4  and  C_6
REMARK    3  A    between atoms: C_9  and  N_14
REMARK    4  A    between atoms: C_11  and  O_13
REMARK                            x       y       z     vdW  Elec       q    Type
REMARK                         _______ _______ _______ _____ _____    ______ ____
ROOT
ATOM      1  C   UNL     1       9.166   1.950  22.642  0.00  0.00    +0.181 C 
ATOM      2  C   UNL     1      10.034   1.024  23.487  0.00  0.00    +0.217 C 
ATOM      3  C   UNL     1       9.012   0.186  24.285  0.00  0.00    +0.340 C 
ATOM      4  O   UNL     1       7.694   0.548  23.822  0.00  0.00    -0.329 OA
ATOM      5  C   UNL     1       7.861   1.181  22.548  0.00  0.00    +0.185 C 
ENDROOT
BRANCH   3   6
ATOM      6  N   UNL     1       9.226  -1.237  24.152  0.00  0.00    -0.149 N 
ATOM      7  C   UNL     1       8.660  -2.192  24.946  0.00  0.00    +0.338 C 
ATOM      8  N   UNL     1       8.010  -2.114  26.053  0.00  0.00    -0.004 NA
ATOM      9  C   UNL     1       7.823  -3.308  26.718  0.00  0.00    +0.505 C 
ATOM     10  N   UNL     1       8.441  -4.424  26.483  0.00  0.00    +0.001 NA
ATOM     11  C   UNL     1       9.294  -4.484  25.419  0.00  0.00    +0.374 C 
ATOM     12  N   UNL     1      10.142  -5.453  25.397  0.00  0.00    -0.096 NA
ATOM     13  H   UNL     1       9.994  -5.971  26.269  0.00  0.00    +0.363 HD
ATOM     14  C   UNL     1       9.069  -3.507  24.313  0.00  0.00    +0.344 C 
ATOM     15  N   UNL     1      10.253  -3.143  23.446  0.00  0.00    -0.226 NA
ATOM     16  C   UNL     1      10.167  -1.840  23.369  0.00  0.00    +0.304 C 
ENDBRANCH   3   6
BRANCH   1  17
ATOM     17  O   UNL     1       9.745   2.171  21.360  0.00  0.00    -0.386 OA
ATOM     18  H   UNL     1      10.117   3.074  21.357  0.00  0.00    +0.210 HD
ENDBRANCH   1  17
BRANCH   2  19
ATOM     19  O   UNL     1      10.871   1.802  24.353  0.00  0.00    -0.383 OA
ATOM     20  H   UNL     1      11.755   1.839  23.942  0.00  0.00    +0.210 HD
ENDBRANCH   2  19
BRANCH   5  21
ATOM     21  C   UNL     1       6.676   2.070  22.218  0.00  0.00    +0.247 C 
ATOM     22  F   UNL     1       7.092   3.364  22.177  0.00  0.00    -0.246 F 
ENDBRANCH   5  21
TORSDOF 4
ENDMDL
MODEL 3
REMARK VINA RESULT:      -6.3      2.035      3.169
REMARK  Name = 
REMARK  4 active torsions:
REMARK  status: ('A' for Active; 'I' for Inactive)
REMARK    1  A    between atoms: O_1  and  C_2
REMARK    2  A    between atoms: C_4  and  C_6
REMARK    3  A    between atoms: C_9  and  N_14
REMARK    4  A    between atoms: C_11  and  O_13
REMARK                            x       y       z     vdW  Elec       q    Type
REMARK                         _______ _______ _______ _____ _____    ______ ____
ROOT
ATOM      1  C   UNL     1       7.462  -4.862  23.479  0.00  0.00    +0.181 C 
ATOM      2  C   UNL     1       7.221  -3.591  22.669  0.00  0.00    +0.217 C 
ATOM      3  C   UNL     1       7.579  -2.455  23.650  0.00  0.00    +0.340 C 
ATOM      4  O   UNL     1       8.088  -3.063  24.857  0.00  0.00    -0.329 OA
ATOM      5  C   UNL     1       8.468  -4.402  24.518  0.00  0.00    +0.185 C 
ENDROOT
BRANCH   3   6
ATOM      6  N   UNL     1       8.541  -1.524  23.104  0.00  0.00    -0.149 N 
ATOM      7  C   UNL     1       8.900  -0.340  23.682  0.00  0.00    +0.338 C 
ATOM      8  N   UNL     1       8.398   0.326  24.660  0.00  0.00    -0.004 NA
ATOM      9  C   UNL     1       8.854   1.620  24.794  0.00  0.00    +0.505 C 
ATOM     10  N   UNL     1       9.518   2.297  23.910  0.00  0.00    +0.001 NA
ATOM     11  C   UNL     1       9.905   1.666  22.762  0.00  0.00    +0.374 C 
ATOM     12  N   UNL     1      10.247   2.408  21.767  0.00  0.00    -0.096 NA
ATOM     13  H   UNL     1      10.102   3.374  22.079  0.00  0.00    +0.363 HD
ATOM     14  C   UNL     1      10.030   0.179  22.815  0.00  0.00    +0.344 C 
ATOM     15  N   UNL     1       9.879  -0.585  21.520  0.00  0.00    -0.226 NA
ATOM     16  C   UNL     1       9.082  -1.567  21.853  0.00  0.00    +0.304 C 
ENDBRANCH   3   6
BRANCH   1  17
ATOM     17  O   UNL     1       7.984  -5.903  22.659  0.00  0.00    -0.386 OA
ATOM     18  H   UNL     1       8.917  -5.688  22.468  0.00  0.00    +0.210 HD
ENDBRANCH   1  17
BRANCH   2  19
ATOM     19  O   UNL     1       5.846  -3.529  22.266  0.00  0.00    -0.383 OA
ATOM     20  H   UNL     1       5.305  -3.649  23.068  0.00  0.00    +0.210 HD
ENDBRANCH   2  19
BRANCH   5  21
ATOM     21  C   UNL     1       8.493  -5.292  25.747  0.00  0.00    +0.247 C 
ATOM     22  F   UNL     1       9.334  -4.750  26.668  0.00  0.00    -0.246 F 
ENDBRANCH   5  21
TORSDOF 4
ENDMDL
MODEL 4
REMARK VINA RESULT:      -6.3      1.778      2.725
REMARK  Name = 
REMARK  4 active torsions:
REMARK  status: ('A' for Active; 'I' for Inactive)
REMARK    1  A    between atoms: O_1  and  C_2
REMARK    2  A    between atoms: C_4  and  C_6
REMARK    3  A    between atoms: C_9  and  N_14
REMARK    4  A    between atoms: C_11  and  O_13
REMARK                            x       y       z     vdW  Elec       q    Type
REMARK                         _______ _______ _______ _____ _____    ______ ____
ROOT
ATOM      1  C   UNL     1       6.549  -3.810  24.697  0.00  0.00    +0.181 C 
ATOM      2  C   UNL     1       7.552  -2.688  24.947  0.00  0.00    +0.217 C 
ATOM      3  C   UNL     1       8.767  -3.078  24.079  0.00  0.00    +0.340 C 
ATOM      4  O   UNL     1       8.406  -4.256  23.326  0.00  0.00    -0.329 OA
ATOM      5  C   UNL     1       6.975  -4.333  23.338  0.00  0.00    +0.185 C 
ENDROOT
BRANCH   3   6
ATOM      6  N   UNL     1       9.189  -2.017  23.193  0.00  0.00    -0.149 N 
ATOM      7  C   UNL     1       9.888  -0.909  23.575  0.00  0.00    +0.338 C 
ATOM      8  N   UNL     1      10.168  -0.427  24.734  0.00  0.00    -0.004 NA
ATOM      9  C   UNL     1      10.660   0.861  24.739  0.00  0.00    +0.505 C 
ATOM     10  N   UNL     1      10.626   1.702  23.752  0.00  0.00    +0.001 NA
ATOM     11  C   UNL     1      10.149   1.271  22.547  0.00  0.00    +0.374 C 
ATOM     12  N   UNL     1       9.800   2.171  21.694  0.00  0.00    -0.096 NA
ATOM     13  H   UNL     1       9.935   3.070  22.169  0.00  0.00    +0.363 HD
ATOM     14  C   UNL     1      10.212  -0.196  22.277  0.00  0.00    +0.344 C 
ATOM     15  N   UNL     1       9.226  -0.771  21.288  0.00  0.00    -0.226 NA
ATOM     16  C   UNL     1       8.790  -1.841  21.900  0.00  0.00    +0.304 C 
ENDBRANCH   3   6
BRANCH   1  17
ATOM     17  O   UNL     1       5.215  -3.313  24.680  0.00  0.00    -0.386 OA
ATOM     18  H   UNL     1       5.248  -2.390  24.362  0.00  0.00    +0.210 HD
ENDBRANCH   1  17
BRANCH   2  19
ATOM     19  O   UNL     1       7.890  -2.644  26.341  0.00  0.00    -0.383 OA
ATOM     20  H   UNL     1       8.020  -3.564  26.634  0.00  0.00    +0.210 HD
ENDBRANCH   2  19
BRANCH   5  21
ATOM     21  C   UNL     1       6.501  -5.751  23.077  0.00  0.00    +0.247 C 
ATOM     22  F   UNL     1       7.353  -6.348  22.202  0.00  0.00    -0.246 F 
ENDBRANCH   5  21
TORSDOF 4
ENDMDL
MODEL 5
REMARK VINA RESULT:      -6.2      3.689      6.067
REMARK  Name = 
REMARK  4 active torsions:
REMARK  status: ('A' for Active; 'I' for Inactive)
REMARK    1  A    between atoms: O_1  and  C_2
REMARK    2  A    between atoms: C_4  and  C_6
REMARK    3  A    between atoms: C_9  and  N_14
REMARK    4  A    between atoms: C_11  and  O_13
REMARK                            x       y       z     vdW  Elec       q    Type
REMARK                         _______ _______ _______ _____ _____    ______ ____
ROOT
ATOM      1  C   UNL     1       8.189   1.272  24.235  0.00  0.00    +0.181 C 
ATOM      2  C   UNL     1       7.374  -0.016  24.272  0.00  0.00    +0.217 C 
ATOM      3  C   UNL     1       8.010  -0.889  23.171  0.00  0.00    +0.340 C 
ATOM      4  O   UNL     1       9.156  -0.177  22.656  0.00  0.00    -0.329 OA
ATOM      5  C   UNL     1       9.505   0.810  23.635  0.00  0.00    +0.185 C 
ENDROOT
BRANCH   3   6
ATOM      6  N   UNL     1       8.395  -2.199  23.644  0.00  0.00    -0.149 N 
ATOM      7  C   UNL     1       7.529  -3.165  24.070  0.00  0.00    +0.338 C 
ATOM      8  N   UNL     1       6.274  -3.131  24.345  0.00  0.00    -0.004 NA
ATOM      9  C   UNL     1       5.782  -4.232  25.013  0.00  0.00    +0.505 C 
ATOM     10  N   UNL     1       6.482  -5.150  25.603  0.00  0.00    +0.001 NA
ATOM     11  C   UNL     1       7.843  -5.105  25.489  0.00  0.00    +0.374 C 
ATOM     12  N   UNL     1       8.529  -5.790  26.336  0.00  0.00    -0.096 NA
ATOM     13  H   UNL     1       7.844  -6.212  26.971  0.00  0.00    +0.363 HD
ATOM     14  C   UNL     1       8.401  -4.381  24.309  0.00  0.00    +0.344 C 
ATOM     15  N   UNL     1       9.796  -3.813  24.428  0.00  0.00    -0.226 NA
ATOM     16  C   UNL     1       9.663  -2.609  23.937  0.00  0.00    +0.304 C 
ENDBRANCH   3   6
BRANCH   1  17
ATOM     17  O   UNL     1       8.362   1.810  25.541  0.00  0.00    -0.386 OA
ATOM     18  H   UNL     1       9.266   1.586  25.836  0.00  0.00    +0.210 HD
ENDBRANCH   1  17
BRANCH   2  19
ATOM     19  O   UNL     1       5.998   0.275  23.989  0.00  0.00    -0.383 OA
ATOM     20  H   UNL     1       5.612  -0.526  23.588  0.00  0.00    +0.210 HD
ENDBRANCH   2  19
BRANCH   5  21
ATOM     21  C   UNL     1      10.298   1.943  23.012  0.00  0.00    +0.247 C 
ATOM     22  F   UNL     1      10.249   1.825  21.658  0.00  0.00    -0.246 F 
ENDBRANCH   5  21
TORSDOF 4
ENDMDL
MODEL 6
REMARK VINA RESULT:      -6.1      3.631      6.233
REMARK  Name = 
REMARK  4 active torsions:
REMARK  status: ('A' for Active; 'I' for Inactive)
REMARK    1  A    between atoms: O_1  and  C_2
REMARK    2  A    between atoms: C_4  and  C_6
REMARK    3  A    between atoms: C_9  and  N_14
REMARK    4  A    between atoms: C_11  and  O_13
REMARK                            x       y       z     vdW  Elec       q    Type
REMARK                         _______ _______ _______ _____ _____    ______ ____
ROOT
ATOM      1  C   UNL     1       9.693   0.609  22.215  0.00  0.00    +0.181 C 
ATOM      2  C   UNL     1       9.415  -0.890  22.172  0.00  0.00    +0.217 C 
ATOM      3  C   UNL     1       9.317  -1.290  23.659  0.00  0.00    +0.340 C 
ATOM      4  O   UNL     1       9.415  -0.083  24.445  0.00  0.00    -0.329 OA
ATOM      5  C   UNL     1       9.124   1.009  23.564  0.00  0.00    +0.185 C 
ENDROOT
BRANCH   3   6
ATOM      6  N   UNL     1       8.098  -2.002  23.970  0.00  0.00    -0.149 N 
ATOM      7  C   UNL     1       7.975  -2.961  24.934  0.00  0.00    +0.338 C 
ATOM      8  N   UNL     1       8.849  -3.596  25.630  0.00  0.00    -0.004 NA
ATOM      9  C   UNL     1       8.378  -4.695  26.317  0.00  0.00    +0.505 C 
ATOM     10  N   UNL     1       7.240  -5.289  26.131  0.00  0.00    +0.001 NA
ATOM     11  C   UNL     1       6.357  -4.741  25.245  0.00  0.00    +0.374 C 
ATOM     12  N   UNL     1       5.406  -5.495  24.816  0.00  0.00    -0.096 NA
ATOM     13  H   UNL     1       5.567  -6.414  25.242  0.00  0.00    +0.363 HD
ATOM     14  C   UNL     1       6.493  -3.280  24.968  0.00  0.00    +0.344 C 
ATOM     15  N   UNL     1       5.978  -2.766  23.643  0.00  0.00    -0.226 NA
ATOM     16  C   UNL     1       6.949  -1.991  23.235  0.00  0.00    +0.304 C 
ENDBRANCH   3   6
BRANCH   1  17
ATOM     17  O   UNL     1       9.042   1.284  21.144  0.00  0.00    -0.386 OA
ATOM     18  H   UNL     1       8.142   1.516  21.445  0.00  0.00    +0.210 HD
ENDBRANCH   1  17
BRANCH   2  19
ATOM     19  O   UNL     1      10.497  -1.563  21.513  0.00  0.00    -0.383 OA
ATOM     20  H   UNL     1      11.028  -1.999  22.205  0.00  0.00    +0.210 HD
ENDBRANCH   2  19
BRANCH   5  21
ATOM     21  C   UNL     1       9.709   2.307  24.089  0.00  0.00    +0.247 C 
ATOM     22  F   UNL     1      11.000   2.410  23.674  0.00  0.00    -0.246 F 
ENDBRANCH   5  21
TORSDOF 4
ENDMDL
MODEL 7
REMARK VINA RESULT:      -6.1      3.775      6.341
REMARK  Name = 
REMARK  4 active torsions:
REMARK  status: ('A' for Active; 'I' for Inactive)
REMARK    1  A    between atoms: O_1  and  C_2
REMARK    2  A    between atoms: C_4  and  C_6
REMARK    3  A    between atoms: C_9  and  N_14
REMARK    4  A    between atoms: C_11  and  O_13
REMARK                            x       y       z     vdW  Elec       q    Type
REMARK                         _______ _______ _______ _____ _____    ______ ____
ROOT
ATOM      1  C   UNL     1       9.208   0.259  22.289  0.00  0.00    +0.181 C 
ATOM      2  C   UNL     1       9.036  -1.218  21.948  0.00  0.00    +0.217 C 
ATOM      3  C   UNL     1       8.474  -1.835  23.245  0.00  0.00    +0.340 C 
ATOM      4  O   UNL     1       8.247  -0.757  24.179  0.00  0.00    -0.329 OA
ATOM      5  C   UNL     1       8.207   0.453  23.413  0.00  0.00    +0.185 C 
ENDROOT
BRANCH   3   6
ATOM      6  N   UNL     1       7.258  -2.586  23.030  0.00  0.00    -0.149 N 
ATOM      7  C   UNL     1       6.747  -3.513  23.892  0.00  0.00    +0.338 C 
ATOM      8  N   UNL     1       7.241  -4.083  24.933  0.00  0.00    -0.004 NA
ATOM      9  C   UNL     1       6.542  -5.174  25.402  0.00  0.00    +0.505 C 
ATOM     10  N   UNL     1       5.614  -5.823  24.769  0.00  0.00    +0.001 NA
ATOM     11  C   UNL     1       5.197  -5.347  23.558  0.00  0.00    +0.374 C 
ATOM     12  N   UNL     1       4.548  -6.159  22.798  0.00  0.00    -0.096 NA
ATOM     13  H   UNL     1       4.526  -7.052  23.299  0.00  0.00    +0.363 HD
ATOM     14  C   UNL     1       5.408  -3.894  23.292  0.00  0.00    +0.344 C 
ATOM     15  N   UNL     1       5.514  -3.452  21.850  0.00  0.00    -0.226 NA
ATOM     16  C   UNL     1       6.548  -2.652  21.867  0.00  0.00    +0.304 C 
ENDBRANCH   3   6
BRANCH   1  17
ATOM     17  O   UNL     1       8.913   1.085  21.168  0.00  0.00    -0.386 OA
ATOM     18  H   UNL     1       8.650   0.499  20.431  0.00  0.00    +0.210 HD
ENDBRANCH   1  17
BRANCH   2  19
ATOM     19  O   UNL     1      10.308  -1.784  21.599  0.00  0.00    -0.383 OA
ATOM     20  H   UNL     1      10.993  -1.162  21.907  0.00  0.00    +0.210 HD
ENDBRANCH   2  19
BRANCH   5  21
ATOM     21  C   UNL     1       8.520   1.660  24.279  0.00  0.00    +0.247 C 
ATOM     22  F   UNL     1       9.857   1.904  24.230  0.00  0.00    -0.246 F 
ENDBRANCH   5  21
TORSDOF 4
ENDMDL
MODEL 8
REMARK VINA RESULT:      -6.0      3.879      6.771
REMARK  Name = 
REMARK  4 active torsions:
REMARK  status: ('A' for Active; 'I' for Inactive)
REMARK    1  A    between atoms: O_1  and  C_2
REMARK    2  A    between atoms: C_4  and  C_6
REMARK    3  A    between atoms: C_9  and  N_14
REMARK    4  A    between atoms: C_11  and  O_13
REMARK                            x       y       z     vdW  Elec       q    Type
REMARK                         _______ _______ _______ _____ _____    ______ ____
ROOT
ATOM      1  C   UNL     1       9.263  -4.704  25.481  0.00  0.00    +0.181 C 
ATOM      2  C   UNL     1       8.016  -5.422  25.987  0.00  0.00    +0.217 C 
ATOM      3  C   UNL     1       6.868  -4.445  25.657  0.00  0.00    +0.340 C 
ATOM      4  O   UNL     1       7.434  -3.337  24.924  0.00  0.00    -0.329 OA
ATOM      5  C   UNL     1       8.701  -3.778  24.419  0.00  0.00    +0.185 C 
ENDROOT
BRANCH   3   6
ATOM      6  N   UNL     1       5.802  -5.063  24.902  0.00  0.00    -0.149 N 
ATOM      7  C   UNL     1       4.671  -5.604  25.442  0.00  0.00    +0.338 C 
ATOM      8  N   UNL     1       4.347  -5.884  26.654  0.00  0.00    -0.004 NA
ATOM      9  C   UNL     1       3.230  -6.678  26.802  0.00  0.00    +0.505 C 
ATOM     10  N   UNL     1       2.645  -7.365  25.870  0.00  0.00    +0.001 NA
ATOM     11  C   UNL     1       3.095  -7.237  24.587  0.00  0.00    +0.374 C 
ATOM     12  N   UNL     1       2.755  -8.152  23.748  0.00  0.00    -0.096 NA
ATOM     13  H   UNL     1       2.216  -8.837  24.288  0.00  0.00    +0.363 HD
ATOM     14  C   UNL     1       3.818  -5.976  24.245  0.00  0.00    +0.344 C 
ATOM     15  N   UNL     1       4.798  -6.018  23.096  0.00  0.00    -0.226 NA
ATOM     16  C   UNL     1       5.840  -5.392  23.578  0.00  0.00    +0.304 C 
ENDBRANCH   3   6
BRANCH   1  17
ATOM     17  O   UNL     1      10.203  -5.626  24.937  0.00  0.00    -0.386 OA
ATOM     18  H   UNL     1      11.089  -5.367  25.257  0.00  0.00    +0.210 HD
ENDBRANCH   1  17
BRANCH   2  19
ATOM     19  O   UNL     1       8.128  -5.650  27.398  0.00  0.00    -0.383 OA
ATOM     20  H   UNL     1       7.508  -6.368  27.623  0.00  0.00    +0.210 HD
ENDBRANCH   2  19
BRANCH   5  21
ATOM     21  C   UNL     1       9.611  -2.601  24.122  0.00  0.00    +0.247 C 
ATOM     22  F   UNL     1       9.247  -1.551  24.905  0.00  0.00    -0.246 F 
ENDBRANCH   5  21
TORSDOF 4
ENDMDL
MODEL 9
REMARK VINA RESULT:      -5.9      2.065      2.260
REMARK  Name = 
REMARK  4 active torsions:
REMARK  status: ('A' for Active; 'I' for Inactive)
REMARK    1  A    between atoms: O_1  and  C_2
REMARK    2  A    between atoms: C_4  and  C_6
REMARK    3  A    between atoms: C_9  and  N_14
REMARK    4  A    between atoms: C_11  and  O_13
REMARK                            x       y       z     vdW  Elec       q    Type
REMARK                         _______ _______ _______ _____ _____    ______ ____
ROOT
ATOM      1  C   UNL     1       7.983  -4.753  24.074  0.00  0.00    +0.181 C 
ATOM      2  C   UNL     1       8.706  -3.411  24.124  0.00  0.00    +0.217 C 
ATOM      3  C   UNL     1       8.332  -2.739  22.787  0.00  0.00    +0.340 C 
ATOM      4  O   UNL     1       7.385  -3.599  22.116  0.00  0.00    -0.329 OA
ATOM      5  C   UNL     1       6.844  -4.476  23.111  0.00  0.00    +0.185 C 
ENDROOT
BRANCH   3   6
ATOM      6  N   UNL     1       7.783  -1.413  22.957  0.00  0.00    -0.149 N 
ATOM      7  C   UNL     1       8.357  -0.262  22.499  0.00  0.00    +0.338 C 
ATOM      8  N   UNL     1       9.524  -0.017  22.018  0.00  0.00    -0.004 NA
ATOM      9  C   UNL     1       9.855   1.317  21.912  0.00  0.00    +0.505 C 
ATOM     10  N   UNL     1       9.236   2.310  22.472  0.00  0.00    +0.001 NA
ATOM     11  C   UNL     1       8.084   2.054  23.161  0.00  0.00    +0.374 C 
ATOM     12  N   UNL     1       7.675   2.957  23.982  0.00  0.00    -0.096 NA
ATOM     13  H   UNL     1       8.382   3.699  23.954  0.00  0.00    +0.363 HD
ATOM     14  C   UNL     1       7.334   0.817  22.792  0.00  0.00    +0.344 C 
ATOM     15  N   UNL     1       6.440   0.199  23.842  0.00  0.00    -0.226 NA
ATOM     16  C   UNL     1       6.738  -1.072  23.765  0.00  0.00    +0.304 C 
ENDBRANCH   3   6
BRANCH   1  17
ATOM     17  O   UNL     1       7.509  -5.131  25.363  0.00  0.00    -0.386 OA
ATOM     18  H   UNL     1       6.540  -5.234  25.302  0.00  0.00    +0.210 HD
ENDBRANCH   1  17
BRANCH   2  19
ATOM     19  O   UNL     1      10.120  -3.627  24.231  0.00  0.00    -0.383 OA
ATOM     20  H   UNL     1      10.427  -3.955  23.366  0.00  0.00    +0.210 HD
ENDBRANCH   2  19
BRANCH   5  21
ATOM     21  C   UNL     1       6.284  -5.738  22.483  0.00  0.00    +0.247 C 
ATOM     22  F   UNL     1       7.281  -6.383  21.821  0.00  0.00    -0.246 F 
ENDBRANCH   5  21
TORSDOF 4
ENDMDL
