MODEL 1
REMARK VINA RESULT:      -4.6      0.000      0.000
REMARK  Name = 
REMARK  7 active torsions:
REMARK  status: ('A' for Active; 'I' for Inactive)
REMARK    1  A    between atoms: C_1  and  O_2
REMARK    2  A    between atoms: O_2  and  C_3
REMARK    3  A    between atoms: C_6  and  C_8
REMARK    4  A    between atoms: C_8  and  O_9
REMARK    5  A    between atoms: C_10  and  O_12
REMARK    6  A    between atoms: C_13  and  O_15
REMARK    7  A    between atoms: C_16  and  O_18
REMARK                            x       y       z     vdW  Elec       q    Type
REMARK                         _______ _______ _______ _____ _____    ______ ____
ROOT
ATOM      1  C   UNL     1       6.411  -4.953  23.054  0.00  0.00    +0.281 C 
ATOM      2  C   UNL     1       6.668  -3.548  22.466  0.00  0.00    +0.201 C 
ATOM      3  C   UNL     1       8.144  -3.163  22.541  0.00  0.00    +0.179 C 
ATOM      4  C   UNL     1       8.694  -3.406  23.949  0.00  0.00    +0.177 C 
ATOM      5  C   UNL     1       8.455  -4.869  24.328  0.00  0.00    +0.178 C 
ATOM      6  O   UNL     1       7.049  -5.167  24.322  0.00  0.00    -0.341 OA
ENDROOT
BRANCH   1   8
ATOM      7  C   UNL     1       6.153  -5.771  20.862  0.00  0.00    +0.197 C 
ATOM      8  O   UNL     1       6.813  -5.949  22.111  0.00  0.00    -0.352 OA
ENDBRANCH   1   8
BRANCH   2   9
ATOM      9  O   UNL     1       5.906  -2.557  23.181  0.00  0.00    -0.384 OA
ATOM     10  H   UNL     1       6.580  -2.026  23.654  0.00  0.00    +0.210 HD
ENDBRANCH   2   9
BRANCH   3  11
ATOM     11  O   UNL     1       8.281  -1.767  22.212  0.00  0.00    -0.386 OA
ATOM     12  H   UNL     1       8.210  -1.719  21.236  0.00  0.00    +0.210 HD
ENDBRANCH   3  11
BRANCH   4  13
ATOM     13  O   UNL     1      10.075  -3.022  23.973  0.00  0.00    -0.386 OA
ATOM     14  H   UNL     1      10.559  -3.546  23.308  0.00  0.00    +0.210 HD
ENDBRANCH   4  13
BRANCH   5  15
ATOM     15  C   UNL     1       8.991  -5.173  25.731  0.00  0.00    +0.190 C 
BRANCH  15  16
ATOM     16  O   UNL     1      10.378  -5.502  25.655  0.00  0.00    -0.392 OA
ATOM     17  H   UNL     1      10.836  -4.662  25.473  0.00  0.00    +0.210 HD
ENDBRANCH  15  16
ENDBRANCH   5  15
TORSDOF 6
ENDMDL
MODEL 2
REMARK VINA RESULT:      -4.6      2.254      3.728
REMARK  Name = 
REMARK  7 active torsions:
REMARK  status: ('A' for Active; 'I' for Inactive)
REMARK    1  A    between atoms: C_1  and  O_2
REMARK    2  A    between atoms: O_2  and  C_3
REMARK    3  A    between atoms: C_6  and  C_8
REMARK    4  A    between atoms: C_8  and  O_9
REMARK    5  A    between atoms: C_10  and  O_12
REMARK    6  A    between atoms: C_13  and  O_15
REMARK    7  A    between atoms: C_16  and  O_18
REMARK                            x       y       z     vdW  Elec       q    Type
REMARK                         _______ _______ _______ _____ _____    ______ ____
ROOT
ATOM      1  C   UNL     1       7.538  -4.534  23.919  0.00  0.00    +0.281 C 
ATOM      2  C   UNL     1       8.721  -4.189  24.850  0.00  0.00    +0.201 C 
ATOM      3  C   UNL     1       8.808  -5.148  26.035  0.00  0.00    +0.179 C 
ATOM      4  C   UNL     1       7.445  -5.290  26.716  0.00  0.00    +0.177 C 
ATOM      5  C   UNL     1       6.417  -5.742  25.677  0.00  0.00    +0.178 C 
ATOM      6  O   UNL     1       6.309  -4.773  24.621  0.00  0.00    -0.341 OA
ENDROOT
BRANCH   1   8
ATOM      7  C   UNL     1       7.119  -5.667  21.899  0.00  0.00    +0.197 C 
ATOM      8  O   UNL     1       7.881  -5.656  23.103  0.00  0.00    -0.352 OA
ENDBRANCH   1   8
BRANCH   2   9
ATOM      9  O   UNL     1       8.583  -2.850  25.362  0.00  0.00    -0.384 OA
ATOM     10  H   UNL     1       7.759  -2.875  25.892  0.00  0.00    +0.210 HD
ENDBRANCH   2   9
BRANCH   3  11
ATOM     11  O   UNL     1       9.762  -4.634  26.985  0.00  0.00    -0.386 OA
ATOM     12  H   UNL     1      10.618  -5.045  26.745  0.00  0.00    +0.210 HD
ENDBRANCH   3  11
BRANCH   4  13
ATOM     13  O   UNL     1       7.578  -6.189  27.825  0.00  0.00    -0.386 OA
ATOM     14  H   UNL     1       6.720  -6.247  28.287  0.00  0.00    +0.210 HD
ENDBRANCH   4  13
BRANCH   5  15
ATOM     15  C   UNL     1       5.029  -5.905  26.305  0.00  0.00    +0.190 C 
BRANCH  15  16
ATOM     16  O   UNL     1       4.928  -7.190  26.921  0.00  0.00    -0.392 OA
ATOM     17  H   UNL     1       3.998  -7.272  27.200  0.00  0.00    +0.210 HD
ENDBRANCH  15  16
ENDBRANCH   5  15
TORSDOF 6
ENDMDL
MODEL 3
REMARK VINA RESULT:      -4.5      1.638      4.152
REMARK  Name = 
REMARK  7 active torsions:
REMARK  status: ('A' for Active; 'I' for Inactive)
REMARK    1  A    between atoms: C_1  and  O_2
REMARK    2  A    between atoms: O_2  and  C_3
REMARK    3  A    between atoms: C_6  and  C_8
REMARK    4  A    between atoms: C_8  and  O_9
REMARK    5  A    between atoms: C_10  and  O_12
REMARK    6  A    between atoms: C_13  and  O_15
REMARK    7  A    between atoms: C_16  and  O_18
REMARK                            x       y       z     vdW  Elec       q    Type
REMARK                         _______ _______ _______ _____ _____    ______ ____
ROOT
ATOM      1  C   UNL     1       7.732  -5.215  26.223  0.00  0.00    +0.281 C 
ATOM      2  C   UNL     1       9.085  -4.666  25.716  0.00  0.00    +0.201 C 
ATOM      3  C   UNL     1       8.898  -3.638  24.603  0.00  0.00    +0.179 C 
ATOM      4  C   UNL     1       7.952  -4.174  23.526  0.00  0.00    +0.177 C 
ATOM      5  C   UNL     1       6.627  -4.567  24.182  0.00  0.00    +0.178 C 
ATOM      6  O   UNL     1       6.838  -5.593  25.166  0.00  0.00    -0.341 OA
ENDROOT
BRANCH   1   8
ATOM      7  C   UNL     1       6.103  -4.858  27.883  0.00  0.00    +0.197 C 
ATOM      8  O   UNL     1       7.118  -4.256  27.087  0.00  0.00    -0.352 OA
ENDBRANCH   1   8
BRANCH   2   9
ATOM      9  O   UNL     1       9.903  -5.737  25.209  0.00  0.00    -0.384 OA
ATOM     10  H   UNL     1      10.788  -5.333  25.090  0.00  0.00    +0.210 HD
ENDBRANCH   2   9
BRANCH   3  11
ATOM     11  O   UNL     1      10.180  -3.352  24.010  0.00  0.00    -0.386 OA
ATOM     12  H   UNL     1      10.453  -2.487  24.381  0.00  0.00    +0.210 HD
ENDBRANCH   3  11
BRANCH   4  13
ATOM     13  O   UNL     1       7.816  -3.182  22.500  0.00  0.00    -0.386 OA
ATOM     14  H   UNL     1       7.191  -3.509  21.826  0.00  0.00    +0.210 HD
ENDBRANCH   4  13
BRANCH   5  15
ATOM     15  C   UNL     1       5.635  -5.109  23.147  0.00  0.00    +0.190 C 
BRANCH  15  16
ATOM     16  O   UNL     1       5.003  -4.022  22.471  0.00  0.00    -0.392 OA
ATOM     17  H   UNL     1       4.781  -4.359  21.585  0.00  0.00    +0.210 HD
ENDBRANCH  15  16
ENDBRANCH   5  15
TORSDOF 6
ENDMDL
MODEL 4
REMARK VINA RESULT:      -4.4      1.263      3.823
REMARK  Name = 
REMARK  7 active torsions:
REMARK  status: ('A' for Active; 'I' for Inactive)
REMARK    1  A    between atoms: C_1  and  O_2
REMARK    2  A    between atoms: O_2  and  C_3
REMARK    3  A    between atoms: C_6  and  C_8
REMARK    4  A    between atoms: C_8  and  O_9
REMARK    5  A    between atoms: C_10  and  O_12
REMARK    6  A    between atoms: C_13  and  O_15
REMARK    7  A    between atoms: C_16  and  O_18
REMARK                            x       y       z     vdW  Elec       q    Type
REMARK                         _______ _______ _______ _____ _____    ______ ____
ROOT
ATOM      1  C   UNL     1       8.681  -5.046  24.616  0.00  0.00    +0.281 C 
ATOM      2  C   UNL     1       8.753  -3.505  24.537  0.00  0.00    +0.201 C 
ATOM      3  C   UNL     1       7.541  -2.918  23.816  0.00  0.00    +0.179 C 
ATOM      4  C   UNL     1       7.300  -3.642  22.489  0.00  0.00    +0.177 C 
ATOM      5  C   UNL     1       7.142  -5.139  22.764  0.00  0.00    +0.178 C 
ATOM      6  O   UNL     1       8.334  -5.667  23.369  0.00  0.00    -0.341 OA
ENDROOT
BRANCH   1   8
ATOM      7  C   UNL     1       8.136  -4.867  26.899  0.00  0.00    +0.197 C 
ATOM      8  O   UNL     1       7.767  -5.432  25.645  0.00  0.00    -0.352 OA
ENDBRANCH   1   8
BRANCH   2   9
ATOM      9  O   UNL     1       9.940  -3.093  23.834  0.00  0.00    -0.384 OA
ATOM     10  H   UNL     1      10.319  -3.928  23.486  0.00  0.00    +0.210 HD
ENDBRANCH   2   9
BRANCH   3  11
ATOM     11  O   UNL     1       7.783  -1.521  23.557  0.00  0.00    -0.386 OA
ATOM     12  H   UNL     1       7.089  -1.039  24.053  0.00  0.00    +0.210 HD
ENDBRANCH   3  11
BRANCH   4  13
ATOM     13  O   UNL     1       6.163  -3.051  21.845  0.00  0.00    -0.386 OA
ATOM     14  H   UNL     1       6.167  -3.306  20.903  0.00  0.00    +0.210 HD
ENDBRANCH   4  13
BRANCH   5  15
ATOM     15  C   UNL     1       6.893  -5.917  21.467  0.00  0.00    +0.190 C 
BRANCH  15  16
ATOM     16  O   UNL     1       5.488  -6.051  21.250  0.00  0.00    -0.392 OA
ATOM     17  H   UNL     1       5.374  -6.063  20.282  0.00  0.00    +0.210 HD
ENDBRANCH  15  16
ENDBRANCH   5  15
TORSDOF 6
ENDMDL
MODEL 5
REMARK VINA RESULT:      -4.4      4.079      5.845
REMARK  Name = 
REMARK  7 active torsions:
REMARK  status: ('A' for Active; 'I' for Inactive)
REMARK    1  A    between atoms: C_1  and  O_2
REMARK    2  A    between atoms: O_2  and  C_3
REMARK    3  A    between atoms: C_6  and  C_8
REMARK    4  A    between atoms: C_8  and  O_9
REMARK    5  A    between atoms: C_10  and  O_12
REMARK    6  A    between atoms: C_13  and  O_15
REMARK    7  A    between atoms: C_16  and  O_18
REMARK                            x       y       z     vdW  Elec       q    Type
REMARK                         _______ _______ _______ _____ _____    ______ ____
ROOT
ATOM      1  C   UNL     1       9.004   1.153  24.904  0.00  0.00    +0.281 C 
ATOM      2  C   UNL     1       9.600   2.036  23.786  0.00  0.00    +0.201 C 
ATOM      3  C   UNL     1       9.335   1.453  22.399  0.00  0.00    +0.179 C 
ATOM      4  C   UNL     1       9.720  -0.028  22.354  0.00  0.00    +0.177 C 
ATOM      5  C   UNL     1       8.958  -0.771  23.453  0.00  0.00    +0.178 C 
ATOM      6  O   UNL     1       9.298  -0.244  24.746  0.00  0.00    -0.341 OA
ENDROOT
BRANCH   1   8
ATOM      7  C   UNL     1       7.297   2.706  25.366  0.00  0.00    +0.197 C 
ATOM      8  O   UNL     1       7.593   1.366  24.983  0.00  0.00    -0.352 OA
ENDBRANCH   1   8
BRANCH   2   9
ATOM      9  O   UNL     1      11.024   2.167  23.956  0.00  0.00    -0.384 OA
ATOM     10  H   UNL     1      11.128   2.573  24.842  0.00  0.00    +0.210 HD
ENDBRANCH   2   9
BRANCH   3  11
ATOM     11  O   UNL     1      10.117   2.177  21.430  0.00  0.00    -0.386 OA
ATOM     12  H   UNL     1       9.545   2.255  20.638  0.00  0.00    +0.210 HD
ENDBRANCH   3  11
BRANCH   4  13
ATOM     13  O   UNL     1       9.465  -0.528  21.035  0.00  0.00    -0.386 OA
ATOM     14  H   UNL     1       9.527  -1.502  21.050  0.00  0.00    +0.210 HD
ENDBRANCH   4  13
BRANCH   5  15
ATOM     15  C   UNL     1       9.303  -2.265  23.454  0.00  0.00    +0.190 C 
BRANCH  15  16
ATOM     16  O   UNL     1      10.620  -2.454  22.934  0.00  0.00    -0.392 OA
ATOM     17  H   UNL     1      10.513  -2.516  21.968  0.00  0.00    +0.210 HD
ENDBRANCH  15  16
ENDBRANCH   5  15
TORSDOF 6
ENDMDL
MODEL 6
REMARK VINA RESULT:      -4.3      2.385      3.013
REMARK  Name = 
REMARK  7 active torsions:
REMARK  status: ('A' for Active; 'I' for Inactive)
REMARK    1  A    between atoms: C_1  and  O_2
REMARK    2  A    between atoms: O_2  and  C_3
REMARK    3  A    between atoms: C_6  and  C_8
REMARK    4  A    between atoms: C_8  and  O_9
REMARK    5  A    between atoms: C_10  and  O_12
REMARK    6  A    between atoms: C_13  and  O_15
REMARK    7  A    between atoms: C_16  and  O_18
REMARK                            x       y       z     vdW  Elec       q    Type
REMARK                         _______ _______ _______ _____ _____    ______ ____
ROOT
ATOM      1  C   UNL     1       4.399  -5.916  24.130  0.00  0.00    +0.281 C 
ATOM      2  C   UNL     1       5.034  -5.590  22.760  0.00  0.00    +0.201 C 
ATOM      3  C   UNL     1       6.547  -5.800  22.772  0.00  0.00    +0.179 C 
ATOM      4  C   UNL     1       7.178  -5.106  23.981  0.00  0.00    +0.177 C 
ATOM      5  C   UNL     1       6.509  -5.625  25.256  0.00  0.00    +0.178 C 
ATOM      6  O   UNL     1       5.102  -5.336  25.239  0.00  0.00    -0.341 OA
ENDROOT
BRANCH   1   8
ATOM      7  C   UNL     1       3.180  -7.679  25.103  0.00  0.00    +0.197 C 
ATOM      8  O   UNL     1       4.292  -7.333  24.285  0.00  0.00    -0.352 OA
ENDBRANCH   1   8
BRANCH   2   9
ATOM      9  O   UNL     1       4.771  -4.221  22.398  0.00  0.00    -0.384 OA
ATOM     10  H   UNL     1       5.457  -4.009  21.732  0.00  0.00    +0.210 HD
ENDBRANCH   2   9
BRANCH   3  11
ATOM     11  O   UNL     1       7.105  -5.250  21.563  0.00  0.00    -0.386 OA
ATOM     12  H   UNL     1       6.752  -4.338  21.503  0.00  0.00    +0.210 HD
ENDBRANCH   3  11
BRANCH   4  13
ATOM     13  O   UNL     1       8.595  -5.321  23.944  0.00  0.00    -0.386 OA
ATOM     14  H   UNL     1       9.040  -4.465  23.793  0.00  0.00    +0.210 HD
ENDBRANCH   4  13
BRANCH   5  15
ATOM     15  C   UNL     1       7.107  -4.965  26.503  0.00  0.00    +0.190 C 
BRANCH  15  16
ATOM     16  O   UNL     1       8.196  -5.751  26.988  0.00  0.00    -0.392 OA
ATOM     17  H   UNL     1       7.858  -6.663  27.036  0.00  0.00    +0.210 HD
ENDBRANCH  15  16
ENDBRANCH   5  15
TORSDOF 6
ENDMDL
MODEL 7
REMARK VINA RESULT:      -4.3      4.346      6.430
REMARK  Name = 
REMARK  7 active torsions:
REMARK  status: ('A' for Active; 'I' for Inactive)
REMARK    1  A    between atoms: C_1  and  O_2
REMARK    2  A    between atoms: O_2  and  C_3
REMARK    3  A    between atoms: C_6  and  C_8
REMARK    4  A    between atoms: C_8  and  O_9
REMARK    5  A    between atoms: C_10  and  O_12
REMARK    6  A    between atoms: C_13  and  O_15
REMARK    7  A    between atoms: C_16  and  O_18
REMARK                            x       y       z     vdW  Elec       q    Type
REMARK                         _______ _______ _______ _____ _____    ______ ____
ROOT
ATOM      1  C   UNL     1       8.346   0.176  24.689  0.00  0.00    +0.281 C 
ATOM      2  C   UNL     1       8.545  -0.545  23.337  0.00  0.00    +0.201 C 
ATOM      3  C   UNL     1       9.613   0.136  22.483  0.00  0.00    +0.179 C 
ATOM      4  C   UNL     1       9.358   1.643  22.402  0.00  0.00    +0.177 C 
ATOM      5  C   UNL     1       9.299   2.212  23.822  0.00  0.00    +0.178 C 
ATOM      6  O   UNL     1       8.231   1.601  24.564  0.00  0.00    -0.341 OA
ENDROOT
BRANCH   1   8
ATOM      7  C   UNL     1       8.910  -0.805  26.752  0.00  0.00    +0.197 C 
ATOM      8  O   UNL     1       9.409  -0.170  25.579  0.00  0.00    -0.352 OA
ENDBRANCH   1   8
BRANCH   2   9
ATOM      9  O   UNL     1       7.314  -0.563  22.591  0.00  0.00    -0.384 OA
ATOM     10  H   UNL     1       6.944   0.337  22.708  0.00  0.00    +0.210 HD
ENDBRANCH   2   9
BRANCH   3  11
ATOM     11  O   UNL     1       9.578  -0.423  21.156  0.00  0.00    -0.386 OA
ATOM     12  H   UNL     1       8.832  -1.058  21.159  0.00  0.00    +0.210 HD
ENDBRANCH   3  11
BRANCH   4  13
ATOM     13  O   UNL     1      10.376   2.237  21.585  0.00  0.00    -0.386 OA
ATOM     14  H   UNL     1      10.796   1.538  21.049  0.00  0.00    +0.210 HD
ENDBRANCH   4  13
BRANCH   5  15
ATOM     15  C   UNL     1       9.049   3.724  23.803  0.00  0.00    +0.190 C 
BRANCH  15  16
ATOM     16  O   UNL     1       8.413   4.091  22.577  0.00  0.00    -0.392 OA
ATOM     17  H   UNL     1       7.874   4.874  22.787  0.00  0.00    +0.210 HD
ENDBRANCH  15  16
ENDBRANCH   5  15
TORSDOF 6
ENDMDL
MODEL 8
REMARK VINA RESULT:      -4.3      2.113      4.626
REMARK  Name = 
REMARK  7 active torsions:
REMARK  status: ('A' for Active; 'I' for Inactive)
REMARK    1  A    between atoms: C_1  and  O_2
REMARK    2  A    between atoms: O_2  and  C_3
REMARK    3  A    between atoms: C_6  and  C_8
REMARK    4  A    between atoms: C_8  and  O_9
REMARK    5  A    between atoms: C_10  and  O_12
REMARK    6  A    between atoms: C_13  and  O_15
REMARK    7  A    between atoms: C_16  and  O_18
REMARK                            x       y       z     vdW  Elec       q    Type
REMARK                         _______ _______ _______ _____ _____    ______ ____
ROOT
ATOM      1  C   UNL     1       7.519  -3.058  26.309  0.00  0.00    +0.281 C 
ATOM      2  C   UNL     1       8.668  -4.084  26.192  0.00  0.00    +0.201 C 
ATOM      3  C   UNL     1       8.815  -4.611  24.766  0.00  0.00    +0.179 C 
ATOM      4  C   UNL     1       7.460  -5.066  24.218  0.00  0.00    +0.177 C 
ATOM      5  C   UNL     1       6.474  -3.899  24.307  0.00  0.00    +0.178 C 
ATOM      6  O   UNL     1       6.305  -3.487  25.673  0.00  0.00    -0.341 OA
ENDROOT
BRANCH   1   8
ATOM      7  C   UNL     1       8.672  -1.058  26.764  0.00  0.00    +0.197 C 
ATOM      8  O   UNL     1       7.944  -1.798  25.788  0.00  0.00    -0.352 OA
ENDBRANCH   1   8
BRANCH   2   9
ATOM      9  O   UNL     1       8.434  -5.203  27.067  0.00  0.00    -0.384 OA
ATOM     10  H   UNL     1       9.282  -5.323  27.543  0.00  0.00    +0.210 HD
ENDBRANCH   2   9
BRANCH   3  11
ATOM     11  O   UNL     1       9.724  -5.729  24.772  0.00  0.00    -0.386 OA
ATOM     12  H   UNL     1      10.376  -5.540  24.066  0.00  0.00    +0.210 HD
ENDBRANCH   3  11
BRANCH   4  13
ATOM     13  O   UNL     1       7.648  -5.561  22.886  0.00  0.00    -0.386 OA
ATOM     14  H   UNL     1       6.968  -6.237  22.702  0.00  0.00    +0.210 HD
ENDBRANCH   4  13
BRANCH   5  15
ATOM     15  C   UNL     1       5.096  -4.296  23.766  0.00  0.00    +0.190 C 
BRANCH  15  16
ATOM     16  O   UNL     1       5.061  -4.101  22.352  0.00  0.00    -0.392 OA
ATOM     17  H   UNL     1       4.475  -4.799  22.006  0.00  0.00    +0.210 HD
ENDBRANCH  15  16
ENDBRANCH   5  15
TORSDOF 6
ENDMDL
MODEL 9
REMARK VINA RESULT:      -4.3      3.052      5.229
REMARK  Name = 
REMARK  7 active torsions:
REMARK  status: ('A' for Active; 'I' for Inactive)
REMARK    1  A    between atoms: C_1  and  O_2
REMARK    2  A    between atoms: O_2  and  C_3
REMARK    3  A    between atoms: C_6  and  C_8
REMARK    4  A    between atoms: C_8  and  O_9
REMARK    5  A    between atoms: C_10  and  O_12
REMARK    6  A    between atoms: C_13  and  O_15
REMARK    7  A    between atoms: C_16  and  O_18
REMARK                            x       y       z     vdW  Elec       q    Type
REMARK                         _______ _______ _______ _____ _____    ______ ____
ROOT
ATOM      1  C   UNL     1       7.736  -0.413  24.731  0.00  0.00    +0.281 C 
ATOM      2  C   UNL     1       7.307  -1.692  23.979  0.00  0.00    +0.201 C 
ATOM      3  C   UNL     1       8.402  -2.190  23.037  0.00  0.00    +0.179 C 
ATOM      4  C   UNL     1       8.921  -1.046  22.162  0.00  0.00    +0.177 C 
ATOM      5  C   UNL     1       9.406   0.088  23.068  0.00  0.00    +0.178 C 
ATOM      6  O   UNL     1       8.326   0.580  23.879  0.00  0.00    -0.341 OA
ENDROOT
BRANCH   1   8
ATOM      7  C   UNL     1       8.046  -0.459  27.064  0.00  0.00    +0.197 C 
ATOM      8  O   UNL     1       8.623  -0.757  25.797  0.00  0.00    -0.352 OA
ENDBRANCH   1   8
BRANCH   2   9
ATOM      9  O   UNL     1       6.121  -1.444  23.202  0.00  0.00    -0.384 OA
ATOM     10  H   UNL     1       6.276  -0.567  22.793  0.00  0.00    +0.210 HD
ENDBRANCH   2   9
BRANCH   3  11
ATOM     11  O   UNL     1       7.859  -3.224  22.193  0.00  0.00    -0.386 OA
ATOM     12  H   UNL     1       6.910  -3.283  22.429  0.00  0.00    +0.210 HD
ENDBRANCH   3  11
BRANCH   4  13
ATOM     13  O   UNL     1       9.936  -1.562  21.290  0.00  0.00    -0.386 OA
ATOM     14  H   UNL     1       9.850  -2.533  21.247  0.00  0.00    +0.210 HD
ENDBRANCH   4  13
BRANCH   5  15
ATOM     15  C   UNL     1       9.943   1.264  22.244  0.00  0.00    +0.190 C 
BRANCH  15  16
ATOM     16  O   UNL     1       9.142   1.435  21.073  0.00  0.00    -0.392 OA
ATOM     17  H   UNL     1       9.190   2.385  20.862  0.00  0.00    +0.210 HD
ENDBRANCH  15  16
ENDBRANCH   5  15
TORSDOF 6
ENDMDL
