MODEL 1
REMARK VINA RESULT:      -6.6      0.000      0.000
REMARK  Name = 
REMARK  11 active torsions:
REMARK  status: ('A' for Active; 'I' for Inactive)
REMARK    1  A    between atoms: C_2  and  C_3
REMARK    2  A    between atoms: C_2  and  N_10
REMARK    3  A    between atoms: C_2  and  C_30
REMARK    4  A    between atoms: C_3  and  C_4
REMARK    5  A    between atoms: C_11  and  C_13
REMARK    6  A    between atoms: N_19  and  S_20
REMARK    7  A    between atoms: S_20  and  C_23
REMARK    8  A    between atoms: C_26  and  C_27
REMARK    9  A    between atoms: C_30  and  O_32
REMARK   10  A    between atoms: O_32  and  C_33
REMARK   11  A    between atoms: C_33  and  C_34
REMARK                            x       y       z     vdW  Elec       q    Type
REMARK                         _______ _______ _______ _____ _____    ______ ____
ROOT
ATOM      1  N   UNL     1       6.190   1.308  22.971  0.00  0.00    -0.301 N 
ATOM      2  H   UNL     1       5.770   0.957  22.105  0.00  0.00    +0.150 HD
ATOM      3  C   UNL     1       6.399   0.424  23.994  0.00  0.00    +0.233 C 
ATOM      4  O   UNL     1       6.639   0.847  25.132  0.00  0.00    -0.274 OA
ENDROOT
BRANCH   3   5
ATOM      5  C   UNL     1       6.409  -1.082  23.746  0.00  0.00    +0.175 C 
ATOM      6  N   UNL     1       7.363  -1.762  22.780  0.00  0.00    -0.163 NA
ATOM      7  C   UNL     1       6.706  -3.015  22.259  0.00  0.00    +0.121 C 
ATOM      8  C   UNL     1       6.447  -4.075  23.333  0.00  0.00    +0.086 C 
ATOM      9  S   UNL     1       5.461  -3.496  24.761  0.00  0.00    -0.157 S 
ATOM     10  C   UNL     1       6.247  -1.858  25.056  0.00  0.00    +0.099 C 
BRANCH   6  11
ATOM     11  S   UNL     1       9.005  -1.927  23.232  0.00  0.00    +0.062 S 
ATOM     12  O   UNL     1       9.695  -2.667  22.200  0.00  0.00    -0.153 OA
ATOM     13  O   UNL     1       9.026  -2.381  24.603  0.00  0.00    -0.153 OA
BRANCH  11  14
ATOM     14  C   UNL     1       9.644  -0.259  23.216  0.00  0.00    +0.106 A 
ATOM     15  C   UNL     1       9.596   0.518  22.049  0.00  0.00    +0.029 A 
ATOM     16  C   UNL     1      10.098   1.830  22.066  0.00  0.00    +0.005 A 
ATOM     17  C   UNL     1      10.635   2.368  23.241  0.00  0.00    -0.050 A 
ATOM     18  C   UNL     1      11.182   3.771  23.255  0.00  0.00    +0.044 C 
ATOM     19  C   UNL     1      10.685   1.576  24.394  0.00  0.00    +0.005 A 
ATOM     20  C   UNL     1      10.196   0.266  24.387  0.00  0.00    +0.029 A 
ENDBRANCH  11  14
ENDBRANCH   6  11
ENDBRANCH   3   5
BRANCH   1  21
ATOM     21  C   UNL     1       5.930   2.731  23.279  0.00  0.00    +0.186 C 
BRANCH  21  22
ATOM     22  C   UNL     1       4.441   3.109  23.286  0.00  0.00    +0.328 C 
ATOM     23  O   UNL     1       3.594   2.604  24.007  0.00  0.00    -0.249 OA
BRANCH  22  24
ATOM     24  O   UNL     1       4.173   3.912  22.216  0.00  0.00    -0.464 OA
BRANCH  24  25
ATOM     25  C   UNL     1       3.265   4.993  22.461  0.00  0.00    +0.229 C 
ATOM     26  C   UNL     1       4.087   6.267  22.578  0.00  0.00    +0.048 C 
ENDBRANCH  24  25
ENDBRANCH  22  24
ENDBRANCH  21  22
BRANCH  21  27
ATOM     27  C   UNL     1       6.795   3.768  22.536  0.00  0.00    +0.069 C 
BRANCH  27  28
ATOM     28  C   UNL     1       7.634   4.696  23.381  0.00  0.00    -0.045 A 
ATOM     29  C   UNL     1       7.862   4.389  24.732  0.00  0.00    +0.004 A 
ATOM     30  C   UNL     1       8.620   5.239  25.538  0.00  0.00    +0.000 A 
ATOM     31  C   UNL     1       9.156   6.407  25.003  0.00  0.00    +0.000 A 
ATOM     32  C   UNL     1       8.914   6.737  23.671  0.00  0.00    +0.000 A 
ATOM     33  C   UNL     1       8.150   5.890  22.863  0.00  0.00    +0.004 A 
ENDBRANCH  27  28
ENDBRANCH  21  27
ENDBRANCH   1  21
TORSDOF 9
ENDMDL
MODEL 2
REMARK VINA RESULT:      -6.4      2.215      6.139
REMARK  Name = 
REMARK  11 active torsions:
REMARK  status: ('A' for Active; 'I' for Inactive)
REMARK    1  A    between atoms: C_2  and  C_3
REMARK    2  A    between atoms: C_2  and  N_10
REMARK    3  A    between atoms: C_2  and  C_30
REMARK    4  A    between atoms: C_3  and  C_4
REMARK    5  A    between atoms: C_11  and  C_13
REMARK    6  A    between atoms: N_19  and  S_20
REMARK    7  A    between atoms: S_20  and  C_23
REMARK    8  A    between atoms: C_26  and  C_27
REMARK    9  A    between atoms: C_30  and  O_32
REMARK   10  A    between atoms: O_32  and  C_33
REMARK   11  A    between atoms: C_33  and  C_34
REMARK                            x       y       z     vdW  Elec       q    Type
REMARK                         _______ _______ _______ _____ _____    ______ ____
ROOT
ATOM      1  N   UNL     1       7.400  -2.163  24.468  0.00  0.00    -0.301 N 
ATOM      2  H   UNL     1       6.793  -1.640  23.830  0.00  0.00    +0.150 HD
ATOM      3  C   UNL     1       7.523  -1.716  25.756  0.00  0.00    +0.233 C 
ATOM      4  O   UNL     1       8.441  -2.142  26.468  0.00  0.00    -0.274 OA
ENDROOT
BRANCH   3   5
ATOM      5  C   UNL     1       6.508  -0.747  26.356  0.00  0.00    +0.175 C 
ATOM      6  N   UNL     1       6.524   0.748  26.090  0.00  0.00    -0.163 NA
ATOM      7  C   UNL     1       5.920   1.453  27.278  0.00  0.00    +0.121 C 
ATOM      8  C   UNL     1       4.440   1.132  27.505  0.00  0.00    +0.086 C 
ATOM      9  S   UNL     1       4.058  -0.649  27.676  0.00  0.00    -0.157 S 
ATOM     10  C   UNL     1       5.095  -1.336  26.319  0.00  0.00    +0.099 C 
BRANCH   6  11
ATOM     11  S   UNL     1       6.008   1.312  24.560  0.00  0.00    +0.062 S 
ATOM     12  O   UNL     1       4.626   1.723  24.662  0.00  0.00    -0.153 OA
ATOM     13  O   UNL     1       6.411   0.326  23.584  0.00  0.00    -0.153 OA
BRANCH  11  14
ATOM     14  C   UNL     1       6.986   2.778  24.267  0.00  0.00    +0.106 A 
ATOM     15  C   UNL     1       7.879   3.252  25.239  0.00  0.00    +0.029 A 
ATOM     16  C   UNL     1       8.642   4.402  24.981  0.00  0.00    +0.005 A 
ATOM     17  C   UNL     1       8.526   5.070  23.757  0.00  0.00    -0.050 A 
ATOM     18  C   UNL     1       9.338   6.309  23.485  0.00  0.00    +0.044 C 
ATOM     19  C   UNL     1       7.622   4.590  22.801  0.00  0.00    +0.005 A 
ATOM     20  C   UNL     1       6.851   3.451  23.051  0.00  0.00    +0.029 A 
ENDBRANCH  11  14
ENDBRANCH   6  11
ENDBRANCH   3   5
BRANCH   1  21
ATOM     21  C   UNL     1       8.524  -2.887  23.837  0.00  0.00    +0.186 C 
BRANCH  21  22
ATOM     22  C   UNL     1       8.612  -4.371  24.227  0.00  0.00    +0.328 C 
ATOM     23  O   UNL     1       9.608  -4.920  24.672  0.00  0.00    -0.249 OA
BRANCH  22  24
ATOM     24  O   UNL     1       7.497  -5.021  23.783  0.00  0.00    -0.464 OA
BRANCH  24  25
ATOM     25  C   UNL     1       7.242  -4.929  22.377  0.00  0.00    +0.229 C 
ATOM     26  C   UNL     1       6.725  -6.282  21.913  0.00  0.00    +0.048 C 
ENDBRANCH  24  25
ENDBRANCH  22  24
ENDBRANCH  21  22
BRANCH  21  27
ATOM     27  C   UNL     1       9.899  -2.191  23.867  0.00  0.00    +0.069 C 
BRANCH  27  28
ATOM     28  C   UNL     1       9.972  -0.787  23.317  0.00  0.00    -0.045 A 
ATOM     29  C   UNL     1      10.496   0.244  24.113  0.00  0.00    +0.004 A 
ATOM     30  C   UNL     1      10.559   1.553  23.633  0.00  0.00    +0.000 A 
ATOM     31  C   UNL     1      10.096   1.845  22.352  0.00  0.00    +0.000 A 
ATOM     32  C   UNL     1       9.549   0.835  21.563  0.00  0.00    +0.000 A 
ATOM     33  C   UNL     1       9.479  -0.475  22.044  0.00  0.00    +0.004 A 
ENDBRANCH  27  28
ENDBRANCH  21  27
ENDBRANCH   1  21
TORSDOF 9
ENDMDL
MODEL 3
REMARK VINA RESULT:      -6.0      1.680      2.484
REMARK  Name = 
REMARK  11 active torsions:
REMARK  status: ('A' for Active; 'I' for Inactive)
REMARK    1  A    between atoms: C_2  and  C_3
REMARK    2  A    between atoms: C_2  and  N_10
REMARK    3  A    between atoms: C_2  and  C_30
REMARK    4  A    between atoms: C_3  and  C_4
REMARK    5  A    between atoms: C_11  and  C_13
REMARK    6  A    between atoms: N_19  and  S_20
REMARK    7  A    between atoms: S_20  and  C_23
REMARK    8  A    between atoms: C_26  and  C_27
REMARK    9  A    between atoms: C_30  and  O_32
REMARK   10  A    between atoms: O_32  and  C_33
REMARK   11  A    between atoms: C_33  and  C_34
REMARK                            x       y       z     vdW  Elec       q    Type
REMARK                         _______ _______ _______ _____ _____    ______ ____
ROOT
ATOM      1  N   UNL     1       6.589   0.449  25.101  0.00  0.00    -0.301 N 
ATOM      2  H   UNL     1       5.959   0.468  24.294  0.00  0.00    +0.150 HD
ATOM      3  C   UNL     1       7.089  -0.760  25.502  0.00  0.00    +0.233 C 
ATOM      4  O   UNL     1       7.619  -0.867  26.615  0.00  0.00    -0.274 OA
ENDROOT
BRANCH   3   5
ATOM      5  C   UNL     1       7.068  -1.971  24.572  0.00  0.00    +0.175 C 
ATOM      6  N   UNL     1       7.626  -1.947  23.159  0.00  0.00    -0.163 NA
ATOM      7  C   UNL     1       6.874  -2.958  22.331  0.00  0.00    +0.121 C 
ATOM      8  C   UNL     1       7.073  -4.407  22.785  0.00  0.00    +0.086 C 
ATOM      9  S   UNL     1       6.660  -4.725  24.539  0.00  0.00    -0.157 S 
ATOM     10  C   UNL     1       7.433  -3.252  25.327  0.00  0.00    +0.099 C 
BRANCH   6  11
ATOM     11  S   UNL     1       9.324  -1.942  22.951  0.00  0.00    +0.062 S 
ATOM     12  O   UNL     1       9.623  -2.354  21.598  0.00  0.00    -0.153 OA
ATOM     13  O   UNL     1       9.894  -2.645  24.077  0.00  0.00    -0.153 OA
BRANCH  11  14
ATOM     14  C   UNL     1       9.790  -0.224  23.105  0.00  0.00    +0.106 A 
ATOM     15  C   UNL     1      10.194   0.302  24.341  0.00  0.00    +0.029 A 
ATOM     16  C   UNL     1      10.564   1.653  24.434  0.00  0.00    +0.005 A 
ATOM     17  C   UNL     1      10.543   2.474  23.300  0.00  0.00    -0.050 A 
ATOM     18  C   UNL     1      10.930   3.925  23.403  0.00  0.00    +0.044 C 
ATOM     19  C   UNL     1      10.127   1.935  22.076  0.00  0.00    +0.005 A 
ATOM     20  C   UNL     1       9.749   0.593  21.974  0.00  0.00    +0.029 A 
ENDBRANCH  11  14
ENDBRANCH   6  11
ENDBRANCH   3   5
BRANCH   1  21
ATOM     21  C   UNL     1       6.388   1.521  26.099  0.00  0.00    +0.186 C 
BRANCH  21  22
ATOM     22  C   UNL     1       4.918   1.920  26.303  0.00  0.00    +0.328 C 
ATOM     23  O   UNL     1       3.980   1.498  25.644  0.00  0.00    -0.249 OA
BRANCH  22  24
ATOM     24  O   UNL     1       4.852   2.980  27.160  0.00  0.00    -0.464 OA
BRANCH  24  25
ATOM     25  C   UNL     1       3.742   3.865  26.972  0.00  0.00    +0.229 C 
ATOM     26  C   UNL     1       4.204   4.999  26.071  0.00  0.00    +0.048 C 
ENDBRANCH  24  25
ENDBRANCH  22  24
ENDBRANCH  21  22
BRANCH  21  27
ATOM     27  C   UNL     1       7.319   2.745  25.995  0.00  0.00    +0.069 C 
BRANCH  27  28
ATOM     28  C   UNL     1       7.299   3.518  24.699  0.00  0.00    -0.045 A 
ATOM     29  C   UNL     1       7.654   4.877  24.695  0.00  0.00    +0.004 A 
ATOM     30  C   UNL     1       7.627   5.616  23.513  0.00  0.00    +0.000 A 
ATOM     31  C   UNL     1       7.243   5.006  22.321  0.00  0.00    +0.000 A 
ATOM     32  C   UNL     1       6.862   3.666  22.317  0.00  0.00    +0.000 A 
ATOM     33  C   UNL     1       6.882   2.924  23.502  0.00  0.00    +0.004 A 
ENDBRANCH  27  28
ENDBRANCH  21  27
ENDBRANCH   1  21
TORSDOF 9
ENDMDL
MODEL 4
REMARK VINA RESULT:      -5.9      2.962      6.829
REMARK  Name = 
REMARK  11 active torsions:
REMARK  status: ('A' for Active; 'I' for Inactive)
REMARK    1  A    between atoms: C_2  and  C_3
REMARK    2  A    between atoms: C_2  and  N_10
REMARK    3  A    between atoms: C_2  and  C_30
REMARK    4  A    between atoms: C_3  and  C_4
REMARK    5  A    between atoms: C_11  and  C_13
REMARK    6  A    between atoms: N_19  and  S_20
REMARK    7  A    between atoms: S_20  and  C_23
REMARK    8  A    between atoms: C_26  and  C_27
REMARK    9  A    between atoms: C_30  and  O_32
REMARK   10  A    between atoms: O_32  and  C_33
REMARK   11  A    between atoms: C_33  and  C_34
REMARK                            x       y       z     vdW  Elec       q    Type
REMARK                         _______ _______ _______ _____ _____    ______ ____
ROOT
ATOM      1  N   UNL     1       6.999   1.041  25.140  0.00  0.00    -0.301 N 
ATOM      2  H   UNL     1       7.706   1.250  25.850  0.00  0.00    +0.150 HD
ATOM      3  C   UNL     1       6.162   2.049  24.744  0.00  0.00    +0.233 C 
ATOM      4  O   UNL     1       5.135   1.780  24.108  0.00  0.00    -0.274 OA
ENDROOT
BRANCH   3   5
ATOM      5  C   UNL     1       6.505   3.512  25.014  0.00  0.00    +0.175 C 
ATOM      6  N   UNL     1       7.930   4.031  25.105  0.00  0.00    -0.163 NA
ATOM      7  C   UNL     1       7.943   5.234  26.014  0.00  0.00    +0.121 C 
ATOM      8  C   UNL     1       7.147   6.427  25.480  0.00  0.00    +0.086 C 
ATOM      9  S   UNL     1       5.398   6.066  25.081  0.00  0.00    -0.157 S 
ATOM     10  C   UNL     1       5.587   4.448  24.223  0.00  0.00    +0.099 C 
BRANCH   6  11
ATOM     11  S   UNL     1       8.837   4.188  23.664  0.00  0.00    +0.062 S 
ATOM     12  O   UNL     1      10.038   4.938  23.955  0.00  0.00    -0.153 OA
ATOM     13  O   UNL     1       7.926   4.629  22.633  0.00  0.00    -0.153 OA
BRANCH  11  14
ATOM     14  C   UNL     1       9.329   2.519  23.259  0.00  0.00    +0.106 A 
ATOM     15  C   UNL     1      10.204   1.806  24.091  0.00  0.00    +0.029 A 
ATOM     16  C   UNL     1      10.568   0.492  23.754  0.00  0.00    +0.005 A 
ATOM     17  C   UNL     1      10.055  -0.112  22.600  0.00  0.00    -0.050 A 
ATOM     18  C   UNL     1      10.454  -1.517  22.235  0.00  0.00    +0.044 C 
ATOM     19  C   UNL     1       9.191   0.618  21.775  0.00  0.00    +0.005 A 
ATOM     20  C   UNL     1       8.828   1.929  22.096  0.00  0.00    +0.029 A 
ENDBRANCH  11  14
ENDBRANCH   6  11
ENDBRANCH   3   5
BRANCH   1  21
ATOM     21  C   UNL     1       6.525  -0.359  25.097  0.00  0.00    +0.186 C 
BRANCH  21  22
ATOM     22  C   UNL     1       5.490  -0.703  26.180  0.00  0.00    +0.328 C 
ATOM     23  O   UNL     1       5.671  -0.589  27.382  0.00  0.00    -0.249 OA
BRANCH  22  24
ATOM     24  O   UNL     1       4.444  -1.369  25.610  0.00  0.00    -0.464 OA
BRANCH  24  25
ATOM     25  C   UNL     1       4.240  -2.712  26.064  0.00  0.00    +0.229 C 
ATOM     26  C   UNL     1       3.833  -3.547  24.860  0.00  0.00    +0.048 C 
ENDBRANCH  24  25
ENDBRANCH  22  24
ENDBRANCH  21  22
BRANCH  21  27
ATOM     27  C   UNL     1       7.603  -1.450  24.948  0.00  0.00    +0.069 C 
BRANCH  27  28
ATOM     28  C   UNL     1       7.327  -2.560  23.963  0.00  0.00    -0.045 A 
ATOM     29  C   UNL     1       7.797  -3.856  24.228  0.00  0.00    +0.004 A 
ATOM     30  C   UNL     1       7.568  -4.896  23.326  0.00  0.00    +0.000 A 
ATOM     31  C   UNL     1       6.869  -4.650  22.147  0.00  0.00    +0.000 A 
ATOM     32  C   UNL     1       6.421  -3.362  21.860  0.00  0.00    +0.000 A 
ATOM     33  C   UNL     1       6.654  -2.318  22.760  0.00  0.00    +0.004 A 
ENDBRANCH  27  28
ENDBRANCH  21  27
ENDBRANCH   1  21
TORSDOF 9
ENDMDL
MODEL 5
REMARK VINA RESULT:      -5.9      2.866      4.353
REMARK  Name = 
REMARK  11 active torsions:
REMARK  status: ('A' for Active; 'I' for Inactive)
REMARK    1  A    between atoms: C_2  and  C_3
REMARK    2  A    between atoms: C_2  and  N_10
REMARK    3  A    between atoms: C_2  and  C_30
REMARK    4  A    between atoms: C_3  and  C_4
REMARK    5  A    between atoms: C_11  and  C_13
REMARK    6  A    between atoms: N_19  and  S_20
REMARK    7  A    between atoms: S_20  and  C_23
REMARK    8  A    between atoms: C_26  and  C_27
REMARK    9  A    between atoms: C_30  and  O_32
REMARK   10  A    between atoms: O_32  and  C_33
REMARK   11  A    between atoms: C_33  and  C_34
REMARK                            x       y       z     vdW  Elec       q    Type
REMARK                         _______ _______ _______ _____ _____    ______ ____
ROOT
ATOM      1  N   UNL     1       5.941  -1.412  26.474  0.00  0.00    -0.301 N 
ATOM      2  H   UNL     1       6.858  -1.803  26.709  0.00  0.00    +0.150 HD
ATOM      3  C   UNL     1       4.934  -2.278  26.143  0.00  0.00    +0.233 C 
ATOM      4  O   UNL     1       3.912  -1.849  25.593  0.00  0.00    -0.274 OA
ENDROOT
BRANCH   3   5
ATOM      5  C   UNL     1       5.017  -3.759  26.500  0.00  0.00    +0.175 C 
ATOM      6  N   UNL     1       5.877  -4.753  25.738  0.00  0.00    -0.163 NA
ATOM      7  C   UNL     1       5.246  -6.118  25.850  0.00  0.00    +0.121 C 
ATOM      8  C   UNL     1       5.213  -6.673  27.277  0.00  0.00    +0.086 C 
ATOM      9  S   UNL     1       4.391  -5.590  28.502  0.00  0.00    -0.157 S 
ATOM     10  C   UNL     1       5.092  -3.959  28.016  0.00  0.00    +0.099 C 
BRANCH   6  11
ATOM     11  S   UNL     1       7.573  -4.707  25.961  0.00  0.00    +0.062 S 
ATOM     12  O   UNL     1       8.105  -6.029  25.724  0.00  0.00    -0.153 OA
ATOM     13  O   UNL     1       7.820  -4.027  27.211  0.00  0.00    -0.153 OA
BRANCH  11  14
ATOM     14  C   UNL     1       8.169  -3.645  24.653  0.00  0.00    +0.106 A 
ATOM     15  C   UNL     1       9.430  -3.038  24.740  0.00  0.00    +0.029 A 
ATOM     16  C   UNL     1       9.878  -2.214  23.694  0.00  0.00    +0.005 A 
ATOM     17  C   UNL     1       9.080  -2.007  22.563  0.00  0.00    -0.050 A 
ATOM     18  C   UNL     1       9.558  -1.116  21.447  0.00  0.00    +0.044 C 
ATOM     19  C   UNL     1       7.820  -2.613  22.497  0.00  0.00    +0.005 A 
ATOM     20  C   UNL     1       7.360  -3.428  23.535  0.00  0.00    +0.029 A 
ENDBRANCH  11  14
ENDBRANCH   6  11
ENDBRANCH   3   5
BRANCH   1  21
ATOM     21  C   UNL     1       5.952  -0.052  25.896  0.00  0.00    +0.186 C 
BRANCH  21  22
ATOM     22  C   UNL     1       4.837   0.864  26.426  0.00  0.00    +0.328 C 
ATOM     23  O   UNL     1       4.486   0.935  27.593  0.00  0.00    -0.249 OA
BRANCH  22  24
ATOM     24  O   UNL     1       4.153   1.399  25.373  0.00  0.00    -0.464 OA
BRANCH  24  25
ATOM     25  C   UNL     1       4.100   2.829  25.328  0.00  0.00    +0.229 C 
ATOM     26  C   UNL     1       4.100   3.243  23.865  0.00  0.00    +0.048 C 
ENDBRANCH  24  25
ENDBRANCH  22  24
ENDBRANCH  21  22
BRANCH  21  27
ATOM     27  C   UNL     1       6.116   0.049  24.366  0.00  0.00    +0.069 C 
BRANCH  27  28
ATOM     28  C   UNL     1       7.260   0.887  23.850  0.00  0.00    -0.045 A 
ATOM     29  C   UNL     1       7.176   1.465  22.573  0.00  0.00    +0.004 A 
ATOM     30  C   UNL     1       8.226   2.231  22.067  0.00  0.00    +0.000 A 
ATOM     31  C   UNL     1       9.374   2.425  22.832  0.00  0.00    +0.000 A 
ATOM     32  C   UNL     1       9.480   1.834  24.089  0.00  0.00    +0.000 A 
ATOM     33  C   UNL     1       8.431   1.061  24.595  0.00  0.00    +0.004 A 
ENDBRANCH  27  28
ENDBRANCH  21  27
ENDBRANCH   1  21
TORSDOF 9
ENDMDL
MODEL 6
REMARK VINA RESULT:      -5.8      2.594      3.774
REMARK  Name = 
REMARK  11 active torsions:
REMARK  status: ('A' for Active; 'I' for Inactive)
REMARK    1  A    between atoms: C_2  and  C_3
REMARK    2  A    between atoms: C_2  and  N_10
REMARK    3  A    between atoms: C_2  and  C_30
REMARK    4  A    between atoms: C_3  and  C_4
REMARK    5  A    between atoms: C_11  and  C_13
REMARK    6  A    between atoms: N_19  and  S_20
REMARK    7  A    between atoms: S_20  and  C_23
REMARK    8  A    between atoms: C_26  and  C_27
REMARK    9  A    between atoms: C_30  and  O_32
REMARK   10  A    between atoms: O_32  and  C_33
REMARK   11  A    between atoms: C_33  and  C_34
REMARK                            x       y       z     vdW  Elec       q    Type
REMARK                         _______ _______ _______ _____ _____    ______ ____
ROOT
ATOM      1  N   UNL     1       5.453  -1.017  25.271  0.00  0.00    -0.301 N 
ATOM      2  H   UNL     1       4.579  -1.352  24.855  0.00  0.00    +0.150 HD
ATOM      3  C   UNL     1       6.166  -1.878  26.059  0.00  0.00    +0.233 C 
ATOM      4  O   UNL     1       7.061  -1.440  26.793  0.00  0.00    -0.274 OA
ENDROOT
BRANCH   3   5
ATOM      5  C   UNL     1       5.924  -3.384  26.004  0.00  0.00    +0.175 C 
ATOM      6  N   UNL     1       6.184  -4.225  24.766  0.00  0.00    -0.163 NA
ATOM      7  C   UNL     1       5.253  -5.411  24.789  0.00  0.00    +0.121 C 
ATOM      8  C   UNL     1       5.501  -6.375  25.952  0.00  0.00    +0.086 C 
ATOM      9  S   UNL     1       5.444  -5.607  27.612  0.00  0.00    -0.157 S 
ATOM     10  C   UNL     1       6.400  -4.067  27.289  0.00  0.00    +0.099 C 
BRANCH   6  11
ATOM     11  S   UNL     1       7.804  -4.570  24.338  0.00  0.00    +0.062 S 
ATOM     12  O   UNL     1       7.803  -5.611  23.335  0.00  0.00    -0.153 OA
ATOM     13  O   UNL     1       8.545  -4.733  25.567  0.00  0.00    -0.153 OA
BRANCH  11  14
ATOM     14  C   UNL     1       8.391  -3.074  23.558  0.00  0.00    +0.106 A 
ATOM     15  C   UNL     1       7.568  -2.347  22.685  0.00  0.00    +0.029 A 
ATOM     16  C   UNL     1       8.050  -1.169  22.093  0.00  0.00    +0.005 A 
ATOM     17  C   UNL     1       9.342  -0.710  22.377  0.00  0.00    -0.050 A 
ATOM     18  C   UNL     1       9.862   0.548  21.733  0.00  0.00    +0.044 C 
ATOM     19  C   UNL     1      10.154  -1.452  23.243  0.00  0.00    +0.005 A 
ATOM     20  C   UNL     1       9.687  -2.631  23.832  0.00  0.00    +0.029 A 
ENDBRANCH  11  14
ENDBRANCH   6  11
ENDBRANCH   3   5
BRANCH   1  21
ATOM     21  C   UNL     1       5.524   0.437  25.529  0.00  0.00    +0.186 C 
BRANCH  21  22
ATOM     22  C   UNL     1       4.472   0.949  26.527  0.00  0.00    +0.328 C 
ATOM     23  O   UNL     1       3.316   0.560  26.586  0.00  0.00    -0.249 OA
BRANCH  22  24
ATOM     24  O   UNL     1       4.956   2.054  27.165  0.00  0.00    -0.464 OA
BRANCH  24  25
ATOM     25  C   UNL     1       6.091   1.838  28.010  0.00  0.00    +0.229 C 
ATOM     26  C   UNL     1       6.904   3.123  28.027  0.00  0.00    +0.048 C 
ENDBRANCH  24  25
ENDBRANCH  22  24
ENDBRANCH  21  22
BRANCH  21  27
ATOM     27  C   UNL     1       5.658   1.353  24.296  0.00  0.00    +0.069 C 
BRANCH  27  28
ATOM     28  C   UNL     1       6.960   2.097  24.131  0.00  0.00    -0.045 A 
ATOM     29  C   UNL     1       7.045   3.150  23.205  0.00  0.00    +0.004 A 
ATOM     30  C   UNL     1       8.242   3.843  23.022  0.00  0.00    +0.000 A 
ATOM     31  C   UNL     1       9.369   3.489  23.760  0.00  0.00    +0.000 A 
ATOM     32  C   UNL     1       9.304   2.428  24.662  0.00  0.00    +0.000 A 
ATOM     33  C   UNL     1       8.107   1.729  24.843  0.00  0.00    +0.004 A 
ENDBRANCH  27  28
ENDBRANCH  21  27
ENDBRANCH   1  21
TORSDOF 9
ENDMDL
MODEL 7
REMARK VINA RESULT:      -5.7      3.715      7.576
REMARK  Name = 
REMARK  11 active torsions:
REMARK  status: ('A' for Active; 'I' for Inactive)
REMARK    1  A    between atoms: C_2  and  C_3
REMARK    2  A    between atoms: C_2  and  N_10
REMARK    3  A    between atoms: C_2  and  C_30
REMARK    4  A    between atoms: C_3  and  C_4
REMARK    5  A    between atoms: C_11  and  C_13
REMARK    6  A    between atoms: N_19  and  S_20
REMARK    7  A    between atoms: S_20  and  C_23
REMARK    8  A    between atoms: C_26  and  C_27
REMARK    9  A    between atoms: C_30  and  O_32
REMARK   10  A    between atoms: O_32  and  C_33
REMARK   11  A    between atoms: C_33  and  C_34
REMARK                            x       y       z     vdW  Elec       q    Type
REMARK                         _______ _______ _______ _____ _____    ______ ____
ROOT
ATOM      1  N   UNL     1       7.859  -2.058  25.091  0.00  0.00    -0.301 N 
ATOM      2  H   UNL     1       7.936  -2.474  26.024  0.00  0.00    +0.150 HD
ATOM      3  C   UNL     1       6.749  -1.310  24.806  0.00  0.00    +0.233 C 
ATOM      4  O   UNL     1       6.485  -1.027  23.631  0.00  0.00    -0.274 OA
ENDROOT
BRANCH   3   5
ATOM      5  C   UNL     1       5.862  -0.758  25.918  0.00  0.00    +0.175 C 
ATOM      6  N   UNL     1       4.482  -1.309  26.235  0.00  0.00    -0.163 NA
ATOM      7  C   UNL     1       3.648  -0.201  26.826  0.00  0.00    +0.121 C 
ATOM      8  C   UNL     1       4.160   0.314  28.173  0.00  0.00    +0.086 C 
ATOM      9  S   UNL     1       5.898   0.887  28.165  0.00  0.00    -0.157 S 
ATOM     10  C   UNL     1       6.679  -0.457  27.178  0.00  0.00    +0.099 C 
BRANCH   6  11
ATOM     11  S   UNL     1       4.368  -2.819  27.031  0.00  0.00    +0.062 S 
ATOM     12  O   UNL     1       3.413  -2.701  28.108  0.00  0.00    -0.153 OA
ATOM     13  O   UNL     1       5.717  -3.268  27.289  0.00  0.00    -0.153 OA
BRANCH  11  14
ATOM     14  C   UNL     1       3.669  -3.919  25.809  0.00  0.00    +0.106 A 
ATOM     15  C   UNL     1       2.642  -4.811  26.150  0.00  0.00    +0.029 A 
ATOM     16  C   UNL     1       2.103  -5.659  25.168  0.00  0.00    +0.005 A 
ATOM     17  C   UNL     1       2.576  -5.610  23.852  0.00  0.00    -0.050 A 
ATOM     18  C   UNL     1       2.005  -6.527  22.803  0.00  0.00    +0.044 C 
ATOM     19  C   UNL     1       3.609  -4.721  23.531  0.00  0.00    +0.005 A 
ATOM     20  C   UNL     1       4.158  -3.878  24.501  0.00  0.00    +0.029 A 
ENDBRANCH  11  14
ENDBRANCH   6  11
ENDBRANCH   3   5
BRANCH   1  21
ATOM     21  C   UNL     1       8.545  -2.788  24.004  0.00  0.00    +0.186 C 
BRANCH  21  22
ATOM     22  C   UNL     1       8.550  -4.315  24.180  0.00  0.00    +0.328 C 
ATOM     23  O   UNL     1       9.490  -4.968  24.605  0.00  0.00    -0.249 OA
BRANCH  22  24
ATOM     24  O   UNL     1       7.446  -4.843  23.575  0.00  0.00    -0.464 OA
BRANCH  24  25
ATOM     25  C   UNL     1       7.190  -4.387  22.242  0.00  0.00    +0.229 C 
ATOM     26  C   UNL     1       6.609  -5.554  21.460  0.00  0.00    +0.048 C 
ENDBRANCH  24  25
ENDBRANCH  22  24
ENDBRANCH  21  22
BRANCH  21  27
ATOM     27  C   UNL     1       9.919  -2.244  23.565  0.00  0.00    +0.069 C 
BRANCH  27  28
ATOM     28  C   UNL     1      10.023  -0.760  23.316  0.00  0.00    -0.045 A 
ATOM     29  C   UNL     1       9.665  -0.240  22.061  0.00  0.00    +0.004 A 
ATOM     30  C   UNL     1       9.767   1.127  21.801  0.00  0.00    +0.000 A 
ATOM     31  C   UNL     1      10.233   1.989  22.791  0.00  0.00    +0.000 A 
ATOM     32  C   UNL     1      10.617   1.481  24.030  0.00  0.00    +0.000 A 
ATOM     33  C   UNL     1      10.521   0.111  24.291  0.00  0.00    +0.004 A 
ENDBRANCH  27  28
ENDBRANCH  21  27
ENDBRANCH   1  21
TORSDOF 9
ENDMDL
MODEL 8
REMARK VINA RESULT:      -5.7      2.965      7.415
REMARK  Name = 
REMARK  11 active torsions:
REMARK  status: ('A' for Active; 'I' for Inactive)
REMARK    1  A    between atoms: C_2  and  C_3
REMARK    2  A    between atoms: C_2  and  N_10
REMARK    3  A    between atoms: C_2  and  C_30
REMARK    4  A    between atoms: C_3  and  C_4
REMARK    5  A    between atoms: C_11  and  C_13
REMARK    6  A    between atoms: N_19  and  S_20
REMARK    7  A    between atoms: S_20  and  C_23
REMARK    8  A    between atoms: C_26  and  C_27
REMARK    9  A    between atoms: C_30  and  O_32
REMARK   10  A    between atoms: O_32  and  C_33
REMARK   11  A    between atoms: C_33  and  C_34
REMARK                            x       y       z     vdW  Elec       q    Type
REMARK                         _______ _______ _______ _____ _____    ______ ____
ROOT
ATOM      1  N   UNL     1       6.443  -1.463  23.026  0.00  0.00    -0.301 N 
ATOM      2  H   UNL     1       7.314  -1.437  22.487  0.00  0.00    +0.150 HD
ATOM      3  C   UNL     1       6.204  -0.454  23.919  0.00  0.00    +0.233 C 
ATOM      4  O   UNL     1       5.319  -0.586  24.773  0.00  0.00    -0.274 OA
ENDROOT
BRANCH   3   5
ATOM      5  C   UNL     1       6.966   0.866  23.841  0.00  0.00    +0.175 C 
ATOM      6  N   UNL     1       8.205   1.164  24.669  0.00  0.00    -0.163 NA
ATOM      7  C   UNL     1       8.286   2.653  24.893  0.00  0.00    +0.121 C 
ATOM      8  C   UNL     1       8.492   3.465  23.611  0.00  0.00    +0.086 C 
ATOM      9  S   UNL     1       7.237   3.177  22.310  0.00  0.00    -0.157 S 
ATOM     10  C   UNL     1       7.099   1.343  22.392  0.00  0.00    +0.099 C 
BRANCH   6  11
ATOM     11  S   UNL     1       9.676   0.404  24.240  0.00  0.00    +0.062 S 
ATOM     12  O   UNL     1      10.728   0.928  25.081  0.00  0.00    -0.153 OA
ATOM     13  O   UNL     1       9.785   0.467  22.800  0.00  0.00    -0.153 OA
BRANCH  11  14
ATOM     14  C   UNL     1       9.441  -1.312  24.679  0.00  0.00    +0.106 A 
ATOM     15  C   UNL     1       9.885  -2.338  23.832  0.00  0.00    +0.029 A 
ATOM     16  C   UNL     1       9.695  -3.678  24.205  0.00  0.00    +0.005 A 
ATOM     17  C   UNL     1       9.077  -3.995  25.420  0.00  0.00    -0.050 A 
ATOM     18  C   UNL     1       8.865  -5.433  25.813  0.00  0.00    +0.044 C 
ATOM     19  C   UNL     1       8.630  -2.959  26.248  0.00  0.00    +0.005 A 
ATOM     20  C   UNL     1       8.806  -1.622  25.884  0.00  0.00    +0.029 A 
ENDBRANCH  11  14
ENDBRANCH   6  11
ENDBRANCH   3   5
BRANCH   1  21
ATOM     21  C   UNL     1       5.884  -2.807  23.279  0.00  0.00    +0.186 C 
BRANCH  21  22
ATOM     22  C   UNL     1       5.540  -3.594  22.004  0.00  0.00    +0.328 C 
ATOM     23  O   UNL     1       5.415  -3.104  20.892  0.00  0.00    -0.249 OA
BRANCH  22  24
ATOM     24  O   UNL     1       5.168  -4.862  22.342  0.00  0.00    -0.464 OA
BRANCH  24  25
ATOM     25  C   UNL     1       5.840  -5.915  21.642  0.00  0.00    +0.229 C 
ATOM     26  C   UNL     1       7.249  -6.016  22.205  0.00  0.00    +0.048 C 
ENDBRANCH  24  25
ENDBRANCH  22  24
ENDBRANCH  21  22
BRANCH  21  27
ATOM     27  C   UNL     1       4.775  -2.907  24.346  0.00  0.00    +0.069 C 
BRANCH  27  28
ATOM     28  C   UNL     1       5.022  -3.835  25.510  0.00  0.00    -0.045 A 
ATOM     29  C   UNL     1       5.175  -3.305  26.801  0.00  0.00    +0.004 A 
ATOM     30  C   UNL     1       5.420  -4.141  27.891  0.00  0.00    +0.000 A 
ATOM     31  C   UNL     1       5.517  -5.517  27.701  0.00  0.00    +0.000 A 
ATOM     32  C   UNL     1       5.394  -6.053  26.421  0.00  0.00    +0.000 A 
ATOM     33  C   UNL     1       5.155  -5.216  25.327  0.00  0.00    +0.004 A 
ENDBRANCH  27  28
ENDBRANCH  21  27
ENDBRANCH   1  21
TORSDOF 9
ENDMDL
MODEL 9
REMARK VINA RESULT:      -5.7      3.415      8.359
REMARK  Name = 
REMARK  11 active torsions:
REMARK  status: ('A' for Active; 'I' for Inactive)
REMARK    1  A    between atoms: C_2  and  C_3
REMARK    2  A    between atoms: C_2  and  N_10
REMARK    3  A    between atoms: C_2  and  C_30
REMARK    4  A    between atoms: C_3  and  C_4
REMARK    5  A    between atoms: C_11  and  C_13
REMARK    6  A    between atoms: N_19  and  S_20
REMARK    7  A    between atoms: S_20  and  C_23
REMARK    8  A    between atoms: C_26  and  C_27
REMARK    9  A    between atoms: C_30  and  O_32
REMARK   10  A    between atoms: O_32  and  C_33
REMARK   11  A    between atoms: C_33  and  C_34
REMARK                            x       y       z     vdW  Elec       q    Type
REMARK                         _______ _______ _______ _____ _____    ______ ____
ROOT
ATOM      1  N   UNL     1       6.332  -2.909  26.223  0.00  0.00    -0.301 N 
ATOM      2  H   UNL     1       7.245  -2.864  26.686  0.00  0.00    +0.150 HD
ATOM      3  C   UNL     1       5.777  -1.743  25.773  0.00  0.00    +0.233 C 
ATOM      4  O   UNL     1       4.579  -1.712  25.465  0.00  0.00    -0.274 OA
ENDROOT
BRANCH   3   5
ATOM      5  C   UNL     1       6.625  -0.488  25.578  0.00  0.00    +0.175 C 
ATOM      6  N   UNL     1       7.943  -0.481  24.823  0.00  0.00    -0.163 NA
ATOM      7  C   UNL     1       8.806   0.623  25.377  0.00  0.00    +0.121 C 
ATOM      8  C   UNL     1       8.242   2.028  25.151  0.00  0.00    +0.086 C 
ATOM      9  S   UNL     1       6.548   2.287  25.794  0.00  0.00    -0.157 S 
ATOM     10  C   UNL     1       5.749   0.723  25.243  0.00  0.00    +0.099 C 
BRANCH   6  11
ATOM     11  S   UNL     1       7.908  -0.602  23.117  0.00  0.00    +0.062 S 
ATOM     12  O   UNL     1       9.250  -0.412  22.615  0.00  0.00    -0.153 OA
ATOM     13  O   UNL     1       6.824   0.232  22.652  0.00  0.00    -0.153 OA
BRANCH  11  14
ATOM     14  C   UNL     1       7.449  -2.298  22.796  0.00  0.00    +0.106 A 
ATOM     15  C   UNL     1       6.338  -2.602  21.994  0.00  0.00    +0.029 A 
ATOM     16  C   UNL     1       6.003  -3.944  21.750  0.00  0.00    +0.005 A 
ATOM     17  C   UNL     1       6.777  -4.977  22.292  0.00  0.00    -0.050 A 
ATOM     18  C   UNL     1       6.410  -6.415  22.037  0.00  0.00    +0.044 C 
ATOM     19  C   UNL     1       7.875  -4.657  23.098  0.00  0.00    +0.005 A 
ATOM     20  C   UNL     1       8.213  -3.325  23.354  0.00  0.00    +0.029 A 
ENDBRANCH  11  14
ENDBRANCH   6  11
ENDBRANCH   3   5
BRANCH   1  21
ATOM     21  C   UNL     1       5.453  -4.020  26.644  0.00  0.00    +0.186 C 
BRANCH  21  22
ATOM     22  C   UNL     1       5.429  -4.260  28.163  0.00  0.00    +0.328 C 
ATOM     23  O   UNL     1       6.138  -5.058  28.756  0.00  0.00    -0.249 OA
BRANCH  22  24
ATOM     24  O   UNL     1       4.348  -3.627  28.703  0.00  0.00    -0.464 OA
BRANCH  24  25
ATOM     25  C   UNL     1       3.116  -3.780  27.989  0.00  0.00    +0.229 C 
ATOM     26  C   UNL     1       2.519  -5.122  28.383  0.00  0.00    +0.048 C 
ENDBRANCH  24  25
ENDBRANCH  22  24
ENDBRANCH  21  22
BRANCH  21  27
ATOM     27  C   UNL     1       5.565  -5.333  25.845  0.00  0.00    +0.069 C 
BRANCH  27  28
ATOM     28  C   UNL     1       4.368  -5.742  25.022  0.00  0.00    -0.045 A 
ATOM     29  C   UNL     1       4.008  -7.098  24.946  0.00  0.00    +0.004 A 
ATOM     30  C   UNL     1       2.916  -7.503  24.179  0.00  0.00    +0.000 A 
ATOM     31  C   UNL     1       2.172  -6.558  23.477  0.00  0.00    +0.000 A 
ATOM     32  C   UNL     1       2.537  -5.213  23.522  0.00  0.00    +0.000 A 
ATOM     33  C   UNL     1       3.635  -4.806  24.285  0.00  0.00    +0.004 A 
ENDBRANCH  27  28
ENDBRANCH  21  27
ENDBRANCH   1  21
TORSDOF 9
ENDMDL
