MODEL 1
REMARK VINA RESULT:      -4.6      0.000      0.000
REMARK  Name = 
REMARK  1 active torsions:
REMARK  status: ('A' for Active; 'I' for Inactive)
REMARK    1  A    between atoms: N_1  and  C_2
REMARK                            x       y       z     vdW  Elec       q    Type
REMARK                         _______ _______ _______ _____ _____    ______ ____
ROOT
ATOM      1  C   UNL     1      10.172   1.367  22.610  0.00  0.00    +0.145 A 
ATOM      2  N   UNL     1      10.554   1.724  23.847  0.00  0.00    -0.219 NA
ATOM      3  C   UNL     1      10.540   0.787  24.820  0.00  0.00    +0.225 A 
ATOM      4  N   UNL     1      10.193  -0.503  24.723  0.00  0.00    -0.214 NA
ATOM      5  C   UNL     1       9.814  -0.838  23.479  0.00  0.00    +0.183 A 
ATOM      6  N   UNL     1       9.402  -2.082  23.079  0.00  0.00    -0.216 NA
ATOM      7  C   UNL     1       9.122  -1.954  21.801  0.00  0.00    +0.199 A 
ATOM      8  N   UNL     1       9.344  -0.677  21.360  0.00  0.00    -0.340 N 
ATOM      9  H   UNL     1       9.186  -0.335  20.424  0.00  0.00    +0.167 HD
ATOM     10  C   UNL     1       9.797   0.054  22.422  0.00  0.00    +0.125 A 
ENDROOT
BRANCH   1  11
ATOM     11  N   UNL     1      10.184   2.324  21.611  0.00  0.00    -0.341 N 
ATOM     12  H   UNL     1      10.915   2.111  20.938  0.00  0.00    +0.144 HD
ATOM     13  H   UNL     1       9.289   2.560  21.211  0.00  0.00    +0.144 HD
ENDBRANCH   1  11
TORSDOF 1
ENDMDL
MODEL 2
REMARK VINA RESULT:      -4.6      5.642      7.043
REMARK  Name = 
REMARK  1 active torsions:
REMARK  status: ('A' for Active; 'I' for Inactive)
REMARK    1  A    between atoms: N_1  and  C_2
REMARK                            x       y       z     vdW  Elec       q    Type
REMARK                         _______ _______ _______ _____ _____    ______ ____
ROOT
ATOM      1  C   UNL     1       8.968  -5.303  25.265  0.00  0.00    +0.145 A 
ATOM      2  N   UNL     1       8.731  -4.962  23.988  0.00  0.00    -0.219 NA
ATOM      3  C   UNL     1       7.450  -4.789  23.595  0.00  0.00    +0.225 A 
ATOM      4  N   UNL     1       6.336  -4.905  24.329  0.00  0.00    -0.214 NA
ATOM      5  C   UNL     1       6.596  -5.246  25.602  0.00  0.00    +0.183 A 
ATOM      6  N   UNL     1       5.658  -5.442  26.582  0.00  0.00    -0.216 NA
ATOM      7  C   UNL     1       6.348  -5.769  27.653  0.00  0.00    +0.199 A 
ATOM      8  N   UNL     1       7.693  -5.786  27.402  0.00  0.00    -0.340 N 
ATOM      9  H   UNL     1       8.419  -6.023  28.062  0.00  0.00    +0.167 HD
ATOM     10  C   UNL     1       7.875  -5.445  26.091  0.00  0.00    +0.125 A 
ENDROOT
BRANCH   1  11
ATOM     11  N   UNL     1      10.278  -5.483  25.670  0.00  0.00    -0.341 N 
ATOM     12  H   UNL     1      10.674  -6.296  25.206  0.00  0.00    +0.144 HD
ATOM     13  H   UNL     1      10.863  -4.660  25.663  0.00  0.00    +0.144 HD
ENDBRANCH   1  11
TORSDOF 1
ENDMDL
MODEL 3
REMARK VINA RESULT:      -4.4      0.909      3.064
REMARK  Name = 
REMARK  1 active torsions:
REMARK  status: ('A' for Active; 'I' for Inactive)
REMARK    1  A    between atoms: N_1  and  C_2
REMARK                            x       y       z     vdW  Elec       q    Type
REMARK                         _______ _______ _______ _____ _____    ______ ____
ROOT
ATOM      1  C   UNL     1       9.774  -0.463  22.248  0.00  0.00    +0.145 A 
ATOM      2  N   UNL     1       9.738  -1.348  23.258  0.00  0.00    -0.219 NA
ATOM      3  C   UNL     1       9.961  -0.901  24.513  0.00  0.00    +0.225 A 
ATOM      4  N   UNL     1      10.216   0.351  24.914  0.00  0.00    -0.214 NA
ATOM      5  C   UNL     1      10.248   1.219  23.888  0.00  0.00    +0.183 A 
ATOM      6  N   UNL     1      10.490   2.564  23.990  0.00  0.00    -0.216 NA
ATOM      7  C   UNL     1      10.438   3.013  22.755  0.00  0.00    +0.199 A 
ATOM      8  N   UNL     1      10.165   2.011  21.863  0.00  0.00    -0.340 N 
ATOM      9  H   UNL     1      10.092   2.110  20.862  0.00  0.00    +0.167 HD
ATOM     10  C   UNL     1      10.032   0.851  22.572  0.00  0.00    +0.125 A 
ENDROOT
BRANCH   1  11
ATOM     11  N   UNL     1       9.547  -0.918  20.962  0.00  0.00    -0.341 N 
ATOM     12  H   UNL     1       8.727  -0.460  20.573  0.00  0.00    +0.144 HD
ATOM     13  H   UNL     1      10.350  -0.947  20.352  0.00  0.00    +0.144 HD
ENDBRANCH   1  11
TORSDOF 1
ENDMDL
MODEL 4
REMARK VINA RESULT:      -4.3      0.771      2.457
REMARK  Name = 
REMARK  1 active torsions:
REMARK  status: ('A' for Active; 'I' for Inactive)
REMARK    1  A    between atoms: N_1  and  C_2
REMARK                            x       y       z     vdW  Elec       q    Type
REMARK                         _______ _______ _______ _____ _____    ______ ____
ROOT
ATOM      1  C   UNL     1       9.971   0.711  24.526  0.00  0.00    +0.145 A 
ATOM      2  N   UNL     1      10.271   1.999  24.292  0.00  0.00    -0.219 NA
ATOM      3  C   UNL     1      10.292   2.433  23.012  0.00  0.00    +0.225 A 
ATOM      4  N   UNL     1      10.039   1.735  21.897  0.00  0.00    -0.214 NA
ATOM      5  C   UNL     1       9.742   0.451  22.154  0.00  0.00    +0.183 A 
ATOM      6  N   UNL     1       9.444  -0.502  21.215  0.00  0.00    -0.216 NA
ATOM      7  C   UNL     1       9.234  -1.603  21.902  0.00  0.00    +0.199 A 
ATOM      8  N   UNL     1       9.378  -1.395  23.247  0.00  0.00    -0.340 N 
ATOM      9  H   UNL     1       9.282  -2.092  23.971  0.00  0.00    +0.167 HD
ATOM     10  C   UNL     1       9.698  -0.080  23.431  0.00  0.00    +0.125 A 
ENDROOT
BRANCH   1  11
ATOM     11  N   UNL     1       9.950   0.264  25.834  0.00  0.00    -0.341 N 
ATOM     12  H   UNL     1      10.891   0.279  26.220  0.00  0.00    +0.144 HD
ATOM     13  H   UNL     1       9.238   0.662  26.429  0.00  0.00    +0.144 HD
ENDBRANCH   1  11
TORSDOF 1
ENDMDL
MODEL 5
REMARK VINA RESULT:      -4.2      0.893      2.747
REMARK  Name = 
REMARK  1 active torsions:
REMARK  status: ('A' for Active; 'I' for Inactive)
REMARK    1  A    between atoms: N_1  and  C_2
REMARK                            x       y       z     vdW  Elec       q    Type
REMARK                         _______ _______ _______ _____ _____    ______ ____
ROOT
ATOM      1  C   UNL     1       9.790   0.899  22.193  0.00  0.00    +0.145 A 
ATOM      2  N   UNL     1       9.509  -0.013  21.248  0.00  0.00    -0.219 NA
ATOM      3  C   UNL     1       9.188  -1.266  21.638  0.00  0.00    +0.225 A 
ATOM      4  N   UNL     1       9.101  -1.749  22.884  0.00  0.00    -0.214 NA
ATOM      5  C   UNL     1       9.387  -0.821  23.813  0.00  0.00    +0.183 A 
ATOM      6  N   UNL     1       9.385  -1.023  25.168  0.00  0.00    -0.216 NA
ATOM      7  C   UNL     1       9.730   0.135  25.685  0.00  0.00    +0.199 A 
ATOM      8  N   UNL     1       9.948   1.077  24.717  0.00  0.00    -0.340 N 
ATOM      9  H   UNL     1      10.236   2.032  24.869  0.00  0.00    +0.167 HD
ATOM     10  C   UNL     1       9.725   0.485  23.506  0.00  0.00    +0.125 A 
ENDROOT
BRANCH   1  11
ATOM     11  N   UNL     1      10.120   2.182  21.797  0.00  0.00    -0.341 N 
ATOM     12  H   UNL     1       9.292   2.773  21.818  0.00  0.00    +0.144 HD
ATOM     13  H   UNL     1      10.942   2.582  22.224  0.00  0.00    +0.144 HD
ENDBRANCH   1  11
TORSDOF 1
ENDMDL
MODEL 6
REMARK VINA RESULT:      -4.2      1.170      3.546
REMARK  Name = 
REMARK  1 active torsions:
REMARK  status: ('A' for Active; 'I' for Inactive)
REMARK    1  A    between atoms: N_1  and  C_2
REMARK                            x       y       z     vdW  Elec       q    Type
REMARK                         _______ _______ _______ _____ _____    ______ ____
ROOT
ATOM      1  C   UNL     1       9.618  -0.404  24.907  0.00  0.00    +0.145 A 
ATOM      2  N   UNL     1       9.679  -1.635  24.372  0.00  0.00    -0.219 NA
ATOM      3  C   UNL     1       9.902  -1.748  23.044  0.00  0.00    +0.225 A 
ATOM      4  N   UNL     1      10.087  -0.770  22.148  0.00  0.00    -0.214 NA
ATOM      5  C   UNL     1      10.021   0.451  22.704  0.00  0.00    +0.183 A 
ATOM      6  N   UNL     1      10.165   1.639  22.037  0.00  0.00    -0.216 NA
ATOM      7  C   UNL     1      10.017   2.566  22.957  0.00  0.00    +0.199 A 
ATOM      8  N   UNL     1       9.790   2.022  24.192  0.00  0.00    -0.340 N 
ATOM      9  H   UNL     1       9.630   2.532  25.047  0.00  0.00    +0.167 HD
ATOM     10  C   UNL     1       9.795   0.663  24.052  0.00  0.00    +0.125 A 
ENDROOT
BRANCH   1  11
ATOM     11  N   UNL     1       9.388  -0.284  26.265  0.00  0.00    -0.341 N 
ATOM     12  H   UNL     1       9.219   0.690  26.502  0.00  0.00    +0.144 HD
ATOM     13  H   UNL     1       8.736  -0.942  26.666  0.00  0.00    +0.144 HD
ENDBRANCH   1  11
TORSDOF 1
ENDMDL
MODEL 7
REMARK VINA RESULT:      -4.1      5.334      6.993
REMARK  Name = 
REMARK  1 active torsions:
REMARK  status: ('A' for Active; 'I' for Inactive)
REMARK    1  A    between atoms: N_1  and  C_2
REMARK                            x       y       z     vdW  Elec       q    Type
REMARK                         _______ _______ _______ _____ _____    ______ ____
ROOT
ATOM      1  C   UNL     1       6.315  -5.684  25.606  0.00  0.00    +0.145 A 
ATOM      2  N   UNL     1       5.555  -5.256  24.585  0.00  0.00    -0.219 NA
ATOM      3  C   UNL     1       6.151  -4.579  23.579  0.00  0.00    +0.225 A 
ATOM      4  N   UNL     1       7.447  -4.267  23.444  0.00  0.00    -0.214 NA
ATOM      5  C   UNL     1       8.188  -4.704  24.476  0.00  0.00    +0.183 A 
ATOM      6  N   UNL     1       9.539  -4.529  24.617  0.00  0.00    -0.216 NA
ATOM      7  C   UNL     1       9.839  -5.099  25.763  0.00  0.00    +0.199 A 
ATOM      8  N   UNL     1       8.734  -5.640  26.363  0.00  0.00    -0.340 N 
ATOM      9  H   UNL     1       8.712  -6.113  27.254  0.00  0.00    +0.167 HD
ATOM     10  C   UNL     1       7.663  -5.403  25.548  0.00  0.00    +0.125 A 
ENDROOT
BRANCH   1  11
ATOM     11  N   UNL     1       5.707  -6.376  26.638  0.00  0.00    -0.341 N 
ATOM     12  H   UNL     1       5.798  -7.377  26.483  0.00  0.00    +0.144 HD
ATOM     13  H   UNL     1       5.928  -6.066  27.572  0.00  0.00    +0.144 HD
ENDBRANCH   1  11
TORSDOF 1
ENDMDL
MODEL 8
REMARK VINA RESULT:      -4.1      2.237      3.202
REMARK  Name = 
REMARK  1 active torsions:
REMARK  status: ('A' for Active; 'I' for Inactive)
REMARK    1  A    between atoms: N_1  and  C_2
REMARK                            x       y       z     vdW  Elec       q    Type
REMARK                         _______ _______ _______ _____ _____    ______ ____
ROOT
ATOM      1  C   UNL     1       7.815  -0.777  22.960  0.00  0.00    +0.145 A 
ATOM      2  N   UNL     1       8.608  -0.170  22.062  0.00  0.00    -0.219 NA
ATOM      3  C   UNL     1       9.855  -0.653  21.874  0.00  0.00    +0.225 A 
ATOM      4  N   UNL     1      10.438  -1.699  22.475  0.00  0.00    -0.214 NA
ATOM      5  C   UNL     1       9.628  -2.291  23.369  0.00  0.00    +0.183 A 
ATOM      6  N   UNL     1       9.950  -3.378  24.138  0.00  0.00    -0.216 NA
ATOM      7  C   UNL     1       8.881  -3.608  24.867  0.00  0.00    +0.199 A 
ATOM      8  N   UNL     1       7.880  -2.715  24.592  0.00  0.00    -0.340 N 
ATOM      9  H   UNL     1       6.974  -2.682  25.035  0.00  0.00    +0.167 HD
ATOM     10  C   UNL     1       8.338  -1.864  23.626  0.00  0.00    +0.125 A 
ENDROOT
BRANCH   1  11
ATOM     11  N   UNL     1       6.538  -0.284  23.155  0.00  0.00    -0.341 N 
ATOM     12  H   UNL     1       5.961  -0.488  22.343  0.00  0.00    +0.144 HD
ATOM     13  H   UNL     1       6.112  -0.493  24.046  0.00  0.00    +0.144 HD
ENDBRANCH   1  11
TORSDOF 1
ENDMDL
MODEL 9
REMARK VINA RESULT:      -4.1      1.838      2.178
REMARK  Name = 
REMARK  1 active torsions:
REMARK  status: ('A' for Active; 'I' for Inactive)
REMARK    1  A    between atoms: N_1  and  C_2
REMARK                            x       y       z     vdW  Elec       q    Type
REMARK                         _______ _______ _______ _____ _____    ______ ____
ROOT
ATOM      1  C   UNL     1       9.180   1.654  22.105  0.00  0.00    +0.145 A 
ATOM      2  N   UNL     1       8.151   2.360  22.602  0.00  0.00    -0.219 NA
ATOM      3  C   UNL     1       7.074   1.688  23.065  0.00  0.00    +0.225 A 
ATOM      4  N   UNL     1       6.878   0.364  23.107  0.00  0.00    -0.214 NA
ATOM      5  C   UNL     1       7.918  -0.323  22.605  0.00  0.00    +0.183 A 
ATOM      6  N   UNL     1       8.003  -1.687  22.512  0.00  0.00    -0.216 NA
ATOM      7  C   UNL     1       9.171  -1.919  21.957  0.00  0.00    +0.199 A 
ATOM      8  N   UNL     1       9.846  -0.757  21.694  0.00  0.00    -0.340 N 
ATOM      9  H   UNL     1      10.752  -0.681  21.256  0.00  0.00    +0.167 HD
ATOM     10  C   UNL     1       9.061   0.281  22.110  0.00  0.00    +0.125 A 
ENDROOT
BRANCH   1  11
ATOM     11  N   UNL     1      10.284   2.338  21.630  0.00  0.00    -0.341 N 
ATOM     12  H   UNL     1      10.417   2.135  20.643  0.00  0.00    +0.144 HD
ATOM     13  H   UNL     1      10.343   3.314  21.878  0.00  0.00    +0.144 HD
ENDBRANCH   1  11
TORSDOF 1
ENDMDL
