MODEL 1
REMARK VINA RESULT:      -5.6      0.000      0.000
REMARK  Name = 
REMARK  15 active torsions:
REMARK  status: ('A' for Active; 'I' for Inactive)
REMARK    1  A    between atoms: O_1  and  C_2
REMARK    2  A    between atoms: C_2  and  C_4
REMARK    3  A    between atoms: C_4  and  N_5
REMARK    4  A    between atoms: N_5  and  C_6
REMARK    5  A    between atoms: N_5  and  C_17
REMARK    6  A    between atoms: C_6  and  C_7
REMARK    7  A    between atoms: C_7  and  N_8
REMARK    8  A    between atoms: N_8  and  C_9
REMARK    9  A    between atoms: N_8  and  C_13
REMARK   10  A    between atoms: C_9  and  C_10
REMARK   11  A    between atoms: C_10  and  O_11
REMARK   12  A    between atoms: C_13  and  C_14
REMARK   13  A    between atoms: C_14  and  O_15
REMARK   14  A    between atoms: C_17  and  C_18
REMARK   15  A    between atoms: C_18  and  O_19
REMARK                            x       y       z     vdW  Elec       q    Type
REMARK                         _______ _______ _______ _____ _____    ______ ____
ROOT
ATOM      1  C   UNL     1       8.355  -2.131  22.466  0.00  0.00    +0.101 C 
ENDROOT
BRANCH   1   2
ATOM      2  N   UNL     1       8.900  -0.770  22.828  0.00  0.00    -0.281 NA
BRANCH   2   3
ATOM      3  C   UNL     1       9.403  -0.117  21.554  0.00  0.00    +0.206 C 
BRANCH   3   4
ATOM      4  C   UNL     1       9.075   1.374  21.488  0.00  0.00    +0.319 C 
ATOM      5  O   UNL     1       7.955   1.819  21.293  0.00  0.00    -0.250 OA
BRANCH   4   6
ATOM      6  O   UNL     1      10.166   2.163  21.629  0.00  0.00    -0.480 OA
ATOM      7  H   UNL     1       9.936   3.085  21.391  0.00  0.00    +0.295 HD
ENDBRANCH   4   6
ENDBRANCH   3   4
ENDBRANCH   2   3
BRANCH   2   8
ATOM      8  C   UNL     1      10.103  -0.994  23.719  0.00  0.00    +0.206 C 
BRANCH   8   9
ATOM      9  C   UNL     1      10.394   0.175  24.654  0.00  0.00    +0.319 C 
ATOM     10  O   UNL     1      11.129   1.106  24.368  0.00  0.00    -0.250 OA
BRANCH   9  11
ATOM     11  O   UNL     1       9.801   0.045  25.862  0.00  0.00    -0.480 OA
ATOM     12  H   UNL     1       9.530   0.924  26.196  0.00  0.00    +0.295 HD
ENDBRANCH   9  11
ENDBRANCH   8   9
ENDBRANCH   2   8
ENDBRANCH   1   2
BRANCH   1  13
ATOM     13  C   UNL     1       7.683  -2.892  23.649  0.00  0.00    +0.101 C 
BRANCH  13  14
ATOM     14  N   UNL     1       7.467  -4.371  23.465  0.00  0.00    -0.281 NA
BRANCH  14  15
ATOM     15  C   UNL     1       6.093  -4.551  22.841  0.00  0.00    +0.206 C 
BRANCH  15  16
ATOM     16  C   UNL     1       6.108  -5.512  21.654  0.00  0.00    +0.319 C 
ATOM     17  O   UNL     1       5.963  -5.170  20.492  0.00  0.00    -0.250 OA
BRANCH  16  18
ATOM     18  O   UNL     1       6.274  -6.803  22.025  0.00  0.00    -0.480 OA
ATOM     19  H   UNL     1       5.439  -7.294  21.898  0.00  0.00    +0.295 HD
ENDBRANCH  16  18
ENDBRANCH  15  16
ENDBRANCH  14  15
BRANCH  14  20
ATOM     20  C   UNL     1       7.412  -5.012  24.833  0.00  0.00    +0.206 C 
BRANCH  20  21
ATOM     21  C   UNL     1       8.794  -5.205  25.449  0.00  0.00    +0.319 C 
ATOM     22  O   UNL     1       9.831  -5.240  24.807  0.00  0.00    -0.250 OA
BRANCH  21  23
ATOM     23  O   UNL     1       8.745  -5.398  26.788  0.00  0.00    -0.480 OA
ATOM     24  H   UNL     1       7.866  -5.755  27.035  0.00  0.00    +0.295 HD
ENDBRANCH  21  23
ENDBRANCH  20  21
ENDBRANCH  14  20
ENDBRANCH  13  14
ENDBRANCH   1  13
TORSDOF 15
ENDMDL
MODEL 2
REMARK VINA RESULT:      -5.5      0.560      6.014
REMARK  Name = 
REMARK  15 active torsions:
REMARK  status: ('A' for Active; 'I' for Inactive)
REMARK    1  A    between atoms: O_1  and  C_2
REMARK    2  A    between atoms: C_2  and  C_4
REMARK    3  A    between atoms: C_4  and  N_5
REMARK    4  A    between atoms: N_5  and  C_6
REMARK    5  A    between atoms: N_5  and  C_17
REMARK    6  A    between atoms: C_6  and  C_7
REMARK    7  A    between atoms: C_7  and  N_8
REMARK    8  A    between atoms: N_8  and  C_9
REMARK    9  A    between atoms: N_8  and  C_13
REMARK   10  A    between atoms: C_9  and  C_10
REMARK   11  A    between atoms: C_10  and  O_11
REMARK   12  A    between atoms: C_13  and  C_14
REMARK   13  A    between atoms: C_14  and  O_15
REMARK   14  A    between atoms: C_17  and  C_18
REMARK   15  A    between atoms: C_18  and  O_19
REMARK                            x       y       z     vdW  Elec       q    Type
REMARK                         _______ _______ _______ _____ _____    ______ ____
ROOT
ATOM      1  C   UNL     1       7.852  -2.927  23.874  0.00  0.00    +0.101 C 
ENDROOT
BRANCH   1   2
ATOM      2  N   UNL     1       7.689  -4.406  23.620  0.00  0.00    -0.281 NA
BRANCH   2   3
ATOM      3  C   UNL     1       6.286  -4.636  23.093  0.00  0.00    +0.206 C 
BRANCH   3   4
ATOM      4  C   UNL     1       6.244  -4.777  21.572  0.00  0.00    +0.319 C 
ATOM      5  O   UNL     1       5.679  -3.992  20.828  0.00  0.00    -0.250 OA
BRANCH   4   6
ATOM      6  O   UNL     1       6.868  -5.894  21.126  0.00  0.00    -0.480 OA
ATOM      7  H   UNL     1       7.723  -5.649  20.717  0.00  0.00    +0.295 HD
ENDBRANCH   4   6
ENDBRANCH   3   4
ENDBRANCH   2   3
BRANCH   2   8
ATOM      8  C   UNL     1       7.782  -5.102  24.961  0.00  0.00    +0.206 C 
BRANCH   8   9
ATOM      9  C   UNL     1       9.145  -4.960  25.629  0.00  0.00    +0.319 C 
ATOM     10  O   UNL     1       9.315  -4.454  26.726  0.00  0.00    -0.250 OA
BRANCH   9  11
ATOM     11  O   UNL     1      10.162  -5.396  24.851  0.00  0.00    -0.480 OA
ATOM     12  H   UNL     1       9.984  -6.311  24.552  0.00  0.00    +0.295 HD
ENDBRANCH   9  11
ENDBRANCH   8   9
ENDBRANCH   2   8
ENDBRANCH   1   2
BRANCH   1  13
ATOM     13  C   UNL     1       8.391  -2.118  22.655  0.00  0.00    +0.101 C 
BRANCH  13  14
ATOM     14  N   UNL     1       8.947  -0.750  22.944  0.00  0.00    -0.281 NA
BRANCH  14  15
ATOM     15  C   UNL     1       9.402  -0.159  21.620  0.00  0.00    +0.206 C 
BRANCH  15  16
ATOM     16  C   UNL     1       9.074   1.327  21.494  0.00  0.00    +0.319 C 
ATOM     17  O   UNL     1       7.953   1.768  21.299  0.00  0.00    -0.250 OA
BRANCH  16  18
ATOM     18  O   UNL     1      10.168   2.118  21.598  0.00  0.00    -0.480 OA
ATOM     19  H   UNL     1       9.895   3.038  21.778  0.00  0.00    +0.295 HD
ENDBRANCH  16  18
ENDBRANCH  15  16
ENDBRANCH  14  15
BRANCH  14  20
ATOM     20  C   UNL     1      10.185  -0.914  23.796  0.00  0.00    +0.206 C 
BRANCH  20  21
ATOM     21  C   UNL     1      10.443   0.287  24.699  0.00  0.00    +0.319 C 
ATOM     22  O   UNL     1      11.136   1.242  24.387  0.00  0.00    -0.250 OA
BRANCH  21  23
ATOM     23  O   UNL     1       9.870   0.156  25.918  0.00  0.00    -0.480 OA
ATOM     24  H   UNL     1      10.062  -0.737  26.275  0.00  0.00    +0.295 HD
ENDBRANCH  21  23
ENDBRANCH  20  21
ENDBRANCH  14  20
ENDBRANCH  13  14
ENDBRANCH   1  13
TORSDOF 15
ENDMDL
MODEL 3
REMARK VINA RESULT:      -5.5      2.358      6.283
REMARK  Name = 
REMARK  15 active torsions:
REMARK  status: ('A' for Active; 'I' for Inactive)
REMARK    1  A    between atoms: O_1  and  C_2
REMARK    2  A    between atoms: C_2  and  C_4
REMARK    3  A    between atoms: C_4  and  N_5
REMARK    4  A    between atoms: N_5  and  C_6
REMARK    5  A    between atoms: N_5  and  C_17
REMARK    6  A    between atoms: C_6  and  C_7
REMARK    7  A    between atoms: C_7  and  N_8
REMARK    8  A    between atoms: N_8  and  C_9
REMARK    9  A    between atoms: N_8  and  C_13
REMARK   10  A    between atoms: C_9  and  C_10
REMARK   11  A    between atoms: C_10  and  O_11
REMARK   12  A    between atoms: C_13  and  C_14
REMARK   13  A    between atoms: C_14  and  O_15
REMARK   14  A    between atoms: C_17  and  C_18
REMARK   15  A    between atoms: C_18  and  O_19
REMARK                            x       y       z     vdW  Elec       q    Type
REMARK                         _______ _______ _______ _____ _____    ______ ____
ROOT
ATOM      1  C   UNL     1       6.201  -3.472  25.339  0.00  0.00    +0.101 C 
ENDROOT
BRANCH   1   2
ATOM      2  N   UNL     1       6.185  -4.953  25.047  0.00  0.00    -0.281 NA
BRANCH   2   3
ATOM      3  C   UNL     1       4.815  -5.486  25.419  0.00  0.00    +0.206 C 
BRANCH   3   4
ATOM      4  C   UNL     1       4.496  -6.816  24.736  0.00  0.00    +0.319 C 
ATOM      5  O   UNL     1       3.919  -7.742  25.282  0.00  0.00    -0.250 OA
BRANCH   4   6
ATOM      6  O   UNL     1       4.957  -6.882  23.464  0.00  0.00    -0.480 OA
ATOM      7  H   UNL     1       4.567  -6.154  22.938  0.00  0.00    +0.295 HD
ENDBRANCH   4   6
ENDBRANCH   3   4
ENDBRANCH   2   3
BRANCH   2   8
ATOM      8  C   UNL     1       7.185  -5.602  25.981  0.00  0.00    +0.206 C 
BRANCH   8   9
ATOM      9  C   UNL     1       8.618  -5.131  25.762  0.00  0.00    +0.319 C 
ATOM     10  O   UNL     1       9.299  -4.604  26.627  0.00  0.00    -0.250 OA
BRANCH   9  11
ATOM     11  O   UNL     1       9.041  -5.298  24.488  0.00  0.00    -0.480 OA
ATOM     12  H   UNL     1       9.500  -4.491  24.181  0.00  0.00    +0.295 HD
ENDBRANCH   9  11
ENDBRANCH   8   9
ENDBRANCH   2   8
ENDBRANCH   1   2
BRANCH   1  13
ATOM     13  C   UNL     1       6.327  -2.566  24.076  0.00  0.00    +0.101 C 
BRANCH  13  14
ATOM     14  N   UNL     1       7.246  -3.050  22.987  0.00  0.00    -0.281 NA
BRANCH  14  15
ATOM     15  C   UNL     1       8.092  -1.864  22.553  0.00  0.00    +0.206 C 
BRANCH  15  16
ATOM     16  C   UNL     1       9.590  -2.126  22.695  0.00  0.00    +0.319 C 
ATOM     17  O   UNL     1      10.095  -2.731  23.627  0.00  0.00    -0.250 OA
BRANCH  16  18
ATOM     18  O   UNL     1      10.316  -1.593  21.684  0.00  0.00    -0.480 OA
ATOM     19  H   UNL     1      10.339  -2.215  20.931  0.00  0.00    +0.295 HD
ENDBRANCH  16  18
ENDBRANCH  15  16
ENDBRANCH  14  15
BRANCH  14  20
ATOM     20  C   UNL     1       6.401  -3.441  21.796  0.00  0.00    +0.206 C 
BRANCH  20  21
ATOM     21  C   UNL     1       6.544  -4.916  21.431  0.00  0.00    +0.319 C 
ATOM     22  O   UNL     1       5.963  -5.449  20.500  0.00  0.00    -0.250 OA
BRANCH  21  23
ATOM     23  O   UNL     1       7.340  -5.591  22.292  0.00  0.00    -0.480 OA
ATOM     24  H   UNL     1       6.861  -5.736  23.135  0.00  0.00    +0.295 HD
ENDBRANCH  21  23
ENDBRANCH  20  21
ENDBRANCH  14  20
ENDBRANCH  13  14
ENDBRANCH   1  13
TORSDOF 15
ENDMDL
MODEL 4
REMARK VINA RESULT:      -5.5      0.763      6.627
REMARK  Name = 
REMARK  15 active torsions:
REMARK  status: ('A' for Active; 'I' for Inactive)
REMARK    1  A    between atoms: O_1  and  C_2
REMARK    2  A    between atoms: C_2  and  C_4
REMARK    3  A    between atoms: C_4  and  N_5
REMARK    4  A    between atoms: N_5  and  C_6
REMARK    5  A    between atoms: N_5  and  C_17
REMARK    6  A    between atoms: C_6  and  C_7
REMARK    7  A    between atoms: C_7  and  N_8
REMARK    8  A    between atoms: N_8  and  C_9
REMARK    9  A    between atoms: N_8  and  C_13
REMARK   10  A    between atoms: C_9  and  C_10
REMARK   11  A    between atoms: C_10  and  O_11
REMARK   12  A    between atoms: C_13  and  C_14
REMARK   13  A    between atoms: C_14  and  O_15
REMARK   14  A    between atoms: C_17  and  C_18
REMARK   15  A    between atoms: C_18  and  O_19
REMARK                            x       y       z     vdW  Elec       q    Type
REMARK                         _______ _______ _______ _____ _____    ______ ____
ROOT
ATOM      1  C   UNL     1       7.227  -2.895  22.937  0.00  0.00    +0.101 C 
ENDROOT
BRANCH   1   2
ATOM      2  N   UNL     1       7.351  -4.218  23.654  0.00  0.00    -0.281 NA
BRANCH   2   3
ATOM      3  C   UNL     1       8.620  -4.181  24.483  0.00  0.00    +0.206 C 
BRANCH   3   4
ATOM      4  C   UNL     1       8.703  -5.333  25.484  0.00  0.00    +0.319 C 
ATOM      5  O   UNL     1       7.763  -5.720  26.159  0.00  0.00    -0.250 OA
BRANCH   4   6
ATOM      6  O   UNL     1       9.945  -5.863  25.581  0.00  0.00    -0.480 OA
ATOM      7  H   UNL     1      10.590  -5.151  25.768  0.00  0.00    +0.295 HD
ENDBRANCH   4   6
ENDBRANCH   3   4
ENDBRANCH   2   3
BRANCH   2   8
ATOM      8  C   UNL     1       7.540  -5.284  22.595  0.00  0.00    +0.206 C 
BRANCH   8   9
ATOM      9  C   UNL     1       6.249  -5.670  21.882  0.00  0.00    +0.319 C 
ATOM     10  O   UNL     1       5.948  -5.283  20.765  0.00  0.00    -0.250 OA
BRANCH   9  11
ATOM     11  O   UNL     1       5.437  -6.441  22.641  0.00  0.00    -0.480 OA
ATOM     12  H   UNL     1       5.710  -7.378  22.575  0.00  0.00    +0.295 HD
ENDBRANCH   9  11
ENDBRANCH   8   9
ENDBRANCH   2   8
ENDBRANCH   1   2
BRANCH   1  13
ATOM     13  C   UNL     1       8.576  -2.317  22.412  0.00  0.00    +0.101 C 
BRANCH  13  14
ATOM     14  N   UNL     1       8.899  -0.898  22.799  0.00  0.00    -0.281 NA
BRANCH  14  15
ATOM     15  C   UNL     1       9.374  -0.186  21.543  0.00  0.00    +0.206 C 
BRANCH  15  16
ATOM     16  C   UNL     1       9.033   1.303  21.545  0.00  0.00    +0.319 C 
ATOM     17  O   UNL     1       7.907   1.749  21.403  0.00  0.00    -0.250 OA
BRANCH  16  18
ATOM     18  O   UNL     1      10.123   2.091  21.699  0.00  0.00    -0.480 OA
ATOM     19  H   UNL     1      10.151   2.759  20.987  0.00  0.00    +0.295 HD
ENDBRANCH  16  18
ENDBRANCH  15  16
ENDBRANCH  14  15
BRANCH  14  20
ATOM     20  C   UNL     1      10.070  -0.925  23.754  0.00  0.00    +0.206 C 
BRANCH  20  21
ATOM     21  C   UNL     1       9.833  -0.079  25.001  0.00  0.00    +0.319 C 
ATOM     22  O   UNL     1       9.301  -0.494  26.018  0.00  0.00    -0.250 OA
BRANCH  21  23
ATOM     23  O   UNL     1      10.221   1.207  24.841  0.00  0.00    -0.480 OA
ATOM     24  H   UNL     1       9.429   1.781  24.766  0.00  0.00    +0.295 HD
ENDBRANCH  21  23
ENDBRANCH  20  21
ENDBRANCH  14  20
ENDBRANCH  13  14
ENDBRANCH   1  13
TORSDOF 15
ENDMDL
MODEL 5
REMARK VINA RESULT:      -5.4      1.847      3.069
REMARK  Name = 
REMARK  15 active torsions:
REMARK  status: ('A' for Active; 'I' for Inactive)
REMARK    1  A    between atoms: O_1  and  C_2
REMARK    2  A    between atoms: C_2  and  C_4
REMARK    3  A    between atoms: C_4  and  N_5
REMARK    4  A    between atoms: N_5  and  C_6
REMARK    5  A    between atoms: N_5  and  C_17
REMARK    6  A    between atoms: C_6  and  C_7
REMARK    7  A    between atoms: C_7  and  N_8
REMARK    8  A    between atoms: N_8  and  C_9
REMARK    9  A    between atoms: N_8  and  C_13
REMARK   10  A    between atoms: C_9  and  C_10
REMARK   11  A    between atoms: C_10  and  O_11
REMARK   12  A    between atoms: C_13  and  C_14
REMARK   13  A    between atoms: C_14  and  O_15
REMARK   14  A    between atoms: C_17  and  C_18
REMARK   15  A    between atoms: C_18  and  O_19
REMARK                            x       y       z     vdW  Elec       q    Type
REMARK                         _______ _______ _______ _____ _____    ______ ____
ROOT
ATOM      1  C   UNL     1       6.554  -1.645  23.662  0.00  0.00    +0.101 C 
ENDROOT
BRANCH   1   2
ATOM      2  N   UNL     1       7.725  -1.027  22.936  0.00  0.00    -0.281 NA
BRANCH   2   3
ATOM      3  C   UNL     1       8.934  -1.109  23.848  0.00  0.00    +0.206 C 
BRANCH   3   4
ATOM      4  C   UNL     1      10.030  -2.017  23.291  0.00  0.00    +0.319 C 
ATOM      5  O   UNL     1      10.696  -1.756  22.302  0.00  0.00    -0.250 OA
BRANCH   4   6
ATOM      6  O   UNL     1      10.166  -3.171  23.986  0.00  0.00    -0.480 OA
ATOM      7  H   UNL     1      10.801  -3.038  24.720  0.00  0.00    +0.295 HD
ENDBRANCH   4   6
ENDBRANCH   3   4
ENDBRANCH   2   3
BRANCH   2   8
ATOM      8  C   UNL     1       7.408   0.441  22.745  0.00  0.00    +0.206 C 
BRANCH   8   9
ATOM      9  C   UNL     1       8.556   1.238  22.138  0.00  0.00    +0.319 C 
ATOM     10  O   UNL     1       8.947   2.308  22.576  0.00  0.00    -0.250 OA
BRANCH   9  11
ATOM     11  O   UNL     1       9.063   0.668  21.021  0.00  0.00    -0.480 OA
ATOM     12  H   UNL     1       8.348   0.225  20.520  0.00  0.00    +0.295 HD
ENDBRANCH   9  11
ENDBRANCH   8   9
ENDBRANCH   2   8
ENDBRANCH   1   2
BRANCH   1  13
ATOM     13  C   UNL     1       6.913  -2.288  25.036  0.00  0.00    +0.101 C 
BRANCH  13  14
ATOM     14  N   UNL     1       7.247  -3.756  25.028  0.00  0.00    -0.281 NA
BRANCH  14  15
ATOM     15  C   UNL     1       6.576  -4.363  23.807  0.00  0.00    +0.206 C 
BRANCH  15  16
ATOM     16  C   UNL     1       7.484  -5.337  23.059  0.00  0.00    +0.319 C 
ATOM     17  O   UNL     1       7.181  -5.897  22.018  0.00  0.00    -0.250 OA
BRANCH  16  18
ATOM     18  O   UNL     1       8.666  -5.541  23.687  0.00  0.00    -0.480 OA
ATOM     19  H   UNL     1       8.506  -5.830  24.607  0.00  0.00    +0.295 HD
ENDBRANCH  16  18
ENDBRANCH  15  16
ENDBRANCH  14  15
BRANCH  14  20
ATOM     20  C   UNL     1       6.604  -4.392  26.239  0.00  0.00    +0.206 C 
BRANCH  20  21
ATOM     21  C   UNL     1       7.571  -5.272  27.025  0.00  0.00    +0.319 C 
ATOM     22  O   UNL     1       7.255  -5.934  28.001  0.00  0.00    -0.250 OA
BRANCH  21  23
ATOM     23  O   UNL     1       8.840  -5.195  26.562  0.00  0.00    -0.480 OA
ATOM     24  H   UNL     1       9.347  -5.978  26.866  0.00  0.00    +0.295 HD
ENDBRANCH  21  23
ENDBRANCH  20  21
ENDBRANCH  14  20
ENDBRANCH  13  14
ENDBRANCH   1  13
TORSDOF 15
ENDMDL
MODEL 6
REMARK VINA RESULT:      -5.4      2.027      6.803
REMARK  Name = 
REMARK  15 active torsions:
REMARK  status: ('A' for Active; 'I' for Inactive)
REMARK    1  A    between atoms: O_1  and  C_2
REMARK    2  A    between atoms: C_2  and  C_4
REMARK    3  A    between atoms: C_4  and  N_5
REMARK    4  A    between atoms: N_5  and  C_6
REMARK    5  A    between atoms: N_5  and  C_17
REMARK    6  A    between atoms: C_6  and  C_7
REMARK    7  A    between atoms: C_7  and  N_8
REMARK    8  A    between atoms: N_8  and  C_9
REMARK    9  A    between atoms: N_8  and  C_13
REMARK   10  A    between atoms: C_9  and  C_10
REMARK   11  A    between atoms: C_10  and  O_11
REMARK   12  A    between atoms: C_13  and  C_14
REMARK   13  A    between atoms: C_14  and  O_15
REMARK   14  A    between atoms: C_17  and  C_18
REMARK   15  A    between atoms: C_18  and  O_19
REMARK                            x       y       z     vdW  Elec       q    Type
REMARK                         _______ _______ _______ _____ _____    ______ ____
ROOT
ATOM      1  C   UNL     1       9.684  -2.404  23.702  0.00  0.00    +0.101 C 
ENDROOT
BRANCH   1   2
ATOM      2  N   UNL     1       8.311  -3.015  23.841  0.00  0.00    -0.281 NA
BRANCH   2   3
ATOM      3  C   UNL     1       8.488  -4.490  24.149  0.00  0.00    +0.206 C 
BRANCH   3   4
ATOM      4  C   UNL     1       9.226  -4.732  25.465  0.00  0.00    +0.319 C 
ATOM      5  O   UNL     1       8.899  -4.238  26.532  0.00  0.00    -0.250 OA
BRANCH   4   6
ATOM      6  O   UNL     1      10.315  -5.525  25.324  0.00  0.00    -0.480 OA
ATOM      7  H   UNL     1      10.215  -6.076  24.520  0.00  0.00    +0.295 HD
ENDBRANCH   4   6
ENDBRANCH   3   4
ENDBRANCH   2   3
BRANCH   2   8
ATOM      8  C   UNL     1       7.640  -2.919  22.488  0.00  0.00    +0.206 C 
BRANCH   8   9
ATOM      9  C   UNL     1       6.119  -2.987  22.556  0.00  0.00    +0.319 C 
ATOM     10  O   UNL     1       5.419  -3.446  21.668  0.00  0.00    -0.250 OA
BRANCH   9  11
ATOM     11  O   UNL     1       5.614  -2.427  23.679  0.00  0.00    -0.480 OA
ATOM     12  H   UNL     1       6.300  -2.407  24.377  0.00  0.00    +0.295 HD
ENDBRANCH   9  11
ENDBRANCH   8   9
ENDBRANCH   2   8
ENDBRANCH   1   2
BRANCH   1  13
ATOM     13  C   UNL     1       9.859  -1.037  24.431  0.00  0.00    +0.101 C 
BRANCH  13  14
ATOM     14  N   UNL     1       9.501   0.198  23.647  0.00  0.00    -0.281 NA
BRANCH  14  15
ATOM     15  C   UNL     1      10.590   1.226  23.905  0.00  0.00    +0.206 C 
BRANCH  15  16
ATOM     16  C   UNL     1      10.430   2.481  23.050  0.00  0.00    +0.319 C 
ATOM     17  O   UNL     1      10.470   3.619  23.487  0.00  0.00    -0.250 OA
BRANCH  16  18
ATOM     18  O   UNL     1      10.212   2.202  21.743  0.00  0.00    -0.480 OA
ATOM     19  H   UNL     1      11.061   2.010  21.300  0.00  0.00    +0.295 HD
ENDBRANCH  16  18
ENDBRANCH  15  16
ENDBRANCH  14  15
BRANCH  14  20
ATOM     20  C   UNL     1       8.222   0.765  24.219  0.00  0.00    +0.206 C 
BRANCH  20  21
ATOM     21  C   UNL     1       7.110   0.874  23.180  0.00  0.00    +0.319 C 
ATOM     22  O   UNL     1       7.251   1.374  22.076  0.00  0.00    -0.250 OA
BRANCH  21  23
ATOM     23  O   UNL     1       5.923   0.411  23.637  0.00  0.00    -0.480 OA
ATOM     24  H   UNL     1       6.056  -0.458  24.071  0.00  0.00    +0.295 HD
ENDBRANCH  21  23
ENDBRANCH  20  21
ENDBRANCH  14  20
ENDBRANCH  13  14
ENDBRANCH   1  13
TORSDOF 15
ENDMDL
MODEL 7
REMARK VINA RESULT:      -5.4      2.597      6.165
REMARK  Name = 
REMARK  15 active torsions:
REMARK  status: ('A' for Active; 'I' for Inactive)
REMARK    1  A    between atoms: O_1  and  C_2
REMARK    2  A    between atoms: C_2  and  C_4
REMARK    3  A    between atoms: C_4  and  N_5
REMARK    4  A    between atoms: N_5  and  C_6
REMARK    5  A    between atoms: N_5  and  C_17
REMARK    6  A    between atoms: C_6  and  C_7
REMARK    7  A    between atoms: C_7  and  N_8
REMARK    8  A    between atoms: N_8  and  C_9
REMARK    9  A    between atoms: N_8  and  C_13
REMARK   10  A    between atoms: C_9  and  C_10
REMARK   11  A    between atoms: C_10  and  O_11
REMARK   12  A    between atoms: C_13  and  C_14
REMARK   13  A    between atoms: C_14  and  O_15
REMARK   14  A    between atoms: C_17  and  C_18
REMARK   15  A    between atoms: C_18  and  O_19
REMARK                            x       y       z     vdW  Elec       q    Type
REMARK                         _______ _______ _______ _____ _____    ______ ____
ROOT
ATOM      1  C   UNL     1       5.041  -3.092  24.548  0.00  0.00    +0.101 C 
ENDROOT
BRANCH   1   2
ATOM      2  N   UNL     1       5.355  -4.524  24.188  0.00  0.00    -0.281 NA
BRANCH   2   3
ATOM      3  C   UNL     1       5.408  -4.621  22.675  0.00  0.00    +0.206 C 
BRANCH   3   4
ATOM      4  C   UNL     1       6.728  -5.203  22.169  0.00  0.00    +0.319 C 
ATOM      5  O   UNL     1       6.859  -5.769  21.096  0.00  0.00    -0.250 OA
BRANCH   4   6
ATOM      6  O   UNL     1       7.742  -5.066  23.056  0.00  0.00    -0.480 OA
ATOM      7  H   UNL     1       8.393  -5.785  22.923  0.00  0.00    +0.295 HD
ENDBRANCH   4   6
ENDBRANCH   3   4
ENDBRANCH   2   3
BRANCH   2   8
ATOM      8  C   UNL     1       4.185  -5.367  24.648  0.00  0.00    +0.206 C 
BRANCH   8   9
ATOM      9  C   UNL     1       4.590  -6.747  25.152  0.00  0.00    +0.319 C 
ATOM     10  O   UNL     1       5.193  -6.940  26.194  0.00  0.00    -0.250 OA
BRANCH   9  11
ATOM     11  O   UNL     1       4.265  -7.739  24.291  0.00  0.00    -0.480 OA
ATOM     12  H   UNL     1       4.794  -8.538  24.490  0.00  0.00    +0.295 HD
ENDBRANCH   9  11
ENDBRANCH   8   9
ENDBRANCH   2   8
ENDBRANCH   1   2
BRANCH   1  13
ATOM     13  C   UNL     1       6.210  -2.330  25.244  0.00  0.00    +0.101 C 
BRANCH  13  14
ATOM     14  N   UNL     1       7.538  -3.037  25.302  0.00  0.00    -0.281 NA
BRANCH  14  15
ATOM     15  C   UNL     1       7.641  -3.689  26.671  0.00  0.00    +0.206 C 
BRANCH  15  16
ATOM     16  C   UNL     1       8.084  -5.149  26.596  0.00  0.00    +0.319 C 
ATOM     17  O   UNL     1       8.738  -5.621  25.681  0.00  0.00    -0.250 OA
BRANCH  16  18
ATOM     18  O   UNL     1       7.652  -5.884  27.647  0.00  0.00    -0.480 OA
ATOM     19  H   UNL     1       8.418  -6.243  28.136  0.00  0.00    +0.295 HD
ENDBRANCH  16  18
ENDBRANCH  15  16
ENDBRANCH  14  15
BRANCH  14  20
ATOM     20  C   UNL     1       8.630  -1.994  25.232  0.00  0.00    +0.206 C 
BRANCH  20  21
ATOM     21  C   UNL     1       9.657  -2.288  24.143  0.00  0.00    +0.319 C 
ATOM     22  O   UNL     1      10.042  -1.468  23.327  0.00  0.00    -0.250 OA
BRANCH  21  23
ATOM     23  O   UNL     1      10.054  -3.582  24.137  0.00  0.00    -0.480 OA
ATOM     24  H   UNL     1      10.219  -3.869  23.214  0.00  0.00    +0.295 HD
ENDBRANCH  21  23
ENDBRANCH  20  21
ENDBRANCH  14  20
ENDBRANCH  13  14
ENDBRANCH   1  13
TORSDOF 15
ENDMDL
MODEL 8
REMARK VINA RESULT:      -5.4      1.076      3.060
REMARK  Name = 
REMARK  15 active torsions:
REMARK  status: ('A' for Active; 'I' for Inactive)
REMARK    1  A    between atoms: O_1  and  C_2
REMARK    2  A    between atoms: C_2  and  C_4
REMARK    3  A    between atoms: C_4  and  N_5
REMARK    4  A    between atoms: N_5  and  C_6
REMARK    5  A    between atoms: N_5  and  C_17
REMARK    6  A    between atoms: C_6  and  C_7
REMARK    7  A    between atoms: C_7  and  N_8
REMARK    8  A    between atoms: N_8  and  C_9
REMARK    9  A    between atoms: N_8  and  C_13
REMARK   10  A    between atoms: C_9  and  C_10
REMARK   11  A    between atoms: C_10  and  O_11
REMARK   12  A    between atoms: C_13  and  C_14
REMARK   13  A    between atoms: C_14  and  O_15
REMARK   14  A    between atoms: C_17  and  C_18
REMARK   15  A    between atoms: C_18  and  O_19
REMARK                            x       y       z     vdW  Elec       q    Type
REMARK                         _______ _______ _______ _____ _____    ______ ____
ROOT
ATOM      1  C   UNL     1       8.588  -2.091  22.478  0.00  0.00    +0.101 C 
ENDROOT
BRANCH   1   2
ATOM      2  N   UNL     1       9.020  -0.682  22.803  0.00  0.00    -0.281 NA
BRANCH   2   3
ATOM      3  C   UNL     1       9.418  -0.007  21.504  0.00  0.00    +0.206 C 
BRANCH   3   4
ATOM      4  C   UNL     1       9.025   1.470  21.464  0.00  0.00    +0.319 C 
ATOM      5  O   UNL     1       7.884   1.869  21.299  0.00  0.00    -0.250 OA
BRANCH   4   6
ATOM      6  O   UNL     1      10.085   2.303  21.591  0.00  0.00    -0.480 OA
ATOM      7  H   UNL     1      10.152   2.870  20.796  0.00  0.00    +0.295 HD
ENDBRANCH   4   6
ENDBRANCH   3   4
ENDBRANCH   2   3
BRANCH   2   8
ATOM      8  C   UNL     1      10.268  -0.782  23.654  0.00  0.00    +0.206 C 
BRANCH   8   9
ATOM      9  C   UNL     1      10.454   0.394  24.604  0.00  0.00    +0.319 C 
ATOM     10  O   UNL     1      11.040   1.422  24.307  0.00  0.00    -0.250 OA
BRANCH   9  11
ATOM     11  O   UNL     1       9.954   0.160  25.839  0.00  0.00    -0.480 OA
ATOM     12  H   UNL     1       9.742  -0.790  25.937  0.00  0.00    +0.295 HD
ENDBRANCH   9  11
ENDBRANCH   8   9
ENDBRANCH   2   8
ENDBRANCH   1   2
BRANCH   1  13
ATOM     13  C   UNL     1       8.690  -3.089  23.671  0.00  0.00    +0.101 C 
BRANCH  13  14
ATOM     14  N   UNL     1       7.550  -4.058  23.843  0.00  0.00    -0.281 NA
BRANCH  14  15
ATOM     15  C   UNL     1       8.053  -5.195  24.717  0.00  0.00    +0.206 C 
BRANCH  15  16
ATOM     16  C   UNL     1       7.228  -5.368  25.990  0.00  0.00    +0.319 C 
ATOM     17  O   UNL     1       6.049  -5.071  26.089  0.00  0.00    -0.250 OA
BRANCH  16  18
ATOM     18  O   UNL     1       7.950  -5.867  27.021  0.00  0.00    -0.480 OA
ATOM     19  H   UNL     1       8.473  -6.634  26.716  0.00  0.00    +0.295 HD
ENDBRANCH  16  18
ENDBRANCH  15  16
ENDBRANCH  14  15
BRANCH  14  20
ATOM     20  C   UNL     1       7.232  -4.654  22.491  0.00  0.00    +0.206 C 
BRANCH  20  21
ATOM     21  C   UNL     1       5.749  -4.570  22.144  0.00  0.00    +0.319 C 
ATOM     22  O   UNL     1       4.990  -5.525  22.149  0.00  0.00    -0.250 OA
BRANCH  21  23
ATOM     23  O   UNL     1       5.372  -3.326  21.765  0.00  0.00    -0.480 OA
ATOM     24  H   UNL     1       5.328  -2.744  22.553  0.00  0.00    +0.295 HD
ENDBRANCH  21  23
ENDBRANCH  20  21
ENDBRANCH  14  20
ENDBRANCH  13  14
ENDBRANCH   1  13
TORSDOF 15
ENDMDL
MODEL 9
REMARK VINA RESULT:      -5.4      1.086      6.552
REMARK  Name = 
REMARK  15 active torsions:
REMARK  status: ('A' for Active; 'I' for Inactive)
REMARK    1  A    between atoms: O_1  and  C_2
REMARK    2  A    between atoms: C_2  and  C_4
REMARK    3  A    between atoms: C_4  and  N_5
REMARK    4  A    between atoms: N_5  and  C_6
REMARK    5  A    between atoms: N_5  and  C_17
REMARK    6  A    between atoms: C_6  and  C_7
REMARK    7  A    between atoms: C_7  and  N_8
REMARK    8  A    between atoms: N_8  and  C_9
REMARK    9  A    between atoms: N_8  and  C_13
REMARK   10  A    between atoms: C_9  and  C_10
REMARK   11  A    between atoms: C_10  and  O_11
REMARK   12  A    between atoms: C_13  and  C_14
REMARK   13  A    between atoms: C_14  and  O_15
REMARK   14  A    between atoms: C_17  and  C_18
REMARK   15  A    between atoms: C_18  and  O_19
REMARK                            x       y       z     vdW  Elec       q    Type
REMARK                         _______ _______ _______ _____ _____    ______ ____
ROOT
ATOM      1  C   UNL     1       8.149  -2.587  22.974  0.00  0.00    +0.101 C 
ENDROOT
BRANCH   1   2
ATOM      2  N   UNL     1       8.254  -3.999  23.496  0.00  0.00    -0.281 NA
BRANCH   2   3
ATOM      3  C   UNL     1       6.880  -4.634  23.398  0.00  0.00    +0.206 C 
BRANCH   3   4
ATOM      4  C   UNL     1       6.463  -4.914  21.955  0.00  0.00    +0.319 C 
ATOM      5  O   UNL     1       5.494  -4.408  21.413  0.00  0.00    -0.250 OA
BRANCH   4   6
ATOM      6  O   UNL     1       7.260  -5.821  21.340  0.00  0.00    -0.480 OA
ATOM      7  H   UNL     1       6.875  -6.716  21.441  0.00  0.00    +0.295 HD
ENDBRANCH   4   6
ENDBRANCH   3   4
ENDBRANCH   2   3
BRANCH   2   8
ATOM      8  C   UNL     1       8.599  -3.907  24.967  0.00  0.00    +0.206 C 
BRANCH   8   9
ATOM      9  C   UNL     1       8.808  -5.263  25.630  0.00  0.00    +0.319 C 
ATOM     10  O   UNL     1       8.046  -5.741  26.455  0.00  0.00    -0.250 OA
BRANCH   9  11
ATOM     11  O   UNL     1       9.963  -5.861  25.258  0.00  0.00    -0.480 OA
ATOM     12  H   UNL     1       9.772  -6.731  24.854  0.00  0.00    +0.295 HD
ENDBRANCH   9  11
ENDBRANCH   8   9
ENDBRANCH   2   8
ENDBRANCH   1   2
BRANCH   1  13
ATOM     13  C   UNL     1       9.490  -1.992  22.447  0.00  0.00    +0.101 C 
BRANCH  13  14
ATOM     14  N   UNL     1       9.837  -0.599  22.901  0.00  0.00    -0.281 NA
BRANCH  14  15
ATOM     15  C   UNL     1       8.839  -0.217  23.982  0.00  0.00    +0.206 C 
BRANCH  15  16
ATOM     16  C   UNL     1       9.475  -0.138  25.368  0.00  0.00    +0.319 C 
ATOM     17  O   UNL     1       9.000  -0.646  26.371  0.00  0.00    -0.250 OA
BRANCH  16  18
ATOM     18  O   UNL     1      10.622   0.581  25.381  0.00  0.00    -0.480 OA
ATOM     19  H   UNL     1      10.461   1.466  25.000  0.00  0.00    +0.295 HD
ENDBRANCH  16  18
ENDBRANCH  15  16
ENDBRANCH  14  15
BRANCH  14  20
ATOM     20  C   UNL     1       9.607   0.344  21.743  0.00  0.00    +0.206 C 
BRANCH  20  21
ATOM     21  C   UNL     1       9.803   1.808  22.127  0.00  0.00    +0.319 C 
ATOM     22  O   UNL     1      10.692   2.209  22.861  0.00  0.00    -0.250 OA
BRANCH  21  23
ATOM     23  O   UNL     1       8.845   2.614  21.615  0.00  0.00    -0.480 OA
ATOM     24  H   UNL     1       9.028   3.543  21.870  0.00  0.00    +0.295 HD
ENDBRANCH  21  23
ENDBRANCH  20  21
ENDBRANCH  14  20
ENDBRANCH  13  14
ENDBRANCH   1  13
TORSDOF 15
ENDMDL
