MODEL 1
REMARK VINA RESULT:      -6.6      0.000      0.000
REMARK  Name = 
REMARK  5 active torsions:
REMARK  status: ('A' for Active; 'I' for Inactive)
REMARK    1  A    between atoms: O_1  and  C_2
REMARK    2  A    between atoms: C_4  and  C_18
REMARK    3  A    between atoms: C_6  and  S_7
REMARK    4  A    between atoms: S_7  and  C_8
REMARK    5  A    between atoms: C_8  and  C_9
REMARK                            x       y       z     vdW  Elec       q    Type
REMARK                         _______ _______ _______ _____ _____    ______ ____
ROOT
ATOM      1  C   UNL     1       5.544  -6.405  26.367  0.00  0.00    +0.217 A 
ATOM      2  N   UNL     1       6.788  -5.989  26.620  0.00  0.00    -0.187 NA
ATOM      3  C   UNL     1       7.341  -5.210  25.683  0.00  0.00    +0.192 A 
ATOM      4  N   UNL     1       6.756  -4.881  24.519  0.00  0.00    -0.218 NA
ATOM      5  C   UNL     1       5.491  -5.322  24.302  0.00  0.00    +0.151 A 
ATOM      6  C   UNL     1       4.836  -6.108  25.230  0.00  0.00    +0.099 A 
ENDROOT
BRANCH   5   7
ATOM      7  C   UNL     1       4.797  -4.936  23.007  0.00  0.00    +0.434 C 
ATOM      8  F   UNL     1       3.451  -5.141  23.037  0.00  0.00    -0.164 F 
ATOM      9  F   UNL     1       5.264  -5.612  21.921  0.00  0.00    -0.164 F 
ATOM     10  F   UNL     1       4.952  -3.611  22.701  0.00  0.00    -0.164 F 
ENDBRANCH   5   7
BRANCH   1  11
ATOM     11  O   UNL     1       4.997  -7.187  27.345  0.00  0.00    -0.492 OA
ATOM     12  H   UNL     1       5.007  -8.112  27.055  0.00  0.00    +0.294 HD
ENDBRANCH   1  11
BRANCH   3  13
ATOM     13  S   UNL     1       9.003  -4.629  25.907  0.00  0.00    -0.077 S 
BRANCH  13  14
ATOM     14  C   UNL     1       9.143  -3.477  24.508  0.00  0.00    +0.173 C 
BRANCH  14  15
ATOM     15  C   UNL     1       9.059  -2.003  24.901  0.00  0.00    +0.226 C 
ATOM     16  N   UNL     1       9.481  -1.072  23.942  0.00  0.00    -0.301 N 
ATOM     17  C   UNL     1       9.752   0.293  24.393  0.00  0.00    +0.108 C 
ATOM     18  C   UNL     1       9.350   1.342  23.360  0.00  0.00    +0.019 C 
ATOM     19  C   UNL     1       9.916   1.021  21.981  0.00  0.00    +0.003 C 
ATOM     20  C   UNL     1       9.534  -0.397  21.569  0.00  0.00    +0.019 C 
ATOM     21  C   UNL     1       9.991  -1.414  22.612  0.00  0.00    +0.108 C 
ATOM     22  O   UNL     1       8.641  -1.631  25.999  0.00  0.00    -0.275 OA
ENDBRANCH  14  15
ENDBRANCH  13  14
ENDBRANCH   3  13
TORSDOF 5
ENDMDL
MODEL 2
REMARK VINA RESULT:      -6.6      2.445      2.835
REMARK  Name = 
REMARK  5 active torsions:
REMARK  status: ('A' for Active; 'I' for Inactive)
REMARK    1  A    between atoms: O_1  and  C_2
REMARK    2  A    between atoms: C_4  and  C_18
REMARK    3  A    between atoms: C_6  and  S_7
REMARK    4  A    between atoms: S_7  and  C_8
REMARK    5  A    between atoms: C_8  and  C_9
REMARK                            x       y       z     vdW  Elec       q    Type
REMARK                         _______ _______ _______ _____ _____    ______ ____
ROOT
ATOM      1  C   UNL     1       9.128  -4.923  25.301  0.00  0.00    +0.217 A 
ATOM      2  N   UNL     1       8.769  -3.898  26.079  0.00  0.00    -0.187 NA
ATOM      3  C   UNL     1       7.737  -3.168  25.637  0.00  0.00    +0.192 A 
ATOM      4  N   UNL     1       7.102  -3.369  24.470  0.00  0.00    -0.218 NA
ATOM      5  C   UNL     1       7.495  -4.424  23.712  0.00  0.00    +0.151 A 
ATOM      6  C   UNL     1       8.533  -5.244  24.107  0.00  0.00    +0.099 A 
ENDROOT
BRANCH   5   7
ATOM      7  C   UNL     1       6.770  -4.690  22.404  0.00  0.00    +0.434 C 
ATOM      8  F   UNL     1       6.658  -3.584  21.616  0.00  0.00    -0.164 F 
ATOM      9  F   UNL     1       5.506  -5.170  22.573  0.00  0.00    -0.164 F 
ATOM     10  F   UNL     1       7.407  -5.620  21.628  0.00  0.00    -0.164 F 
ENDBRANCH   5   7
BRANCH   1  11
ATOM     11  O   UNL     1      10.173  -5.661  25.781  0.00  0.00    -0.492 OA
ATOM     12  H   UNL     1      10.829  -5.065  26.171  0.00  0.00    +0.294 HD
ENDBRANCH   1  11
BRANCH   3  13
ATOM     13  S   UNL     1       7.202  -1.763  26.579  0.00  0.00    -0.077 S 
BRANCH  13  14
ATOM     14  C   UNL     1       8.643  -0.671  26.395  0.00  0.00    +0.173 C 
BRANCH  14  15
ATOM     15  C   UNL     1       8.438   0.476  25.407  0.00  0.00    +0.226 C 
ATOM     16  N   UNL     1       8.910   0.274  24.103  0.00  0.00    -0.301 N 
ATOM     17  C   UNL     1       9.056   1.449  23.244  0.00  0.00    +0.108 C 
ATOM     18  C   UNL     1       8.711   1.154  21.787  0.00  0.00    +0.019 C 
ATOM     19  C   UNL     1       9.439  -0.083  21.273  0.00  0.00    +0.003 C 
ATOM     20  C   UNL     1       9.181  -1.269  22.197  0.00  0.00    +0.019 C 
ATOM     21  C   UNL     1       9.577  -0.943  23.635  0.00  0.00    +0.108 C 
ATOM     22  O   UNL     1       7.884   1.531  25.721  0.00  0.00    -0.275 OA
ENDBRANCH  14  15
ENDBRANCH  13  14
ENDBRANCH   3  13
TORSDOF 5
ENDMDL
MODEL 3
REMARK VINA RESULT:      -6.5      3.027      3.712
REMARK  Name = 
REMARK  5 active torsions:
REMARK  status: ('A' for Active; 'I' for Inactive)
REMARK    1  A    between atoms: O_1  and  C_2
REMARK    2  A    between atoms: C_4  and  C_18
REMARK    3  A    between atoms: C_6  and  S_7
REMARK    4  A    between atoms: S_7  and  C_8
REMARK    5  A    between atoms: C_8  and  C_9
REMARK                            x       y       z     vdW  Elec       q    Type
REMARK                         _______ _______ _______ _____ _____    ______ ____
ROOT
ATOM      1  C   UNL     1       9.231  -5.257  25.252  0.00  0.00    +0.217 A 
ATOM      2  N   UNL     1       8.681  -4.993  24.063  0.00  0.00    -0.187 NA
ATOM      3  C   UNL     1       7.349  -4.860  24.057  0.00  0.00    +0.192 A 
ATOM      4  N   UNL     1       6.558  -5.028  25.130  0.00  0.00    -0.218 NA
ATOM      5  C   UNL     1       7.157  -5.292  26.319  0.00  0.00    +0.151 A 
ATOM      6  C   UNL     1       8.528  -5.417  26.420  0.00  0.00    +0.099 A 
ENDROOT
BRANCH   5   7
ATOM      7  C   UNL     1       6.286  -5.453  27.553  0.00  0.00    +0.434 C 
ATOM      8  F   UNL     1       5.108  -6.090  27.300  0.00  0.00    -0.164 F 
ATOM      9  F   UNL     1       5.961  -4.269  28.145  0.00  0.00    -0.164 F 
ATOM     10  F   UNL     1       6.891  -6.191  28.532  0.00  0.00    -0.164 F 
ENDBRANCH   5   7
BRANCH   1  11
ATOM     11  O   UNL     1      10.592  -5.373  25.235  0.00  0.00    -0.492 OA
ATOM     12  H   UNL     1      10.987  -4.494  25.337  0.00  0.00    +0.294 HD
ENDBRANCH   1  11
BRANCH   3  13
ATOM     13  S   UNL     1       6.517  -4.540  22.523  0.00  0.00    -0.077 S 
BRANCH  13  14
ATOM     14  C   UNL     1       7.138  -2.872  22.151  0.00  0.00    +0.173 C 
BRANCH  14  15
ATOM     15  C   UNL     1       7.026  -1.889  23.314  0.00  0.00    +0.226 C 
ATOM     16  N   UNL     1       8.221  -1.314  23.768  0.00  0.00    -0.301 N 
ATOM     17  C   UNL     1       8.207  -0.662  25.078  0.00  0.00    +0.108 C 
ATOM     18  C   UNL     1       9.098   0.576  25.125  0.00  0.00    +0.019 C 
ATOM     19  C   UNL     1      10.496   0.286  24.592  0.00  0.00    +0.003 C 
ATOM     20  C   UNL     1      10.414  -0.335  23.201  0.00  0.00    +0.019 C 
ATOM     21  C   UNL     1       9.547  -1.592  23.210  0.00  0.00    +0.108 C 
ATOM     22  O   UNL     1       5.948  -1.600  23.838  0.00  0.00    -0.275 OA
ENDBRANCH  14  15
ENDBRANCH  13  14
ENDBRANCH   3  13
TORSDOF 5
ENDMDL
MODEL 4
REMARK VINA RESULT:      -6.5      3.893      7.046
REMARK  Name = 
REMARK  5 active torsions:
REMARK  status: ('A' for Active; 'I' for Inactive)
REMARK    1  A    between atoms: O_1  and  C_2
REMARK    2  A    between atoms: C_4  and  C_18
REMARK    3  A    between atoms: C_6  and  S_7
REMARK    4  A    between atoms: S_7  and  C_8
REMARK    5  A    between atoms: C_8  and  C_9
REMARK                            x       y       z     vdW  Elec       q    Type
REMARK                         _______ _______ _______ _____ _____    ______ ____
ROOT
ATOM      1  C   UNL     1       9.938  -0.862  22.562  0.00  0.00    +0.217 A 
ATOM      2  N   UNL     1       9.501  -1.561  23.613  0.00  0.00    -0.187 NA
ATOM      3  C   UNL     1       9.119  -0.838  24.673  0.00  0.00    +0.192 A 
ATOM      4  N   UNL     1       9.202   0.500  24.756  0.00  0.00    -0.218 NA
ATOM      5  C   UNL     1       9.649   1.173  23.666  0.00  0.00    +0.151 A 
ATOM      6  C   UNL     1      10.037   0.507  22.520  0.00  0.00    +0.099 A 
ENDROOT
BRANCH   5   7
ATOM      7  C   UNL     1       9.721   2.689  23.725  0.00  0.00    +0.434 C 
ATOM      8  F   UNL     1       9.009   3.300  22.737  0.00  0.00    -0.164 F 
ATOM      9  F   UNL     1      10.991   3.175  23.638  0.00  0.00    -0.164 F 
ATOM     10  F   UNL     1       9.221   3.195  24.894  0.00  0.00    -0.164 F 
ENDBRANCH   5   7
BRANCH   1  11
ATOM     11  O   UNL     1      10.308  -1.621  21.488  0.00  0.00    -0.492 OA
ATOM     12  H   UNL     1      10.803  -1.069  20.865  0.00  0.00    +0.294 HD
ENDBRANCH   1  11
BRANCH   3  13
ATOM     13  S   UNL     1       8.551  -1.672  26.132  0.00  0.00    -0.077 S 
BRANCH  13  14
ATOM     14  C   UNL     1       8.652  -3.403  25.586  0.00  0.00    +0.173 C 
BRANCH  14  15
ATOM     15  C   UNL     1       7.318  -4.147  25.612  0.00  0.00    +0.226 C 
ATOM     16  N   UNL     1       6.831  -4.607  24.382  0.00  0.00    -0.301 N 
ATOM     17  C   UNL     1       5.422  -4.996  24.311  0.00  0.00    +0.108 C 
ATOM     18  C   UNL     1       5.190  -6.190  23.390  0.00  0.00    +0.019 C 
ATOM     19  C   UNL     1       5.846  -5.989  22.028  0.00  0.00    +0.003 C 
ATOM     20  C   UNL     1       7.323  -5.647  22.199  0.00  0.00    +0.019 C 
ATOM     21  C   UNL     1       7.505  -4.423  23.094  0.00  0.00    +0.108 C 
ATOM     22  O   UNL     1       6.689  -4.344  26.654  0.00  0.00    -0.275 OA
ENDBRANCH  14  15
ENDBRANCH  13  14
ENDBRANCH   3  13
TORSDOF 5
ENDMDL
MODEL 5
REMARK VINA RESULT:      -6.4      3.542      6.371
REMARK  Name = 
REMARK  5 active torsions:
REMARK  status: ('A' for Active; 'I' for Inactive)
REMARK    1  A    between atoms: O_1  and  C_2
REMARK    2  A    between atoms: C_4  and  C_18
REMARK    3  A    between atoms: C_6  and  S_7
REMARK    4  A    between atoms: S_7  and  C_8
REMARK    5  A    between atoms: C_8  and  C_9
REMARK                            x       y       z     vdW  Elec       q    Type
REMARK                         _______ _______ _______ _____ _____    ______ ____
ROOT
ATOM      1  C   UNL     1       6.426   0.756  23.991  0.00  0.00    +0.217 A 
ATOM      2  N   UNL     1       6.830  -0.001  25.015  0.00  0.00    -0.187 NA
ATOM      3  C   UNL     1       8.074  -0.489  24.920  0.00  0.00    +0.192 A 
ATOM      4  N   UNL     1       8.887  -0.311  23.865  0.00  0.00    -0.218 NA
ATOM      5  C   UNL     1       8.439   0.467  22.848  0.00  0.00    +0.151 A 
ATOM      6  C   UNL     1       7.179   1.032  22.877  0.00  0.00    +0.099 A 
ENDROOT
BRANCH   5   7
ATOM      7  C   UNL     1       9.353   0.708  21.659  0.00  0.00    +0.434 C 
ATOM      8  F   UNL     1      10.096  -0.382  21.323  0.00  0.00    -0.164 F 
ATOM      9  F   UNL     1      10.234   1.729  21.852  0.00  0.00    -0.164 F 
ATOM     10  F   UNL     1       8.664   1.038  20.524  0.00  0.00    -0.164 F 
ENDBRANCH   5   7
BRANCH   1  11
ATOM     11  O   UNL     1       5.159   1.253  24.117  0.00  0.00    -0.492 OA
ATOM     12  H   UNL     1       5.172   2.205  23.934  0.00  0.00    +0.294 HD
ENDBRANCH   1  11
BRANCH   3  13
ATOM     13  S   UNL     1       8.697  -1.532  26.213  0.00  0.00    -0.077 S 
BRANCH  13  14
ATOM     14  C   UNL     1       7.776  -3.063  25.876  0.00  0.00    +0.173 C 
BRANCH  14  15
ATOM     15  C   UNL     1       8.277  -3.840  24.659  0.00  0.00    +0.226 C 
ATOM     16  N   UNL     1       7.316  -4.552  23.930  0.00  0.00    -0.301 N 
ATOM     17  C   UNL     1       7.791  -5.574  22.996  0.00  0.00    +0.108 C 
ATOM     18  C   UNL     1       6.941  -5.652  21.732  0.00  0.00    +0.019 C 
ATOM     19  C   UNL     1       5.455  -5.753  22.057  0.00  0.00    +0.003 C 
ATOM     20  C   UNL     1       5.038  -4.617  22.984  0.00  0.00    +0.019 C 
ATOM     21  C   UNL     1       5.888  -4.601  24.252  0.00  0.00    +0.108 C 
ATOM     22  O   UNL     1       9.462  -3.848  24.319  0.00  0.00    -0.275 OA
ENDBRANCH  14  15
ENDBRANCH  13  14
ENDBRANCH   3  13
TORSDOF 5
ENDMDL
MODEL 6
REMARK VINA RESULT:      -6.3      2.350      3.017
REMARK  Name = 
REMARK  5 active torsions:
REMARK  status: ('A' for Active; 'I' for Inactive)
REMARK    1  A    between atoms: O_1  and  C_2
REMARK    2  A    between atoms: C_4  and  C_18
REMARK    3  A    between atoms: C_6  and  S_7
REMARK    4  A    between atoms: S_7  and  C_8
REMARK    5  A    between atoms: C_8  and  C_9
REMARK                            x       y       z     vdW  Elec       q    Type
REMARK                         _______ _______ _______ _____ _____    ______ ____
ROOT
ATOM      1  C   UNL     1       7.890  -5.011  26.593  0.00  0.00    +0.217 A 
ATOM      2  N   UNL     1       8.228  -3.755  26.895  0.00  0.00    -0.187 NA
ATOM      3  C   UNL     1       8.214  -2.888  25.875  0.00  0.00    +0.192 A 
ATOM      4  N   UNL     1       7.943  -3.213  24.600  0.00  0.00    -0.218 NA
ATOM      5  C   UNL     1       7.600  -4.500  24.336  0.00  0.00    +0.151 A 
ATOM      6  C   UNL     1       7.563  -5.452  25.335  0.00  0.00    +0.099 A 
ENDROOT
BRANCH   5   7
ATOM      7  C   UNL     1       7.258  -4.884  22.907  0.00  0.00    +0.434 C 
ATOM      8  F   UNL     1       5.919  -5.015  22.692  0.00  0.00    -0.164 F 
ATOM      9  F   UNL     1       7.827  -6.056  22.510  0.00  0.00    -0.164 F 
ATOM     10  F   UNL     1       7.678  -3.953  21.996  0.00  0.00    -0.164 F 
ENDBRANCH   5   7
BRANCH   1  11
ATOM     11  O   UNL     1       7.897  -5.872  27.654  0.00  0.00    -0.492 OA
ATOM     12  H   UNL     1       7.041  -6.323  27.703  0.00  0.00    +0.294 HD
ENDBRANCH   1  11
BRANCH   3  13
ATOM     13  S   UNL     1       8.678  -1.201  26.163  0.00  0.00    -0.077 S 
BRANCH  13  14
ATOM     14  C   UNL     1       9.207  -0.712  24.494  0.00  0.00    +0.173 C 
BRANCH  14  15
ATOM     15  C   UNL     1      10.049   0.562  24.452  0.00  0.00    +0.226 C 
ATOM     16  N   UNL     1       9.427   1.709  23.942  0.00  0.00    -0.301 N 
ATOM     17  C   UNL     1      10.282   2.832  23.557  0.00  0.00    +0.108 C 
ATOM     18  C   UNL     1       9.644   4.185  23.858  0.00  0.00    +0.019 C 
ATOM     19  C   UNL     1       8.223   4.273  23.311  0.00  0.00    +0.003 C 
ATOM     20  C   UNL     1       7.390   3.097  23.812  0.00  0.00    +0.019 C 
ATOM     21  C   UNL     1       8.047   1.766  23.454  0.00  0.00    +0.108 C 
ATOM     22  O   UNL     1      11.217   0.599  24.845  0.00  0.00    -0.275 OA
ENDBRANCH  14  15
ENDBRANCH  13  14
ENDBRANCH   3  13
TORSDOF 5
ENDMDL
MODEL 7
REMARK VINA RESULT:      -6.2      2.229      2.600
REMARK  Name = 
REMARK  5 active torsions:
REMARK  status: ('A' for Active; 'I' for Inactive)
REMARK    1  A    between atoms: O_1  and  C_2
REMARK    2  A    between atoms: C_4  and  C_18
REMARK    3  A    between atoms: C_6  and  S_7
REMARK    4  A    between atoms: S_7  and  C_8
REMARK    5  A    between atoms: C_8  and  C_9
REMARK                            x       y       z     vdW  Elec       q    Type
REMARK                         _______ _______ _______ _____ _____    ______ ____
ROOT
ATOM      1  C   UNL     1       8.937  -5.162  24.946  0.00  0.00    +0.217 A 
ATOM      2  N   UNL     1       8.426  -4.247  25.774  0.00  0.00    -0.187 NA
ATOM      3  C   UNL     1       7.210  -3.787  25.453  0.00  0.00    +0.192 A 
ATOM      4  N   UNL     1       6.525  -4.141  24.353  0.00  0.00    -0.218 NA
ATOM      5  C   UNL     1       7.078  -5.076  23.539  0.00  0.00    +0.151 A 
ATOM      6  C   UNL     1       8.317  -5.623  23.811  0.00  0.00    +0.099 A 
ENDROOT
BRANCH   5   7
ATOM      7  C   UNL     1       6.307  -5.516  22.306  0.00  0.00    +0.434 C 
ATOM      8  F   UNL     1       6.646  -6.764  21.878  0.00  0.00    -0.164 F 
ATOM      9  F   UNL     1       6.473  -4.686  21.239  0.00  0.00    -0.164 F 
ATOM     10  F   UNL     1       4.956  -5.563  22.519  0.00  0.00    -0.164 F 
ENDBRANCH   5   7
BRANCH   1  11
ATOM     11  O   UNL     1      10.171  -5.626  25.303  0.00  0.00    -0.492 OA
ATOM     12  H   UNL     1      10.842  -4.976  25.044  0.00  0.00    +0.294 HD
ENDBRANCH   1  11
BRANCH   3  13
ATOM     13  S   UNL     1       6.456  -2.546  26.471  0.00  0.00    -0.077 S 
BRANCH  13  14
ATOM     14  C   UNL     1       6.729  -1.067  25.448  0.00  0.00    +0.173 C 
BRANCH  14  15
ATOM     15  C   UNL     1       8.180  -0.591  25.411  0.00  0.00    +0.226 C 
ATOM     16  N   UNL     1       8.649  -0.101  24.186  0.00  0.00    -0.301 N 
ATOM     17  C   UNL     1      10.097   0.025  24.013  0.00  0.00    +0.108 C 
ATOM     18  C   UNL     1      10.483   1.246  23.184  0.00  0.00    +0.019 C 
ATOM     19  C   UNL     1       9.696   1.316  21.880  0.00  0.00    +0.003 C 
ATOM     20  C   UNL     1       8.199   1.238  22.162  0.00  0.00    +0.019 C 
ATOM     21  C   UNL     1       7.853  -0.019  22.958  0.00  0.00    +0.108 C 
ATOM     22  O   UNL     1       8.915  -0.626  26.400  0.00  0.00    -0.275 OA
ENDBRANCH  14  15
ENDBRANCH  13  14
ENDBRANCH   3  13
TORSDOF 5
ENDMDL
MODEL 8
REMARK VINA RESULT:      -6.2      3.329      6.292
REMARK  Name = 
REMARK  5 active torsions:
REMARK  status: ('A' for Active; 'I' for Inactive)
REMARK    1  A    between atoms: O_1  and  C_2
REMARK    2  A    between atoms: C_4  and  C_18
REMARK    3  A    between atoms: C_6  and  S_7
REMARK    4  A    between atoms: S_7  and  C_8
REMARK    5  A    between atoms: C_8  and  C_9
REMARK                            x       y       z     vdW  Elec       q    Type
REMARK                         _______ _______ _______ _____ _____    ______ ____
ROOT
ATOM      1  C   UNL     1       6.459   0.738  23.775  0.00  0.00    +0.217 A 
ATOM      2  N   UNL     1       6.719   0.002  24.859  0.00  0.00    -0.187 NA
ATOM      3  C   UNL     1       7.915  -0.599  24.879  0.00  0.00    +0.192 A 
ATOM      4  N   UNL     1       8.813  -0.550  23.881  0.00  0.00    -0.218 NA
ATOM      5  C   UNL     1       8.512   0.211  22.799  0.00  0.00    +0.151 A 
ATOM      6  C   UNL     1       7.311   0.887  22.709  0.00  0.00    +0.099 A 
ENDROOT
BRANCH   5   7
ATOM      7  C   UNL     1       9.525   0.308  21.672  0.00  0.00    +0.434 C 
ATOM      8  F   UNL     1       8.981   0.100  20.440  0.00  0.00    -0.164 F 
ATOM      9  F   UNL     1      10.553  -0.578  21.791  0.00  0.00    -0.164 F 
ATOM     10  F   UNL     1      10.117   1.539  21.600  0.00  0.00    -0.164 F 
ENDBRANCH   5   7
BRANCH   1  11
ATOM     11  O   UNL     1       5.239   1.353  23.784  0.00  0.00    -0.492 OA
ATOM     12  H   UNL     1       4.601   0.783  24.239  0.00  0.00    +0.294 HD
ENDBRANCH   1  11
BRANCH   3  13
ATOM     13  S   UNL     1       8.346  -1.626  26.260  0.00  0.00    -0.077 S 
BRANCH  13  14
ATOM     14  C   UNL     1       8.245  -3.272  25.495  0.00  0.00    +0.173 C 
BRANCH  14  15
ATOM     15  C   UNL     1       6.819  -3.748  25.221  0.00  0.00    +0.226 C 
ATOM     16  N   UNL     1       6.573  -4.300  23.957  0.00  0.00    -0.301 N 
ATOM     17  C   UNL     1       5.178  -4.433  23.534  0.00  0.00    +0.108 C 
ATOM     18  C   UNL     1       4.934  -5.695  22.711  0.00  0.00    +0.019 C 
ATOM     19  C   UNL     1       5.942  -5.832  21.576  0.00  0.00    +0.003 C 
ATOM     20  C   UNL     1       7.365  -5.741  22.118  0.00  0.00    +0.019 C 
ATOM     21  C   UNL     1       7.575  -4.446  22.899  0.00  0.00    +0.108 C 
ATOM     22  O   UNL     1       5.919  -3.662  26.059  0.00  0.00    -0.275 OA
ENDBRANCH  14  15
ENDBRANCH  13  14
ENDBRANCH   3  13
TORSDOF 5
ENDMDL
MODEL 9
REMARK VINA RESULT:      -6.2      1.764      2.232
REMARK  Name = 
REMARK  5 active torsions:
REMARK  status: ('A' for Active; 'I' for Inactive)
REMARK    1  A    between atoms: O_1  and  C_2
REMARK    2  A    between atoms: C_4  and  C_18
REMARK    3  A    between atoms: C_6  and  S_7
REMARK    4  A    between atoms: S_7  and  C_8
REMARK    5  A    between atoms: C_8  and  C_9
REMARK                            x       y       z     vdW  Elec       q    Type
REMARK                         _______ _______ _______ _____ _____    ______ ____
ROOT
ATOM      1  C   UNL     1       6.356  -5.984  28.220  0.00  0.00    +0.217 A 
ATOM      2  N   UNL     1       7.504  -5.504  27.734  0.00  0.00    -0.187 NA
ATOM      3  C   UNL     1       7.568  -5.393  26.401  0.00  0.00    +0.192 A 
ATOM      4  N   UNL     1       6.598  -5.776  25.554  0.00  0.00    -0.218 NA
ATOM      5  C   UNL     1       5.447  -6.256  26.089  0.00  0.00    +0.151 A 
ATOM      6  C   UNL     1       5.287  -6.378  27.455  0.00  0.00    +0.099 A 
ENDROOT
BRANCH   5   7
ATOM      7  C   UNL     1       4.324  -6.665  25.152  0.00  0.00    +0.434 C 
ATOM      8  F   UNL     1       3.498  -7.610  25.683  0.00  0.00    -0.164 F 
ATOM      9  F   UNL     1       4.765  -7.165  23.964  0.00  0.00    -0.164 F 
ATOM     10  F   UNL     1       3.507  -5.619  24.821  0.00  0.00    -0.164 F 
ENDBRANCH   5   7
BRANCH   1  11
ATOM     11  O   UNL     1       6.310  -6.075  29.583  0.00  0.00    -0.492 OA
ATOM     12  H   UNL     1       7.024  -6.655  29.887  0.00  0.00    +0.294 HD
ENDBRANCH   1  11
BRANCH   3  13
ATOM     13  S   UNL     1       9.061  -4.795  25.652  0.00  0.00    -0.077 S 
BRANCH  13  14
ATOM     14  C   UNL     1       8.630  -3.047  25.402  0.00  0.00    +0.173 C 
BRANCH  14  15
ATOM     15  C   UNL     1       8.542  -2.628  23.936  0.00  0.00    +0.226 C 
ATOM     16  N   UNL     1       8.979  -1.333  23.625  0.00  0.00    -0.301 N 
ATOM     17  C   UNL     1       8.587  -0.775  22.330  0.00  0.00    +0.108 C 
ATOM     18  C   UNL     1       9.677   0.096  21.714  0.00  0.00    +0.019 C 
ATOM     19  C   UNL     1      10.198   1.133  22.702  0.00  0.00    +0.003 C 
ATOM     20  C   UNL     1      10.638   0.455  23.996  0.00  0.00    +0.019 C 
ATOM     21  C   UNL     1       9.504  -0.372  24.598  0.00  0.00    +0.108 C 
ATOM     22  O   UNL     1       8.114  -3.377  23.056  0.00  0.00    -0.275 OA
ENDBRANCH  14  15
ENDBRANCH  13  14
ENDBRANCH   3  13
TORSDOF 5
ENDMDL
