MODEL 1
REMARK VINA RESULT:      -3.5      0.000      0.000
REMARK  Name = 
REMARK  5 active torsions:
REMARK  status: ('A' for Active; 'I' for Inactive)
REMARK    1  A    between atoms: C_1  and  C_2
REMARK    2  A    between atoms: C_2  and  CA_3
REMARK    3  A    between atoms: CA_3  and  N_5
REMARK    4  A    between atoms: CA_3  and  C_6
REMARK    5  A    between atoms: C_6  and  O_7
REMARK                            x       y       z     vdW  Elec       q    Type
REMARK                         _______ _______ _______ _____ _____    ______ ____
ROOT
ATOM      1  CA  UNL     1       8.800  -5.446  25.264  0.00  0.00    +0.160 C 
ENDROOT
BRANCH   1   2
ATOM      2  N   UNL     1      10.283  -5.462  25.417  0.00  0.00    -0.318 NA
ATOM      3  H1  UNL     1      10.494  -5.337  26.414  0.00  0.00    +0.119 HD
ATOM      4  H2  UNL     1      10.616  -6.409  25.215  0.00  0.00    +0.119 HD
ENDBRANCH   1   2
BRANCH   1   6
ATOM      5  C   UNL     1       7.503  -5.287  23.064  0.00  0.00    +0.006 C 
ATOM      6  C   UNL     1       8.362  -4.562  24.092  0.00  0.00    +0.026 C 
ENDBRANCH   1   6
BRANCH   1   7
ATOM      7  C   UNL     1       8.192  -4.883  26.557  0.00  0.00    +0.322 C 
ATOM      8  OXT UNL     1       7.937  -3.707  26.761  0.00  0.00    -0.249 OA
BRANCH   7   9
ATOM      9  O   UNL     1       8.001  -5.867  27.476  0.00  0.00    -0.480 OA
ATOM     10  H   UNL     1       7.298  -6.456  27.103  0.00  0.00    +0.295 HD
ENDBRANCH   7   9
ENDBRANCH   1   7
TORSDOF 4
ENDMDL
MODEL 2
REMARK VINA RESULT:      -3.5      2.164      2.329
REMARK  Name = 
REMARK  5 active torsions:
REMARK  status: ('A' for Active; 'I' for Inactive)
REMARK    1  A    between atoms: C_1  and  C_2
REMARK    2  A    between atoms: C_2  and  CA_3
REMARK    3  A    between atoms: CA_3  and  N_5
REMARK    4  A    between atoms: CA_3  and  C_6
REMARK    5  A    between atoms: C_6  and  O_7
REMARK                            x       y       z     vdW  Elec       q    Type
REMARK                         _______ _______ _______ _____ _____    ______ ____
ROOT
ATOM      1  CA  UNL     1       8.405  -4.506  26.403  0.00  0.00    +0.160 C 
ENDROOT
BRANCH   1   2
ATOM      2  N   UNL     1       8.102  -5.709  27.231  0.00  0.00    -0.318 NA
ATOM      3  H1  UNL     1       7.411  -6.271  26.721  0.00  0.00    +0.119 HD
ATOM      4  H2  UNL     1       8.936  -6.304  27.248  0.00  0.00    +0.119 HD
ENDBRANCH   1   2
BRANCH   1   6
ATOM      5  C   UNL     1       6.528  -5.135  24.781  0.00  0.00    +0.006 C 
ATOM      6  C   UNL     1       7.176  -4.039  25.616  0.00  0.00    +0.026 C 
ENDBRANCH   1   6
BRANCH   1   7
ATOM      7  C   UNL     1       9.513  -4.878  25.406  0.00  0.00    +0.322 C 
ATOM      8  OXT UNL     1       9.966  -4.138  24.549  0.00  0.00    -0.249 OA
BRANCH   7   9
ATOM      9  O   UNL     1       9.911  -6.167  25.576  0.00  0.00    -0.480 OA
ATOM     10  H   UNL     1       9.258  -6.722  25.080  0.00  0.00    +0.295 HD
ENDBRANCH   7   9
ENDBRANCH   1   7
TORSDOF 4
ENDMDL
MODEL 3
REMARK VINA RESULT:      -3.5      6.379      7.197
REMARK  Name = 
REMARK  5 active torsions:
REMARK  status: ('A' for Active; 'I' for Inactive)
REMARK    1  A    between atoms: C_1  and  C_2
REMARK    2  A    between atoms: C_2  and  CA_3
REMARK    3  A    between atoms: CA_3  and  N_5
REMARK    4  A    between atoms: CA_3  and  C_6
REMARK    5  A    between atoms: C_6  and  O_7
REMARK                            x       y       z     vdW  Elec       q    Type
REMARK                         _______ _______ _______ _____ _____    ______ ____
ROOT
ATOM      1  CA  UNL     1      10.159  -0.032  22.177  0.00  0.00    +0.160 C 
ENDROOT
BRANCH   1   2
ATOM      2  N   UNL     1       9.664  -1.138  21.308  0.00  0.00    -0.318 NA
ATOM      3  H1  UNL     1      10.483  -1.601  20.897  0.00  0.00    +0.119 HD
ATOM      4  H2  UNL     1       9.253  -1.858  21.908  0.00  0.00    +0.119 HD
ENDBRANCH   1   2
BRANCH   1   6
ATOM      5  C   UNL     1      10.734   0.558  24.599  0.00  0.00    +0.006 C 
ATOM      6  C   UNL     1       9.934  -0.336  23.662  0.00  0.00    +0.026 C 
ENDBRANCH   1   6
BRANCH   1   7
ATOM      7  C   UNL     1       9.384   1.245  21.815  0.00  0.00    +0.322 C 
ATOM      8  OXT UNL     1       8.170   1.332  21.734  0.00  0.00    -0.249 OA
BRANCH   7   9
ATOM      9  O   UNL     1      10.234   2.274  21.557  0.00  0.00    -0.480 OA
ATOM     10  H   UNL     1      10.671   2.058  20.696  0.00  0.00    +0.295 HD
ENDBRANCH   7   9
ENDBRANCH   1   7
TORSDOF 4
ENDMDL
MODEL 4
REMARK VINA RESULT:      -3.4      6.142      6.900
REMARK  Name = 
REMARK  5 active torsions:
REMARK  status: ('A' for Active; 'I' for Inactive)
REMARK    1  A    between atoms: C_1  and  C_2
REMARK    2  A    between atoms: C_2  and  CA_3
REMARK    3  A    between atoms: CA_3  and  N_5
REMARK    4  A    between atoms: CA_3  and  C_6
REMARK    5  A    between atoms: C_6  and  O_7
REMARK                            x       y       z     vdW  Elec       q    Type
REMARK                         _______ _______ _______ _____ _____    ______ ____
ROOT
ATOM      1  CA  UNL     1       9.767   0.639  22.668  0.00  0.00    +0.160 C 
ENDROOT
BRANCH   1   2
ATOM      2  N   UNL     1      10.040   1.759  21.722  0.00  0.00    -0.318 NA
ATOM      3  H1  UNL     1       9.686   2.622  22.152  0.00  0.00    +0.119 HD
ATOM      4  H2  UNL     1      11.053   1.905  21.682  0.00  0.00    +0.119 HD
ENDBRANCH   1   2
BRANCH   1   6
ATOM      5  C   UNL     1      10.101   0.204  25.167  0.00  0.00    +0.006 C 
ATOM      6  C   UNL     1      10.733   0.655  23.857  0.00  0.00    +0.026 C 
ENDBRANCH   1   6
BRANCH   1   7
ATOM      7  C   UNL     1       9.946  -0.684  21.907  0.00  0.00    +0.322 C 
ATOM      8  OXT UNL     1      10.584  -1.644  22.307  0.00  0.00    -0.249 OA
BRANCH   7   9
ATOM      9  O   UNL     1       9.326  -0.640  20.698  0.00  0.00    -0.480 OA
ATOM     10  H   UNL     1       9.397   0.298  20.389  0.00  0.00    +0.295 HD
ENDBRANCH   7   9
ENDBRANCH   1   7
TORSDOF 4
ENDMDL
MODEL 5
REMARK VINA RESULT:      -3.3      5.471      6.190
REMARK  Name = 
REMARK  5 active torsions:
REMARK  status: ('A' for Active; 'I' for Inactive)
REMARK    1  A    between atoms: C_1  and  C_2
REMARK    2  A    between atoms: C_2  and  CA_3
REMARK    3  A    between atoms: CA_3  and  N_5
REMARK    4  A    between atoms: CA_3  and  C_6
REMARK    5  A    between atoms: C_6  and  O_7
REMARK                            x       y       z     vdW  Elec       q    Type
REMARK                         _______ _______ _______ _____ _____    ______ ____
ROOT
ATOM      1  CA  UNL     1      10.428  -0.197  23.253  0.00  0.00    +0.160 C 
ENDROOT
BRANCH   1   2
ATOM      2  N   UNL     1       9.683  -0.047  24.536  0.00  0.00    -0.318 NA
ATOM      3  H1  UNL     1       9.440  -0.989  24.865  0.00  0.00    +0.119 HD
ATOM      4  H2  UNL     1      10.335   0.298  25.246  0.00  0.00    +0.119 HD
ENDBRANCH   1   2
BRANCH   1   6
ATOM      5  C   UNL     1      10.212   2.216  22.430  0.00  0.00    +0.006 C 
ATOM      6  C   UNL     1       9.892   0.750  22.174  0.00  0.00    +0.026 C 
ENDBRANCH   1   6
BRANCH   1   7
ATOM      7  C   UNL     1      10.256  -1.643  22.765  0.00  0.00    +0.322 C 
ATOM      8  OXT UNL     1      10.278  -2.633  23.477  0.00  0.00    -0.249 OA
BRANCH   7   9
ATOM      9  O   UNL     1      10.108  -1.689  21.414  0.00  0.00    -0.480 OA
ATOM     10  H   UNL     1      10.395  -2.596  21.139  0.00  0.00    +0.295 HD
ENDBRANCH   7   9
ENDBRANCH   1   7
TORSDOF 4
ENDMDL
MODEL 6
REMARK VINA RESULT:      -3.2      6.898      7.727
REMARK  Name = 
REMARK  5 active torsions:
REMARK  status: ('A' for Active; 'I' for Inactive)
REMARK    1  A    between atoms: C_1  and  C_2
REMARK    2  A    between atoms: C_2  and  CA_3
REMARK    3  A    between atoms: CA_3  and  N_5
REMARK    4  A    between atoms: CA_3  and  C_6
REMARK    5  A    between atoms: C_6  and  O_7
REMARK                            x       y       z     vdW  Elec       q    Type
REMARK                         _______ _______ _______ _____ _____    ______ ____
ROOT
ATOM      1  CA  UNL     1       9.351   1.389  22.211  0.00  0.00    +0.160 C 
ENDROOT
BRANCH   1   2
ATOM      2  N   UNL     1      10.349   2.382  21.720  0.00  0.00    -0.318 NA
ATOM      3  H1  UNL     1      11.064   1.868  21.191  0.00  0.00    +0.119 HD
ATOM      4  H2  UNL     1       9.897   2.968  21.012  0.00  0.00    +0.119 HD
ENDBRANCH   1   2
BRANCH   1   6
ATOM      5  C   UNL     1       9.910  -1.105  22.079  0.00  0.00    +0.006 C 
ATOM      6  C   UNL     1       9.353   0.116  21.359  0.00  0.00    +0.026 C 
ENDBRANCH   1   6
BRANCH   1   7
ATOM      7  C   UNL     1       7.958   2.031  22.130  0.00  0.00    +0.322 C 
ATOM      8  OXT UNL     1       6.900   1.427  22.191  0.00  0.00    -0.249 OA
BRANCH   7   9
ATOM      9  O   UNL     1       8.050   3.374  21.943  0.00  0.00    -0.480 OA
ATOM     10  H   UNL     1       9.003   3.604  22.078  0.00  0.00    +0.295 HD
ENDBRANCH   7   9
ENDBRANCH   1   7
TORSDOF 4
ENDMDL
MODEL 7
REMARK VINA RESULT:      -3.2      6.140      6.700
REMARK  Name = 
REMARK  5 active torsions:
REMARK  status: ('A' for Active; 'I' for Inactive)
REMARK    1  A    between atoms: C_1  and  C_2
REMARK    2  A    between atoms: C_2  and  CA_3
REMARK    3  A    between atoms: CA_3  and  N_5
REMARK    4  A    between atoms: CA_3  and  C_6
REMARK    5  A    between atoms: C_6  and  O_7
REMARK                            x       y       z     vdW  Elec       q    Type
REMARK                         _______ _______ _______ _____ _____    ______ ____
ROOT
ATOM      1  CA  UNL     1      10.134   1.037  22.529  0.00  0.00    +0.160 C 
ENDROOT
BRANCH   1   2
ATOM      2  N   UNL     1       9.966   2.250  21.678  0.00  0.00    -0.318 NA
ATOM      3  H1  UNL     1       8.960   2.381  21.520  0.00  0.00    +0.119 HD
ATOM      4  H2  UNL     1      10.235   3.069  22.230  0.00  0.00    +0.119 HD
ENDBRANCH   1   2
BRANCH   1   6
ATOM      5  C   UNL     1      10.207  -1.520  22.447  0.00  0.00    +0.006 C 
ATOM      6  C   UNL     1       9.722  -0.238  21.784  0.00  0.00    +0.026 C 
ENDBRANCH   1   6
BRANCH   1   7
ATOM      7  C   UNL     1       9.237   1.193  23.766  0.00  0.00    +0.322 C 
ATOM      8  OXT UNL     1       8.018   1.221  23.753  0.00  0.00    -0.249 OA
BRANCH   7   9
ATOM      9  O   UNL     1       9.982   1.335  24.895  0.00  0.00    -0.480 OA
ATOM     10  H   UNL     1      10.771   0.749  24.776  0.00  0.00    +0.295 HD
ENDBRANCH   7   9
ENDBRANCH   1   7
TORSDOF 4
ENDMDL
MODEL 8
REMARK VINA RESULT:      -3.2      7.064      7.750
REMARK  Name = 
REMARK  5 active torsions:
REMARK  status: ('A' for Active; 'I' for Inactive)
REMARK    1  A    between atoms: C_1  and  C_2
REMARK    2  A    between atoms: C_2  and  CA_3
REMARK    3  A    between atoms: CA_3  and  N_5
REMARK    4  A    between atoms: CA_3  and  C_6
REMARK    5  A    between atoms: C_6  and  O_7
REMARK                            x       y       z     vdW  Elec       q    Type
REMARK                         _______ _______ _______ _____ _____    ______ ____
ROOT
ATOM      1  CA  UNL     1       8.867   1.274  23.287  0.00  0.00    +0.160 C 
ENDROOT
BRANCH   1   2
ATOM      2  N   UNL     1       7.836   2.340  23.137  0.00  0.00    -0.318 NA
ATOM      3  H1  UNL     1       7.551   2.360  22.151  0.00  0.00    +0.119 HD
ATOM      4  H2  UNL     1       6.989   2.038  23.628  0.00  0.00    +0.119 HD
ENDBRANCH   1   2
BRANCH   1   6
ATOM      5  C   UNL     1      10.788   0.482  24.780  0.00  0.00    +0.006 C 
ATOM      6  C   UNL     1       9.925   1.652  24.328  0.00  0.00    +0.026 C 
ENDBRANCH   1   6
BRANCH   1   7
ATOM      7  C   UNL     1       9.560   1.085  21.929  0.00  0.00    +0.322 C 
ATOM      8  OXT UNL     1       9.583   0.047  21.288  0.00  0.00    -0.249 OA
BRANCH   7   9
ATOM      9  O   UNL     1      10.187   2.226  21.538  0.00  0.00    -0.480 OA
ATOM     10  H   UNL     1      10.461   2.079  20.598  0.00  0.00    +0.295 HD
ENDBRANCH   7   9
ENDBRANCH   1   7
TORSDOF 4
ENDMDL
MODEL 9
REMARK VINA RESULT:      -3.2      6.801      7.387
REMARK  Name = 
REMARK  5 active torsions:
REMARK  status: ('A' for Active; 'I' for Inactive)
REMARK    1  A    between atoms: C_1  and  C_2
REMARK    2  A    between atoms: C_2  and  CA_3
REMARK    3  A    between atoms: CA_3  and  N_5
REMARK    4  A    between atoms: CA_3  and  C_6
REMARK    5  A    between atoms: C_6  and  O_7
REMARK                            x       y       z     vdW  Elec       q    Type
REMARK                         _______ _______ _______ _____ _____    ______ ____
ROOT
ATOM      1  CA  UNL     1       9.638   1.045  23.573  0.00  0.00    +0.160 C 
ENDROOT
BRANCH   1   2
ATOM      2  N   UNL     1       9.475   1.379  25.017  0.00  0.00    -0.318 NA
ATOM      3  H1  UNL     1       8.823   2.170  25.081  0.00  0.00    +0.119 HD
ATOM      4  H2  UNL     1       8.971   0.611  25.469  0.00  0.00    +0.119 HD
ENDBRANCH   1   2
BRANCH   1   6
ATOM      5  C   UNL     1      10.003  -1.163  22.333  0.00  0.00    +0.006 C 
ATOM      6  C   UNL     1      10.530  -0.185  23.374  0.00  0.00    +0.026 C 
ENDBRANCH   1   6
BRANCH   1   7
ATOM      7  C   UNL     1      10.296   2.246  22.876  0.00  0.00    +0.322 C 
ATOM      8  OXT UNL     1      10.938   3.120  23.435  0.00  0.00    -0.249 OA
BRANCH   7   9
ATOM      9  O   UNL     1      10.041   2.235  21.540  0.00  0.00    -0.480 OA
ATOM     10  H   UNL     1       9.128   2.601  21.434  0.00  0.00    +0.295 HD
ENDBRANCH   7   9
ENDBRANCH   1   7
TORSDOF 4
ENDMDL
