MODEL 1
REMARK VINA RESULT:      -6.5      0.000      0.000
REMARK  Name = 
REMARK  13 active torsions:
REMARK  status: ('A' for Active; 'I' for Inactive)
REMARK    1  A    between atoms: C_1  and  C_2
REMARK    2  A    between atoms: C_2  and  C_3
REMARK    3  A    between atoms: C_2  and  N_4
REMARK    4  A    between atoms: C_5  and  C_6
REMARK    5  A    between atoms: C_7  and  C_8
REMARK    6  A    between atoms: C_8  and  O_10
REMARK    7  A    between atoms: C_8  and  C_11
REMARK    8  A    between atoms: C_11  and  C_12
REMARK    9  A    between atoms: C_12  and  O_14
REMARK   10  A    between atoms: C_12  and  C_15
REMARK   11  A    between atoms: C_15  and  C_16
REMARK   12  A    between atoms: C_16  and  O_17
REMARK   13  A    between atoms: C_19  and  C_26
REMARK                            x       y       z     vdW  Elec       q    Type
REMARK                         _______ _______ _______ _____ _____    ______ ____
ROOT
ATOM      1  N   UNL     1       6.786   0.188  24.459  0.00  0.00    -0.337 N 
ATOM      2  C   UNL     1       7.833   0.478  23.588  0.00  0.00    +0.050 A 
ATOM      3  C   UNL     1       8.094  -0.678  22.844  0.00  0.00    +0.008 A 
ATOM      4  C   UNL     1       9.078  -0.612  21.829  0.00  0.00    +0.010 A 
ATOM      5  C   UNL     1       9.803   0.565  21.617  0.00  0.00    +0.001 A 
ATOM      6  C   UNL     1       9.549   1.689  22.389  0.00  0.00    +0.002 A 
ATOM      7  C   UNL     1       7.227  -1.714  23.338  0.00  0.00    +0.015 A 
ATOM      8  C   UNL     1       8.561   1.668  23.375  0.00  0.00    +0.026 A 
ATOM      9  C   UNL     1       6.467  -1.160  24.364  0.00  0.00    +0.051 A 
ENDROOT
BRANCH   7  10
ATOM     10  C   UNL     1       7.139  -3.122  22.912  0.00  0.00    -0.015 A 
ATOM     11  C   UNL     1       7.880  -4.113  23.571  0.00  0.00    +0.011 A 
ATOM     12  C   UNL     1       7.781  -5.456  23.192  0.00  0.00    +0.039 A 
ATOM     13  C   UNL     1       6.912  -5.820  22.176  0.00  0.00    +0.123 A 
ATOM     14  F   UNL     1       6.783  -7.111  21.842  0.00  0.00    -0.205 F 
ATOM     15  C   UNL     1       6.165  -4.864  21.504  0.00  0.00    +0.039 A 
ATOM     16  C   UNL     1       6.303  -3.518  21.854  0.00  0.00    +0.011 A 
ENDBRANCH   7  10
BRANCH   1  18
ATOM     17  C   UNL     1       7.093   1.801  26.361  0.00  0.00    +0.030 C 
ATOM     18  C   UNL     1       6.156   1.211  25.303  0.00  0.00    +0.082 C 
ATOM     19  C   UNL     1       5.380   2.255  24.499  0.00  0.00    +0.030 C 
ENDBRANCH   1  18
BRANCH   9  20
ATOM     20  C   UNL     1       5.454  -1.745  25.182  0.00  0.00    +0.025 C 
ATOM     21  C   UNL     1       5.761  -2.354  26.341  0.00  0.00    +0.006 C 
BRANCH  21  22
ATOM     22  C   UNL     1       4.822  -3.163  27.207  0.00  0.00    +0.140 C 
BRANCH  22  23
ATOM     23  O   UNL     1       3.610  -3.467  26.513  0.00  0.00    -0.388 OA
ATOM     24  H   UNL     1       3.842  -4.078  25.791  0.00  0.00    +0.210 HD
ENDBRANCH  22  23
BRANCH  22  25
ATOM     25  C   UNL     1       5.461  -4.493  27.654  0.00  0.00    +0.067 C 
BRANCH  25  26
ATOM     26  C   UNL     1       6.053  -5.299  26.480  0.00  0.00    +0.128 C 
BRANCH  26  27
ATOM     27  O   UNL     1       7.350  -5.820  26.820  0.00  0.00    -0.391 OA
ATOM     28  H   UNL     1       7.454  -5.704  27.794  0.00  0.00    +0.210 HD
ENDBRANCH  26  27
BRANCH  26  29
ATOM     29  C   UNL     1       5.174  -6.498  26.122  0.00  0.00    +0.151 C 
BRANCH  29  30
ATOM     30  C   UNL     1       4.533  -6.382  24.755  0.00  0.00    +0.307 C 
ATOM     31  O   UNL     1       4.081  -5.331  24.316  0.00  0.00    -0.251 OA
BRANCH  30  32
ATOM     32  O   UNL     1       4.418  -7.548  24.084  0.00  0.00    -0.481 OA
ATOM     33  H   UNL     1       3.653  -7.529  23.455  0.00  0.00    +0.295 HD
ENDBRANCH  30  32
ENDBRANCH  29  30
ENDBRANCH  26  29
ENDBRANCH  25  26
ENDBRANCH  22  25
ENDBRANCH  21  22
ENDBRANCH   9  20
TORSDOF 11
ENDMDL
MODEL 2
REMARK VINA RESULT:      -6.3      0.959      1.420
REMARK  Name = 
REMARK  13 active torsions:
REMARK  status: ('A' for Active; 'I' for Inactive)
REMARK    1  A    between atoms: C_1  and  C_2
REMARK    2  A    between atoms: C_2  and  C_3
REMARK    3  A    between atoms: C_2  and  N_4
REMARK    4  A    between atoms: C_5  and  C_6
REMARK    5  A    between atoms: C_7  and  C_8
REMARK    6  A    between atoms: C_8  and  O_10
REMARK    7  A    between atoms: C_8  and  C_11
REMARK    8  A    between atoms: C_11  and  C_12
REMARK    9  A    between atoms: C_12  and  O_14
REMARK   10  A    between atoms: C_12  and  C_15
REMARK   11  A    between atoms: C_15  and  C_16
REMARK   12  A    between atoms: C_16  and  O_17
REMARK   13  A    between atoms: C_19  and  C_26
REMARK                            x       y       z     vdW  Elec       q    Type
REMARK                         _______ _______ _______ _____ _____    ______ ____
ROOT
ATOM      1  N   UNL     1       6.807   0.319  24.535  0.00  0.00    -0.337 N 
ATOM      2  C   UNL     1       7.800   0.566  23.591  0.00  0.00    +0.050 A 
ATOM      3  C   UNL     1       8.014  -0.622  22.884  0.00  0.00    +0.008 A 
ATOM      4  C   UNL     1       8.935  -0.603  21.809  0.00  0.00    +0.010 A 
ATOM      5  C   UNL     1       9.648   0.560  21.504  0.00  0.00    +0.001 A 
ATOM      6  C   UNL     1       9.443   1.717  22.240  0.00  0.00    +0.002 A 
ATOM      7  C   UNL     1       7.176  -1.632  23.473  0.00  0.00    +0.015 A 
ATOM      8  C   UNL     1       8.516   1.743  23.284  0.00  0.00    +0.026 A 
ATOM      9  C   UNL     1       6.481  -1.031  24.519  0.00  0.00    +0.051 A 
ENDROOT
BRANCH   7  10
ATOM     10  C   UNL     1       7.061  -3.056  23.115  0.00  0.00    -0.015 A 
ATOM     11  C   UNL     1       6.135  -3.474  22.148  0.00  0.00    +0.011 A 
ATOM     12  C   UNL     1       6.039  -4.821  21.781  0.00  0.00    +0.039 A 
ATOM     13  C   UNL     1       6.893  -5.751  22.351  0.00  0.00    +0.123 A 
ATOM     14  F   UNL     1       6.832  -7.033  21.968  0.00  0.00    -0.205 F 
ATOM     15  C   UNL     1       7.820  -5.370  23.310  0.00  0.00    +0.039 A 
ATOM     16  C   UNL     1       7.880  -4.032  23.709  0.00  0.00    +0.011 A 
ENDBRANCH   7  10
BRANCH   1  18
ATOM     17  C   UNL     1       7.233   2.016  26.338  0.00  0.00    +0.030 C 
ATOM     18  C   UNL     1       6.231   1.379  25.371  0.00  0.00    +0.082 C 
ATOM     19  C   UNL     1       5.403   2.387  24.571  0.00  0.00    +0.030 C 
ENDBRANCH   1  18
BRANCH   9  20
ATOM     20  C   UNL     1       5.518  -1.576  25.421  0.00  0.00    +0.025 C 
ATOM     21  C   UNL     1       5.898  -2.256  26.516  0.00  0.00    +0.006 C 
BRANCH  21  22
ATOM     22  C   UNL     1       4.996  -3.032  27.450  0.00  0.00    +0.140 C 
BRANCH  22  23
ATOM     23  O   UNL     1       3.815  -3.475  26.779  0.00  0.00    -0.388 OA
ATOM     24  H   UNL     1       3.754  -2.970  25.948  0.00  0.00    +0.210 HD
ENDBRANCH  22  23
BRANCH  22  25
ATOM     25  C   UNL     1       5.707  -4.272  28.031  0.00  0.00    +0.067 C 
BRANCH  25  26
ATOM     26  C   UNL     1       6.532  -5.039  26.978  0.00  0.00    +0.128 C 
BRANCH  26  27
ATOM     27  O   UNL     1       7.649  -5.707  27.590  0.00  0.00    -0.391 OA
ATOM     28  H   UNL     1       7.689  -5.391  28.524  0.00  0.00    +0.210 HD
ENDBRANCH  26  27
BRANCH  26  29
ATOM     29  C   UNL     1       5.696  -6.118  26.286  0.00  0.00    +0.151 C 
BRANCH  29  30
ATOM     30  C   UNL     1       4.756  -6.841  27.228  0.00  0.00    +0.307 C 
ATOM     31  O   UNL     1       3.540  -6.695  27.200  0.00  0.00    -0.251 OA
BRANCH  30  32
ATOM     32  O   UNL     1       5.367  -7.597  28.164  0.00  0.00    -0.481 OA
ATOM     33  H   UNL     1       4.970  -8.504  28.212  0.00  0.00    +0.295 HD
ENDBRANCH  30  32
ENDBRANCH  29  30
ENDBRANCH  26  29
ENDBRANCH  25  26
ENDBRANCH  22  25
ENDBRANCH  21  22
ENDBRANCH   9  20
TORSDOF 11
ENDMDL
MODEL 3
REMARK VINA RESULT:      -6.3      3.505      5.307
REMARK  Name = 
REMARK  13 active torsions:
REMARK  status: ('A' for Active; 'I' for Inactive)
REMARK    1  A    between atoms: C_1  and  C_2
REMARK    2  A    between atoms: C_2  and  C_3
REMARK    3  A    between atoms: C_2  and  N_4
REMARK    4  A    between atoms: C_5  and  C_6
REMARK    5  A    between atoms: C_7  and  C_8
REMARK    6  A    between atoms: C_8  and  O_10
REMARK    7  A    between atoms: C_8  and  C_11
REMARK    8  A    between atoms: C_11  and  C_12
REMARK    9  A    between atoms: C_12  and  O_14
REMARK   10  A    between atoms: C_12  and  C_15
REMARK   11  A    between atoms: C_15  and  C_16
REMARK   12  A    between atoms: C_16  and  O_17
REMARK   13  A    between atoms: C_19  and  C_26
REMARK                            x       y       z     vdW  Elec       q    Type
REMARK                         _______ _______ _______ _____ _____    ______ ____
ROOT
ATOM      1  N   UNL     1       8.765   4.934  24.532  0.00  0.00    -0.337 N 
ATOM      2  C   UNL     1      10.108   5.199  24.276  0.00  0.00    +0.050 A 
ATOM      3  C   UNL     1      10.653   4.062  23.672  0.00  0.00    +0.008 A 
ATOM      4  C   UNL     1      12.002   4.113  23.244  0.00  0.00    +0.010 A 
ATOM      5  C   UNL     1      12.777   5.254  23.473  0.00  0.00    +0.001 A 
ATOM      6  C   UNL     1      12.223   6.358  24.104  0.00  0.00    +0.002 A 
ATOM      7  C   UNL     1       9.624   3.057  23.632  0.00  0.00    +0.015 A 
ATOM      8  C   UNL     1      10.886   6.353  24.506  0.00  0.00    +0.026 A 
ATOM      9  C   UNL     1       8.487   3.611  24.214  0.00  0.00    +0.051 A 
ENDROOT
BRANCH   7  10
ATOM     10  C   UNL     1       9.704   1.676  23.127  0.00  0.00    -0.015 A 
ATOM     11  C   UNL     1      10.077   0.627  23.979  0.00  0.00    +0.011 A 
ATOM     12  C   UNL     1      10.127  -0.692  23.515  0.00  0.00    +0.039 A 
ATOM     13  C   UNL     1       9.770  -0.974  22.207  0.00  0.00    +0.123 A 
ATOM     14  F   UNL     1       9.777  -2.242  21.774  0.00  0.00    -0.205 F 
ATOM     15  C   UNL     1       9.398   0.041  21.338  0.00  0.00    +0.039 A 
ATOM     16  C   UNL     1       9.394   1.363  21.793  0.00  0.00    +0.011 A 
ENDBRANCH   7  10
BRANCH   1  18
ATOM     17  C   UNL     1       8.148   6.400  26.478  0.00  0.00    +0.030 C 
ATOM     18  C   UNL     1       7.843   5.955  25.044  0.00  0.00    +0.082 C 
ATOM     19  C   UNL     1       7.623   7.108  24.063  0.00  0.00    +0.030 C 
ENDBRANCH   1  18
BRANCH   9  20
ATOM     20  C   UNL     1       7.190   3.052  24.421  0.00  0.00    +0.025 C 
ATOM     21  C   UNL     1       6.985   2.090  25.338  0.00  0.00    +0.006 C 
BRANCH  21  22
ATOM     22  C   UNL     1       5.716   1.292  25.535  0.00  0.00    +0.140 C 
BRANCH  22  23
ATOM     23  O   UNL     1       4.796   1.509  24.462  0.00  0.00    -0.388 OA
ATOM     24  H   UNL     1       4.514   0.631  24.148  0.00  0.00    +0.210 HD
ENDBRANCH  22  23
BRANCH  22  25
ATOM     25  C   UNL     1       6.000  -0.221  25.618  0.00  0.00    +0.067 C 
BRANCH  25  26
ATOM     26  C   UNL     1       5.902  -0.928  24.251  0.00  0.00    +0.128 C 
BRANCH  26  27
ATOM     27  O   UNL     1       6.482  -0.118  23.213  0.00  0.00    -0.391 OA
ATOM     28  H   UNL     1       5.967   0.723  23.191  0.00  0.00    +0.210 HD
ENDBRANCH  26  27
BRANCH  26  29
ATOM     29  C   UNL     1       6.658  -2.257  24.250  0.00  0.00    +0.151 C 
BRANCH  29  30
ATOM     30  C   UNL     1       6.537  -3.012  22.943  0.00  0.00    +0.307 C 
ATOM     31  O   UNL     1       7.286  -3.928  22.628  0.00  0.00    -0.251 OA
BRANCH  30  32
ATOM     32  O   UNL     1       5.588  -2.541  22.105  0.00  0.00    -0.481 OA
ATOM     33  H   UNL     1       5.387  -1.588  22.286  0.00  0.00    +0.295 HD
ENDBRANCH  30  32
ENDBRANCH  29  30
ENDBRANCH  26  29
ENDBRANCH  25  26
ENDBRANCH  22  25
ENDBRANCH  21  22
ENDBRANCH   9  20
TORSDOF 11
ENDMDL
MODEL 4
REMARK VINA RESULT:      -6.1      3.791      6.854
REMARK  Name = 
REMARK  13 active torsions:
REMARK  status: ('A' for Active; 'I' for Inactive)
REMARK    1  A    between atoms: C_1  and  C_2
REMARK    2  A    between atoms: C_2  and  C_3
REMARK    3  A    between atoms: C_2  and  N_4
REMARK    4  A    between atoms: C_5  and  C_6
REMARK    5  A    between atoms: C_7  and  C_8
REMARK    6  A    between atoms: C_8  and  O_10
REMARK    7  A    between atoms: C_8  and  C_11
REMARK    8  A    between atoms: C_11  and  C_12
REMARK    9  A    between atoms: C_12  and  O_14
REMARK   10  A    between atoms: C_12  and  C_15
REMARK   11  A    between atoms: C_15  and  C_16
REMARK   12  A    between atoms: C_16  and  O_17
REMARK   13  A    between atoms: C_19  and  C_26
REMARK                            x       y       z     vdW  Elec       q    Type
REMARK                         _______ _______ _______ _____ _____    ______ ____
ROOT
ATOM      1  N   UNL     1       6.572  -3.648  25.643  0.00  0.00    -0.337 N 
ATOM      2  C   UNL     1       6.458  -4.359  24.450  0.00  0.00    +0.050 A 
ATOM      3  C   UNL     1       7.172  -3.658  23.473  0.00  0.00    +0.008 A 
ATOM      4  C   UNL     1       7.268  -4.225  22.179  0.00  0.00    +0.010 A 
ATOM      5  C   UNL     1       6.619  -5.427  21.881  0.00  0.00    +0.001 A 
ATOM      6  C   UNL     1       5.890  -6.088  22.858  0.00  0.00    +0.002 A 
ATOM      7  C   UNL     1       7.665  -2.450  24.080  0.00  0.00    +0.015 A 
ATOM      8  C   UNL     1       5.805  -5.573  24.153  0.00  0.00    +0.026 A 
ATOM      9  C   UNL     1       7.238  -2.453  25.405  0.00  0.00    +0.051 A 
ENDROOT
BRANCH   7  10
ATOM     10  C   UNL     1       8.442  -1.361  23.465  0.00  0.00    -0.015 A 
ATOM     11  C   UNL     1       7.844  -0.495  22.538  0.00  0.00    +0.011 A 
ATOM     12  C   UNL     1       8.567   0.560  21.970  0.00  0.00    +0.039 A 
ATOM     13  C   UNL     1       9.880   0.777  22.353  0.00  0.00    +0.123 A 
ATOM     14  F   UNL     1      10.559   1.813  21.843  0.00  0.00    -0.205 F 
ATOM     15  C   UNL     1      10.501  -0.062  23.267  0.00  0.00    +0.039 A 
ATOM     16  C   UNL     1       9.791  -1.143  23.797  0.00  0.00    +0.011 A 
ENDBRANCH   7  10
BRANCH   1  18
ATOM     17  C   UNL     1       4.530  -4.277  26.965  0.00  0.00    +0.030 C 
ATOM     18  C   UNL     1       6.057  -4.160  26.918  0.00  0.00    +0.082 C 
ATOM     19  C   UNL     1       6.797  -5.406  27.406  0.00  0.00    +0.030 C 
ENDBRANCH   1  18
BRANCH   9  20
ATOM     20  C   UNL     1       7.455  -1.501  26.447  0.00  0.00    +0.025 C 
ATOM     21  C   UNL     1       6.683  -0.407  26.562  0.00  0.00    +0.006 C 
BRANCH  21  22
ATOM     22  C   UNL     1       6.912   0.760  27.496  0.00  0.00    +0.140 C 
BRANCH  22  23
ATOM     23  O   UNL     1       8.130   0.606  28.228  0.00  0.00    -0.388 OA
ATOM     24  H   UNL     1       8.619   1.445  28.145  0.00  0.00    +0.210 HD
ENDBRANCH  22  23
BRANCH  22  25
ATOM     25  C   UNL     1       6.981   2.098  26.733  0.00  0.00    +0.067 C 
BRANCH  25  26
ATOM     26  C   UNL     1       7.454   1.933  25.274  0.00  0.00    +0.128 C 
BRANCH  26  27
ATOM     27  O   UNL     1       6.396   2.254  24.354  0.00  0.00    -0.391 OA
ATOM     28  H   UNL     1       6.466   3.220  24.169  0.00  0.00    +0.210 HD
ENDBRANCH  26  27
BRANCH  26  29
ATOM     29  C   UNL     1       8.620   2.870  24.952  0.00  0.00    +0.151 C 
BRANCH  29  30
ATOM     30  C   UNL     1       8.208   4.078  24.137  0.00  0.00    +0.307 C 
ATOM     31  O   UNL     1       7.599   5.028  24.612  0.00  0.00    -0.251 OA
BRANCH  30  32
ATOM     32  O   UNL     1       8.489   3.991  22.819  0.00  0.00    -0.481 OA
ATOM     33  H   UNL     1       9.442   3.767  22.666  0.00  0.00    +0.295 HD
ENDBRANCH  30  32
ENDBRANCH  29  30
ENDBRANCH  26  29
ENDBRANCH  25  26
ENDBRANCH  22  25
ENDBRANCH  21  22
ENDBRANCH   9  20
TORSDOF 11
ENDMDL
MODEL 5
REMARK VINA RESULT:      -5.9      3.186      5.668
REMARK  Name = 
REMARK  13 active torsions:
REMARK  status: ('A' for Active; 'I' for Inactive)
REMARK    1  A    between atoms: C_1  and  C_2
REMARK    2  A    between atoms: C_2  and  C_3
REMARK    3  A    between atoms: C_2  and  N_4
REMARK    4  A    between atoms: C_5  and  C_6
REMARK    5  A    between atoms: C_7  and  C_8
REMARK    6  A    between atoms: C_8  and  O_10
REMARK    7  A    between atoms: C_8  and  C_11
REMARK    8  A    between atoms: C_11  and  C_12
REMARK    9  A    between atoms: C_12  and  O_14
REMARK   10  A    between atoms: C_12  and  C_15
REMARK   11  A    between atoms: C_15  and  C_16
REMARK   12  A    between atoms: C_16  and  O_17
REMARK   13  A    between atoms: C_19  and  C_26
REMARK                            x       y       z     vdW  Elec       q    Type
REMARK                         _______ _______ _______ _____ _____    ______ ____
ROOT
ATOM      1  N   UNL     1       9.165   1.724  23.220  0.00  0.00    -0.337 N 
ATOM      2  C   UNL     1       9.450   3.069  23.441  0.00  0.00    +0.050 A 
ATOM      3  C   UNL     1       8.234   3.729  23.650  0.00  0.00    +0.008 A 
ATOM      4  C   UNL     1       8.268   5.106  23.973  0.00  0.00    +0.010 A 
ATOM      5  C   UNL     1       9.483   5.794  24.027  0.00  0.00    +0.001 A 
ATOM      6  C   UNL     1      10.674   5.127  23.784  0.00  0.00    +0.002 A 
ATOM      7  C   UNL     1       7.183   2.762  23.473  0.00  0.00    +0.015 A 
ATOM      8  C   UNL     1      10.679   3.760  23.497  0.00  0.00    +0.026 A 
ATOM      9  C   UNL     1       7.788   1.548  23.162  0.00  0.00    +0.051 A 
ENDROOT
BRANCH   7  10
ATOM     10  C   UNL     1       5.726   2.963  23.551  0.00  0.00    -0.015 A 
ATOM     11  C   UNL     1       5.043   2.765  24.760  0.00  0.00    +0.011 A 
ATOM     12  C   UNL     1       3.663   2.982  24.849  0.00  0.00    +0.039 A 
ATOM     13  C   UNL     1       2.965   3.433  23.741  0.00  0.00    +0.123 A 
ATOM     14  F   UNL     1       1.653   3.682  23.837  0.00  0.00    -0.205 F 
ATOM     15  C   UNL     1       3.611   3.637  22.530  0.00  0.00    +0.039 A 
ATOM     16  C   UNL     1       4.981   3.375  22.432  0.00  0.00    +0.011 A 
ENDBRANCH   7  10
BRANCH   1  18
ATOM     17  C   UNL     1      10.510  -0.040  24.400  0.00  0.00    +0.030 C 
ATOM     18  C   UNL     1      10.214   0.705  23.094  0.00  0.00    +0.082 C 
ATOM     19  C   UNL     1      10.022  -0.205  21.881  0.00  0.00    +0.030 C 
ENDBRANCH   1  18
BRANCH   9  20
ATOM     20  C   UNL     1       7.211   0.270  22.899  0.00  0.00    +0.025 C 
ATOM     21  C   UNL     1       6.825  -0.540  23.901  0.00  0.00    +0.006 C 
BRANCH  21  22
ATOM     22  C   UNL     1       6.372  -1.976  23.772  0.00  0.00    +0.140 C 
BRANCH  22  23
ATOM     23  O   UNL     1       5.657  -2.186  22.552  0.00  0.00    -0.388 OA
ATOM     24  H   UNL     1       4.716  -2.283  22.787  0.00  0.00    +0.210 HD
ENDBRANCH  22  23
BRANCH  22  25
ATOM     25  C   UNL     1       7.562  -2.956  23.800  0.00  0.00    +0.067 C 
BRANCH  25  26
ATOM     26  C   UNL     1       7.124  -4.431  23.902  0.00  0.00    +0.128 C 
BRANCH  26  27
ATOM     27  O   UNL     1       5.696  -4.533  24.042  0.00  0.00    -0.391 OA
ATOM     28  H   UNL     1       5.497  -4.402  24.999  0.00  0.00    +0.210 HD
ENDBRANCH  26  27
BRANCH  26  29
ATOM     29  C   UNL     1       7.502  -5.218  22.646  0.00  0.00    +0.151 C 
BRANCH  29  30
ATOM     30  C   UNL     1       6.330  -5.466  21.720  0.00  0.00    +0.307 C 
ATOM     31  O   UNL     1       5.878  -4.610  20.970  0.00  0.00    -0.251 OA
BRANCH  30  32
ATOM     32  O   UNL     1       5.760  -6.683  21.846  0.00  0.00    -0.481 OA
ATOM     33  H   UNL     1       5.561  -6.893  22.794  0.00  0.00    +0.295 HD
ENDBRANCH  30  32
ENDBRANCH  29  30
ENDBRANCH  26  29
ENDBRANCH  25  26
ENDBRANCH  22  25
ENDBRANCH  21  22
ENDBRANCH   9  20
TORSDOF 11
ENDMDL
MODEL 6
REMARK VINA RESULT:      -5.8      3.581      6.256
REMARK  Name = 
REMARK  13 active torsions:
REMARK  status: ('A' for Active; 'I' for Inactive)
REMARK    1  A    between atoms: C_1  and  C_2
REMARK    2  A    between atoms: C_2  and  C_3
REMARK    3  A    between atoms: C_2  and  N_4
REMARK    4  A    between atoms: C_5  and  C_6
REMARK    5  A    between atoms: C_7  and  C_8
REMARK    6  A    between atoms: C_8  and  O_10
REMARK    7  A    between atoms: C_8  and  C_11
REMARK    8  A    between atoms: C_11  and  C_12
REMARK    9  A    between atoms: C_12  and  O_14
REMARK   10  A    between atoms: C_12  and  C_15
REMARK   11  A    between atoms: C_15  and  C_16
REMARK   12  A    between atoms: C_16  and  O_17
REMARK   13  A    between atoms: C_19  and  C_26
REMARK                            x       y       z     vdW  Elec       q    Type
REMARK                         _______ _______ _______ _____ _____    ______ ____
ROOT
ATOM      1  N   UNL     1       9.480   2.039  23.317  0.00  0.00    -0.337 N 
ATOM      2  C   UNL     1       9.997   3.327  23.437  0.00  0.00    +0.050 A 
ATOM      3  C   UNL     1       8.927   4.188  23.702  0.00  0.00    +0.008 A 
ATOM      4  C   UNL     1       9.211   5.554  23.941  0.00  0.00    +0.010 A 
ATOM      5  C   UNL     1      10.522   6.032  23.859  0.00  0.00    +0.001 A 
ATOM      6  C   UNL     1      11.563   5.165  23.562  0.00  0.00    +0.002 A 
ATOM      7  C   UNL     1       7.722   3.402  23.665  0.00  0.00    +0.015 A 
ATOM      8  C   UNL     1      11.322   3.806  23.356  0.00  0.00    +0.026 A 
ATOM      9  C   UNL     1       8.093   2.092  23.378  0.00  0.00    +0.051 A 
ENDROOT
BRANCH   7  10
ATOM     10  C   UNL     1       6.329   3.846  23.845  0.00  0.00    -0.015 A 
ATOM     11  C   UNL     1       5.760   3.905  25.125  0.00  0.00    +0.011 A 
ATOM     12  C   UNL     1       4.447   4.352  25.308  0.00  0.00    +0.039 A 
ATOM     13  C   UNL     1       3.708   4.778  24.216  0.00  0.00    +0.123 A 
ATOM     14  F   UNL     1       2.466   5.247  24.395  0.00  0.00    -0.205 F 
ATOM     15  C   UNL     1       4.241   4.732  22.936  0.00  0.00    +0.039 A 
ATOM     16  C   UNL     1       5.536   4.240  22.752  0.00  0.00    +0.011 A 
ENDBRANCH   7  10
BRANCH   1  18
ATOM     17  C   UNL     1      10.574   0.099  24.479  0.00  0.00    +0.030 C 
ATOM     18  C   UNL     1      10.335   0.856  23.169  0.00  0.00    +0.082 C 
ATOM     19  C   UNL     1       9.927  -0.035  21.995  0.00  0.00    +0.030 C 
ENDBRANCH   1  18
BRANCH   9  20
ATOM     20  C   UNL     1       7.296   0.917  23.235  0.00  0.00    +0.025 C 
ATOM     21  C   UNL     1       6.914   0.201  24.307  0.00  0.00    +0.006 C 
BRANCH  21  22
ATOM     22  C   UNL     1       6.229  -1.148  24.289  0.00  0.00    +0.140 C 
BRANCH  22  23
ATOM     23  O   UNL     1       6.061  -1.626  22.953  0.00  0.00    -0.388 OA
ATOM     24  H   UNL     1       6.945  -1.879  22.629  0.00  0.00    +0.210 HD
ENDBRANCH  22  23
BRANCH  22  25
ATOM     25  C   UNL     1       7.030  -2.205  25.075  0.00  0.00    +0.067 C 
BRANCH  25  26
ATOM     26  C   UNL     1       7.665  -3.277  24.166  0.00  0.00    +0.128 C 
BRANCH  26  27
ATOM     27  O   UNL     1       9.048  -2.976  23.908  0.00  0.00    -0.391 OA
ATOM     28  H   UNL     1       9.445  -2.712  24.772  0.00  0.00    +0.210 HD
ENDBRANCH  26  27
BRANCH  26  29
ATOM     29  C   UNL     1       7.627  -4.660  24.817  0.00  0.00    +0.151 C 
BRANCH  29  30
ATOM     30  C   UNL     1       8.931  -5.042  25.485  0.00  0.00    +0.307 C 
ATOM     31  O   UNL     1       9.274  -4.609  26.578  0.00  0.00    -0.251 OA
BRANCH  30  32
ATOM     32  O   UNL     1       9.734  -5.835  24.744  0.00  0.00    -0.481 OA
ATOM     33  H   UNL     1       9.958  -5.412  23.876  0.00  0.00    +0.295 HD
ENDBRANCH  30  32
ENDBRANCH  29  30
ENDBRANCH  26  29
ENDBRANCH  25  26
ENDBRANCH  22  25
ENDBRANCH  21  22
ENDBRANCH   9  20
TORSDOF 11
ENDMDL
MODEL 7
REMARK VINA RESULT:      -5.7      2.990      5.380
REMARK  Name = 
REMARK  13 active torsions:
REMARK  status: ('A' for Active; 'I' for Inactive)
REMARK    1  A    between atoms: C_1  and  C_2
REMARK    2  A    between atoms: C_2  and  C_3
REMARK    3  A    between atoms: C_2  and  N_4
REMARK    4  A    between atoms: C_5  and  C_6
REMARK    5  A    between atoms: C_7  and  C_8
REMARK    6  A    between atoms: C_8  and  O_10
REMARK    7  A    between atoms: C_8  and  C_11
REMARK    8  A    between atoms: C_11  and  C_12
REMARK    9  A    between atoms: C_12  and  O_14
REMARK   10  A    between atoms: C_12  and  C_15
REMARK   11  A    between atoms: C_15  and  C_16
REMARK   12  A    between atoms: C_16  and  O_17
REMARK   13  A    between atoms: C_19  and  C_26
REMARK                            x       y       z     vdW  Elec       q    Type
REMARK                         _______ _______ _______ _____ _____    ______ ____
ROOT
ATOM      1  N   UNL     1       9.002   1.301  23.910  0.00  0.00    -0.337 N 
ATOM      2  C   UNL     1       8.977   2.655  24.239  0.00  0.00    +0.050 A 
ATOM      3  C   UNL     1       8.042   2.821  25.266  0.00  0.00    +0.008 A 
ATOM      4  C   UNL     1       7.888   4.111  25.828  0.00  0.00    +0.010 A 
ATOM      5  C   UNL     1       8.615   5.195  25.328  0.00  0.00    +0.001 A 
ATOM      6  C   UNL     1       9.512   5.012  24.286  0.00  0.00    +0.002 A 
ATOM      7  C   UNL     1       7.434   1.539  25.509  0.00  0.00    +0.015 A 
ATOM      8  C   UNL     1       9.714   3.746  23.733  0.00  0.00    +0.026 A 
ATOM      9  C   UNL     1       8.015   0.635  24.624  0.00  0.00    +0.051 A 
ENDROOT
BRANCH   7  10
ATOM     10  C   UNL     1       6.369   1.192  26.464  0.00  0.00    -0.015 A 
ATOM     11  C   UNL     1       6.679   0.890  27.798  0.00  0.00    +0.011 A 
ATOM     12  C   UNL     1       5.671   0.588  28.720  0.00  0.00    +0.039 A 
ATOM     13  C   UNL     1       4.344   0.621  28.322  0.00  0.00    +0.123 A 
ATOM     14  F   UNL     1       3.376   0.374  29.213  0.00  0.00    -0.205 F 
ATOM     15  C   UNL     1       4.004   0.915  27.009  0.00  0.00    +0.039 A 
ATOM     16  C   UNL     1       5.017   1.170  26.081  0.00  0.00    +0.011 A 
ENDBRANCH   7  10
BRANCH   1  18
ATOM     17  C   UNL     1      10.681  -0.516  23.471  0.00  0.00    +0.030 C 
ATOM     18  C   UNL     1       9.968   0.739  22.958  0.00  0.00    +0.082 C 
ATOM     19  C   UNL     1       9.404   0.606  21.543  0.00  0.00    +0.030 C 
ENDBRANCH   1  18
BRANCH   9  20
ATOM     20  C   UNL     1       7.784  -0.763  24.448  0.00  0.00    +0.025 C 
ATOM     21  C   UNL     1       6.871  -1.212  23.569  0.00  0.00    +0.006 C 
BRANCH  21  22
ATOM     22  C   UNL     1       6.401  -2.641  23.413  0.00  0.00    +0.140 C 
BRANCH  22  23
ATOM     23  O   UNL     1       5.436  -2.758  22.365  0.00  0.00    -0.388 OA
ATOM     24  H   UNL     1       5.932  -2.858  21.533  0.00  0.00    +0.210 HD
ENDBRANCH  22  23
BRANCH  22  25
ATOM     25  C   UNL     1       7.570  -3.594  23.092  0.00  0.00    +0.067 C 
BRANCH  25  26
ATOM     26  C   UNL     1       7.602  -4.835  24.007  0.00  0.00    +0.128 C 
BRANCH  26  27
ATOM     27  O   UNL     1       8.954  -5.272  24.231  0.00  0.00    -0.391 OA
ATOM     28  H   UNL     1       8.900  -6.071  24.807  0.00  0.00    +0.210 HD
ENDBRANCH  26  27
BRANCH  26  29
ATOM     29  C   UNL     1       7.000  -4.536  25.381  0.00  0.00    +0.151 C 
BRANCH  29  30
ATOM     30  C   UNL     1       7.979  -4.737  26.519  0.00  0.00    +0.307 C 
ATOM     31  O   UNL     1       8.761  -3.869  26.888  0.00  0.00    -0.251 OA
BRANCH  30  32
ATOM     32  O   UNL     1       7.986  -5.980  27.044  0.00  0.00    -0.481 OA
ATOM     33  H   UNL     1       8.195  -6.662  26.357  0.00  0.00    +0.295 HD
ENDBRANCH  30  32
ENDBRANCH  29  30
ENDBRANCH  26  29
ENDBRANCH  25  26
ENDBRANCH  22  25
ENDBRANCH  21  22
ENDBRANCH   9  20
TORSDOF 11
ENDMDL
MODEL 8
REMARK VINA RESULT:      -5.5      3.314      5.843
REMARK  Name = 
REMARK  13 active torsions:
REMARK  status: ('A' for Active; 'I' for Inactive)
REMARK    1  A    between atoms: C_1  and  C_2
REMARK    2  A    between atoms: C_2  and  C_3
REMARK    3  A    between atoms: C_2  and  N_4
REMARK    4  A    between atoms: C_5  and  C_6
REMARK    5  A    between atoms: C_7  and  C_8
REMARK    6  A    between atoms: C_8  and  O_10
REMARK    7  A    between atoms: C_8  and  C_11
REMARK    8  A    between atoms: C_11  and  C_12
REMARK    9  A    between atoms: C_12  and  O_14
REMARK   10  A    between atoms: C_12  and  C_15
REMARK   11  A    between atoms: C_15  and  C_16
REMARK   12  A    between atoms: C_16  and  O_17
REMARK   13  A    between atoms: C_19  and  C_26
REMARK                            x       y       z     vdW  Elec       q    Type
REMARK                         _______ _______ _______ _____ _____    ______ ____
ROOT
ATOM      1  N   UNL     1       9.244   2.175  24.169  0.00  0.00    -0.337 N 
ATOM      2  C   UNL     1       9.248   3.551  24.382  0.00  0.00    +0.050 A 
ATOM      3  C   UNL     1       8.240   3.836  25.308  0.00  0.00    +0.008 A 
ATOM      4  C   UNL     1       8.094   5.175  25.746  0.00  0.00    +0.010 A 
ATOM      5  C   UNL     1       8.904   6.186  25.223  0.00  0.00    +0.001 A 
ATOM      6  C   UNL     1       9.876   5.884  24.281  0.00  0.00    +0.002 A 
ATOM      7  C   UNL     1       7.561   2.602  25.602  0.00  0.00    +0.015 A 
ATOM      8  C   UNL     1      10.069   4.569  23.853  0.00  0.00    +0.026 A 
ATOM      9  C   UNL     1       8.174   1.606  24.848  0.00  0.00    +0.051 A 
ENDROOT
BRANCH   7  10
ATOM     10  C   UNL     1       6.407   2.375  26.488  0.00  0.00    -0.015 A 
ATOM     11  C   UNL     1       6.592   2.185  27.865  0.00  0.00    +0.011 A 
ATOM     12  C   UNL     1       5.499   1.997  28.718  0.00  0.00    +0.039 A 
ATOM     13  C   UNL     1       4.213   2.036  28.205  0.00  0.00    +0.123 A 
ATOM     14  F   UNL     1       3.164   1.900  29.027  0.00  0.00    -0.205 F 
ATOM     15  C   UNL     1       3.995   2.221  26.848  0.00  0.00    +0.039 A 
ATOM     16  C   UNL     1       5.092   2.361  25.992  0.00  0.00    +0.011 A 
ENDBRANCH   7  10
BRANCH   1  18
ATOM     17  C   UNL     1      10.914   0.301  24.048  0.00  0.00    +0.030 C 
ATOM     18  C   UNL     1      10.261   1.500  23.353  0.00  0.00    +0.082 C 
ATOM     19  C   UNL     1       9.792   1.219  21.925  0.00  0.00    +0.030 C 
ENDBRANCH   1  18
BRANCH   9  20
ATOM     20  C   UNL     1       7.901   0.208  24.768  0.00  0.00    +0.025 C 
ATOM     21  C   UNL     1       7.075  -0.288  23.830  0.00  0.00    +0.006 C 
BRANCH  21  22
ATOM     22  C   UNL     1       6.561  -1.708  23.745  0.00  0.00    +0.140 C 
BRANCH  22  23
ATOM     23  O   UNL     1       5.785  -1.907  22.561  0.00  0.00    -0.388 OA
ATOM     24  H   UNL     1       5.512  -1.026  22.249  0.00  0.00    +0.210 HD
ENDBRANCH  22  23
BRANCH  22  25
ATOM     25  C   UNL     1       7.713  -2.733  23.736  0.00  0.00    +0.067 C 
BRANCH  25  26
ATOM     26  C   UNL     1       7.226  -4.186  23.902  0.00  0.00    +0.128 C 
BRANCH  26  27
ATOM     27  O   UNL     1       5.804  -4.228  24.119  0.00  0.00    -0.391 OA
ATOM     28  H   UNL     1       5.384  -3.860  23.306  0.00  0.00    +0.210 HD
ENDBRANCH  26  27
BRANCH  26  29
ATOM     29  C   UNL     1       7.507  -5.020  22.651  0.00  0.00    +0.151 C 
BRANCH  29  30
ATOM     30  C   UNL     1       6.270  -5.284  21.819  0.00  0.00    +0.307 C 
ATOM     31  O   UNL     1       5.777  -4.449  21.071  0.00  0.00    -0.251 OA
BRANCH  30  32
ATOM     32  O   UNL     1       5.697  -6.488  22.027  0.00  0.00    -0.481 OA
ATOM     33  H   UNL     1       5.356  -6.571  22.954  0.00  0.00    +0.295 HD
ENDBRANCH  30  32
ENDBRANCH  29  30
ENDBRANCH  26  29
ENDBRANCH  25  26
ENDBRANCH  22  25
ENDBRANCH  21  22
ENDBRANCH   9  20
TORSDOF 11
ENDMDL
MODEL 9
REMARK VINA RESULT:      -5.5      3.525      6.583
REMARK  Name = 
REMARK  13 active torsions:
REMARK  status: ('A' for Active; 'I' for Inactive)
REMARK    1  A    between atoms: C_1  and  C_2
REMARK    2  A    between atoms: C_2  and  C_3
REMARK    3  A    between atoms: C_2  and  N_4
REMARK    4  A    between atoms: C_5  and  C_6
REMARK    5  A    between atoms: C_7  and  C_8
REMARK    6  A    between atoms: C_8  and  O_10
REMARK    7  A    between atoms: C_8  and  C_11
REMARK    8  A    between atoms: C_11  and  C_12
REMARK    9  A    between atoms: C_12  and  O_14
REMARK   10  A    between atoms: C_12  and  C_15
REMARK   11  A    between atoms: C_15  and  C_16
REMARK   12  A    between atoms: C_16  and  O_17
REMARK   13  A    between atoms: C_19  and  C_26
REMARK                            x       y       z     vdW  Elec       q    Type
REMARK                         _______ _______ _______ _____ _____    ______ ____
ROOT
ATOM      1  N   UNL     1       7.725  -3.351  23.653  0.00  0.00    -0.337 N 
ATOM      2  C   UNL     1       7.048  -4.389  23.016  0.00  0.00    +0.050 A 
ATOM      3  C   UNL     1       6.215  -4.992  23.965  0.00  0.00    +0.008 A 
ATOM      4  C   UNL     1       5.360  -6.036  23.536  0.00  0.00    +0.010 A 
ATOM      5  C   UNL     1       5.392  -6.482  22.212  0.00  0.00    +0.001 A 
ATOM      6  C   UNL     1       6.250  -5.890  21.297  0.00  0.00    +0.002 A 
ATOM      7  C   UNL     1       6.457  -4.344  25.227  0.00  0.00    +0.015 A 
ATOM      8  C   UNL     1       7.081  -4.835  21.678  0.00  0.00    +0.026 A 
ATOM      9  C   UNL     1       7.427  -3.370  25.009  0.00  0.00    +0.051 A 
ENDROOT
BRANCH   7  10
ATOM     10  C   UNL     1       5.859  -4.636  26.540  0.00  0.00    -0.015 A 
ATOM     11  C   UNL     1       4.615  -4.092  26.893  0.00  0.00    +0.011 A 
ATOM     12  C   UNL     1       4.025  -4.387  28.127  0.00  0.00    +0.039 A 
ATOM     13  C   UNL     1       4.659  -5.256  29.000  0.00  0.00    +0.123 A 
ATOM     14  F   UNL     1       4.075  -5.573  30.164  0.00  0.00    -0.205 F 
ATOM     15  C   UNL     1       5.891  -5.810  28.682  0.00  0.00    +0.039 A 
ATOM     16  C   UNL     1       6.498  -5.476  27.469  0.00  0.00    +0.011 A 
ENDBRANCH   7  10
BRANCH   1  18
ATOM     17  C   UNL     1       7.913  -1.078  22.598  0.00  0.00    +0.030 C 
ATOM     18  C   UNL     1       8.590  -2.412  22.928  0.00  0.00    +0.082 C 
ATOM     19  C   UNL     1       9.979  -2.273  23.554  0.00  0.00    +0.030 C 
ENDBRANCH   1  18
BRANCH   9  20
ATOM     20  C   UNL     1       8.022  -2.442  25.915  0.00  0.00    +0.025 C 
ATOM     21  C   UNL     1       7.318  -1.415  26.423  0.00  0.00    +0.006 C 
BRANCH  21  22
ATOM     22  C   UNL     1       7.865  -0.267  27.241  0.00  0.00    +0.140 C 
BRANCH  22  23
ATOM     23  O   UNL     1       9.292  -0.308  27.302  0.00  0.00    -0.388 OA
ATOM     24  H   UNL     1       9.621  -0.061  26.419  0.00  0.00    +0.210 HD
ENDBRANCH  22  23
BRANCH  22  25
ATOM     25  C   UNL     1       7.452   1.098  26.657  0.00  0.00    +0.067 C 
BRANCH  25  26
ATOM     26  C   UNL     1       7.704   1.203  25.139  0.00  0.00    +0.128 C 
BRANCH  26  27
ATOM     27  O   UNL     1       6.563   1.763  24.467  0.00  0.00    -0.391 OA
ATOM     28  H   UNL     1       6.792   1.805  23.509  0.00  0.00    +0.210 HD
ENDBRANCH  26  27
BRANCH  26  29
ATOM     29  C   UNL     1       8.892   2.114  24.828  0.00  0.00    +0.151 C 
BRANCH  29  30
ATOM     30  C   UNL     1      10.093   1.367  24.286  0.00  0.00    +0.307 C 
ATOM     31  O   UNL     1      10.832   0.690  24.989  0.00  0.00    -0.251 OA
BRANCH  30  32
ATOM     32  O   UNL     1      10.340   1.572  22.975  0.00  0.00    -0.481 OA
ATOM     33  H   UNL     1      10.414   2.538  22.767  0.00  0.00    +0.295 HD
ENDBRANCH  30  32
ENDBRANCH  29  30
ENDBRANCH  26  29
ENDBRANCH  25  26
ENDBRANCH  22  25
ENDBRANCH  21  22
ENDBRANCH   9  20
TORSDOF 11
ENDMDL
