MODEL 1
REMARK VINA RESULT:      -7.0      0.000      0.000
REMARK  Name = 
REMARK  9 active torsions:
REMARK  status: ('A' for Active; 'I' for Inactive)
REMARK    1  A    between atoms: C_2  and  C_3
REMARK    2  A    between atoms: C_2  and  C_13
REMARK    3  A    between atoms: C_2  and  C_16
REMARK    4  A    between atoms: C_3  and  C_4
REMARK    5  A    between atoms: C_13  and  O_14
REMARK    6  A    between atoms: C_16  and  C_18
REMARK    7  A    between atoms: C_16  and  C_28
REMARK    8  A    between atoms: C_18  and  C_19
REMARK    9  A    between atoms: C_28  and  O_29
REMARK                            x       y       z     vdW  Elec       q    Type
REMARK                         _______ _______ _______ _____ _____    ______ ____
ROOT
ATOM      1  C   UNL     1       8.718  -1.521  24.936  0.00  0.00    +0.116 C 
ENDROOT
BRANCH   1   2
ATOM      2  C   UNL     1       9.404  -0.361  25.639  0.00  0.00    +0.309 C 
ATOM      3  O   UNL     1      10.129   0.448  25.077  0.00  0.00    -0.251 OA
BRANCH   2   4
ATOM      4  O   UNL     1       9.268  -0.378  26.983  0.00  0.00    -0.480 OA
ATOM      5  H   UNL     1       9.682   0.355  27.485  0.00  0.00    +0.295 HD
ENDBRANCH   2   4
ENDBRANCH   1   2
BRANCH   1   6
ATOM      6  C   UNL     1       8.740  -1.115  23.363  0.00  0.00    +0.116 C 
BRANCH   6   7
ATOM      7  C   UNL     1       9.905  -1.904  22.783  0.00  0.00    +0.309 C 
ATOM      8  O   UNL     1      10.585  -2.686  23.442  0.00  0.00    -0.251 OA
BRANCH   7   9
ATOM      9  O   UNL     1      10.259  -1.557  21.530  0.00  0.00    -0.480 OA
ATOM     10  H   UNL     1      11.174  -1.772  21.258  0.00  0.00    +0.295 HD
ENDBRANCH   7   9
ENDBRANCH   6   7
BRANCH   6  11
ATOM     11  C   UNL     1       7.495  -1.464  22.487  0.00  0.00    +0.050 C 
BRANCH  11  12
ATOM     12  C   UNL     1       6.816  -2.861  22.453  0.00  0.00    -0.043 A 
ATOM     13  C   UNL     1       5.434  -3.118  22.447  0.00  0.00    +0.053 A 
ATOM     14  C   UNL     1       4.983  -4.399  22.801  0.00  0.00    +0.166 A 
ATOM     15  C   UNL     1       5.852  -5.417  23.124  0.00  0.00    +0.166 A 
ATOM     16  O   UNL     1       5.225  -6.540  23.567  0.00  0.00    -0.453 OA
ATOM     17  C   UNL     1       3.845  -6.140  23.461  0.00  0.00    +0.466 C 
ATOM     18  C   UNL     1       7.207  -5.250  23.023  0.00  0.00    +0.050 A 
ATOM     19  O   UNL     1       3.684  -4.791  22.947  0.00  0.00    -0.453 OA
ATOM     20  C   UNL     1       7.684  -3.975  22.670  0.00  0.00    +0.007 A 
ENDBRANCH  11  12
ENDBRANCH   6  11
ENDBRANCH   1   6
BRANCH   1  21
ATOM     21  C   UNL     1       7.330  -1.719  25.641  0.00  0.00    +0.050 C 
BRANCH  21  22
ATOM     22  C   UNL     1       6.769  -3.082  26.113  0.00  0.00    -0.043 A 
ATOM     23  C   UNL     1       5.414  -3.477  26.245  0.00  0.00    +0.053 A 
ATOM     24  C   UNL     1       5.109  -4.776  26.701  0.00  0.00    +0.166 A 
ATOM     25  C   UNL     1       6.080  -5.689  27.018  0.00  0.00    +0.166 A 
ATOM     26  O   UNL     1       5.591  -6.887  27.438  0.00  0.00    -0.453 OA
ATOM     27  C   UNL     1       4.176  -6.652  27.328  0.00  0.00    +0.466 C 
ATOM     28  C   UNL     1       7.409  -5.367  26.903  0.00  0.00    +0.050 A 
ATOM     29  O   UNL     1       3.857  -5.305  26.885  0.00  0.00    -0.453 OA
ATOM     30  C   UNL     1       7.740  -4.079  26.451  0.00  0.00    +0.007 A 
ENDBRANCH  21  22
ENDBRANCH   1  21
TORSDOF 9
ENDMDL
MODEL 2
REMARK VINA RESULT:      -6.9      2.272      6.030
REMARK  Name = 
REMARK  9 active torsions:
REMARK  status: ('A' for Active; 'I' for Inactive)
REMARK    1  A    between atoms: C_2  and  C_3
REMARK    2  A    between atoms: C_2  and  C_13
REMARK    3  A    between atoms: C_2  and  C_16
REMARK    4  A    between atoms: C_3  and  C_4
REMARK    5  A    between atoms: C_13  and  O_14
REMARK    6  A    between atoms: C_16  and  C_18
REMARK    7  A    between atoms: C_16  and  C_28
REMARK    8  A    between atoms: C_18  and  C_19
REMARK    9  A    between atoms: C_28  and  O_29
REMARK                            x       y       z     vdW  Elec       q    Type
REMARK                         _______ _______ _______ _____ _____    ______ ____
ROOT
ATOM      1  C   UNL     1       8.013  -4.106  23.438  0.00  0.00    +0.116 C 
ENDROOT
BRANCH   1   2
ATOM      2  C   UNL     1       7.243  -4.709  22.274  0.00  0.00    +0.309 C 
ATOM      3  O   UNL     1       6.436  -4.091  21.594  0.00  0.00    -0.251 OA
BRANCH   2   4
ATOM      4  O   UNL     1       7.413  -6.041  22.138  0.00  0.00    -0.480 OA
ATOM      5  H   UNL     1       6.624  -6.610  22.265  0.00  0.00    +0.295 HD
ENDBRANCH   2   4
ENDBRANCH   1   2
BRANCH   1   6
ATOM      6  C   UNL     1       7.824  -5.173  24.648  0.00  0.00    +0.116 C 
BRANCH   6   7
ATOM      7  C   UNL     1       9.050  -4.973  25.527  0.00  0.00    +0.309 C 
ATOM      8  O   UNL     1       9.011  -4.422  26.625  0.00  0.00    -0.251 OA
BRANCH   7   9
ATOM      9  O   UNL     1      10.226  -5.283  24.945  0.00  0.00    -0.480 OA
ATOM     10  H   UNL     1      10.347  -6.214  24.671  0.00  0.00    +0.295 HD
ENDBRANCH   7   9
ENDBRANCH   6   7
BRANCH   6  11
ATOM     11  C   UNL     1       6.584  -5.022  25.585  0.00  0.00    +0.050 C 
BRANCH  11  12
ATOM     12  C   UNL     1       5.154  -5.511  25.226  0.00  0.00    -0.043 A 
ATOM     13  C   UNL     1       4.643  -6.806  25.412  0.00  0.00    +0.053 A 
ATOM     14  C   UNL     1       3.495  -7.188  24.699  0.00  0.00    +0.166 A 
ATOM     15  C   UNL     1       2.840  -6.325  23.851  0.00  0.00    +0.166 A 
ATOM     16  O   UNL     1       1.833  -6.917  23.152  0.00  0.00    -0.453 OA
ATOM     17  C   UNL     1       1.893  -8.257  23.674  0.00  0.00    +0.466 C 
ATOM     18  C   UNL     1       3.227  -5.017  23.734  0.00  0.00    +0.050 A 
ATOM     19  O   UNL     1       2.928  -8.429  24.678  0.00  0.00    -0.453 OA
ATOM     20  C   UNL     1       4.374  -4.610  24.439  0.00  0.00    +0.007 A 
ENDBRANCH  11  12
ENDBRANCH   6  11
ENDBRANCH   1   6
BRANCH   1  21
ATOM     21  C   UNL     1       7.469  -2.647  23.631  0.00  0.00    +0.050 C 
BRANCH  21  22
ATOM     22  C   UNL     1       8.263  -1.360  23.301  0.00  0.00    -0.043 A 
ATOM     23  C   UNL     1       8.567  -0.270  24.155  0.00  0.00    +0.053 A 
ATOM     24  C   UNL     1       9.306   0.821  23.656  0.00  0.00    +0.166 A 
ATOM     25  C   UNL     1       9.758   0.871  22.363  0.00  0.00    +0.166 A 
ATOM     26  O   UNL     1      10.452   2.002  22.068  0.00  0.00    -0.453 OA
ATOM     27  C   UNL     1      10.423   2.674  23.339  0.00  0.00    +0.466 C 
ATOM     28  C   UNL     1       9.502  -0.158  21.491  0.00  0.00    +0.050 A 
ATOM     29  O   UNL     1       9.675   1.946  24.350  0.00  0.00    -0.453 OA
ATOM     30  C   UNL     1       8.767  -1.258  21.964  0.00  0.00    +0.007 A 
ENDBRANCH  21  22
ENDBRANCH   1  21
TORSDOF 9
ENDMDL
MODEL 3
REMARK VINA RESULT:      -6.9      2.301      5.607
REMARK  Name = 
REMARK  9 active torsions:
REMARK  status: ('A' for Active; 'I' for Inactive)
REMARK    1  A    between atoms: C_2  and  C_3
REMARK    2  A    between atoms: C_2  and  C_13
REMARK    3  A    between atoms: C_2  and  C_16
REMARK    4  A    between atoms: C_3  and  C_4
REMARK    5  A    between atoms: C_13  and  O_14
REMARK    6  A    between atoms: C_16  and  C_18
REMARK    7  A    between atoms: C_16  and  C_28
REMARK    8  A    between atoms: C_18  and  C_19
REMARK    9  A    between atoms: C_28  and  O_29
REMARK                            x       y       z     vdW  Elec       q    Type
REMARK                         _______ _______ _______ _____ _____    ______ ____
ROOT
ATOM      1  C   UNL     1       7.710  -5.359  24.366  0.00  0.00    +0.116 C 
ENDROOT
BRANCH   1   2
ATOM      2  C   UNL     1       8.849  -5.302  25.371  0.00  0.00    +0.309 C 
ATOM      3  O   UNL     1       9.999  -4.996  25.086  0.00  0.00    -0.251 OA
BRANCH   2   4
ATOM      4  O   UNL     1       8.521  -5.764  26.597  0.00  0.00    -0.480 OA
ATOM      5  H   UNL     1       7.709  -6.308  26.668  0.00  0.00    +0.295 HD
ENDBRANCH   2   4
ENDBRANCH   1   2
BRANCH   1   6
ATOM      6  C   UNL     1       8.071  -4.210  23.275  0.00  0.00    +0.116 C 
BRANCH   6   7
ATOM      7  C   UNL     1       7.165  -4.512  22.090  0.00  0.00    +0.309 C 
ATOM      8  O   UNL     1       6.382  -3.694  21.614  0.00  0.00    -0.251 OA
BRANCH   7   9
ATOM      9  O   UNL     1       7.147  -5.802  21.701  0.00  0.00    -0.480 OA
ATOM     10  H   UNL     1       6.279  -6.170  21.441  0.00  0.00    +0.295 HD
ENDBRANCH   7   9
ENDBRANCH   6   7
BRANCH   6  11
ATOM     11  C   UNL     1       7.811  -2.717  23.655  0.00  0.00    +0.050 C 
BRANCH  11  12
ATOM     12  C   UNL     1       8.780  -1.550  23.319  0.00  0.00    -0.043 A 
ATOM     13  C   UNL     1       9.303  -0.612  24.226  0.00  0.00    +0.053 A 
ATOM     14  C   UNL     1       9.838   0.585  23.726  0.00  0.00    +0.166 A 
ATOM     15  C   UNL     1       9.894   0.854  22.377  0.00  0.00    +0.166 A 
ATOM     16  O   UNL     1      10.321   2.115  22.096  0.00  0.00    -0.453 OA
ATOM     17  C   UNL     1      10.567   2.619  23.423  0.00  0.00    +0.466 C 
ATOM     18  C   UNL     1       9.512  -0.081  21.452  0.00  0.00    +0.050 A 
ATOM     19  O   UNL     1      10.290   1.642  24.461  0.00  0.00    -0.453 OA
ATOM     20  C   UNL     1       8.973  -1.289  21.929  0.00  0.00    +0.007 A 
ENDBRANCH  11  12
ENDBRANCH   6  11
ENDBRANCH   1   6
BRANCH   1  21
ATOM     21  C   UNL     1       6.379  -5.227  25.185  0.00  0.00    +0.050 C 
BRANCH  21  22
ATOM     22  C   UNL     1       5.007  -5.781  24.731  0.00  0.00    -0.043 A 
ATOM     23  C   UNL     1       4.488  -7.089  24.896  0.00  0.00    +0.053 A 
ATOM     24  C   UNL     1       3.205  -7.398  24.401  0.00  0.00    +0.166 A 
ATOM     25  C   UNL     1       2.421  -6.470  23.766  0.00  0.00    +0.166 A 
ATOM     26  O   UNL     1       1.216  -6.954  23.361  0.00  0.00    -0.453 OA
ATOM     27  C   UNL     1       1.298  -8.309  23.838  0.00  0.00    +0.466 C 
ATOM     28  C   UNL     1       2.865  -5.184  23.584  0.00  0.00    +0.050 A 
ATOM     29  O   UNL     1       2.567  -8.610  24.478  0.00  0.00    -0.453 OA
ATOM     30  C   UNL     1       4.142  -4.851  24.067  0.00  0.00    +0.007 A 
ENDBRANCH  21  22
ENDBRANCH   1  21
TORSDOF 9
ENDMDL
MODEL 4
REMARK VINA RESULT:      -6.9      2.211      5.575
REMARK  Name = 
REMARK  9 active torsions:
REMARK  status: ('A' for Active; 'I' for Inactive)
REMARK    1  A    between atoms: C_2  and  C_3
REMARK    2  A    between atoms: C_2  and  C_13
REMARK    3  A    between atoms: C_2  and  C_16
REMARK    4  A    between atoms: C_3  and  C_4
REMARK    5  A    between atoms: C_13  and  O_14
REMARK    6  A    between atoms: C_16  and  C_18
REMARK    7  A    between atoms: C_16  and  C_28
REMARK    8  A    between atoms: C_18  and  C_19
REMARK    9  A    between atoms: C_28  and  O_29
REMARK                            x       y       z     vdW  Elec       q    Type
REMARK                         _______ _______ _______ _____ _____    ______ ____
ROOT
ATOM      1  C   UNL     1       7.447  -2.727  26.708  0.00  0.00    +0.116 C 
ENDROOT
BRANCH   1   2
ATOM      2  C   UNL     1       7.528  -1.210  26.771  0.00  0.00    +0.309 C 
ATOM      3  O   UNL     1       8.452  -0.595  27.284  0.00  0.00    -0.251 OA
BRANCH   2   4
ATOM      4  O   UNL     1       6.411  -0.585  26.340  0.00  0.00    -0.480 OA
ATOM      5  H   UNL     1       5.946  -0.005  26.981  0.00  0.00    +0.295 HD
ENDBRANCH   2   4
ENDBRANCH   1   2
BRANCH   1   6
ATOM      6  C   UNL     1       8.873  -3.185  26.079  0.00  0.00    +0.116 C 
BRANCH   6   7
ATOM      7  C   UNL     1       8.983  -4.664  26.421  0.00  0.00    +0.309 C 
ATOM      8  O   UNL     1       8.246  -5.227  27.227  0.00  0.00    -0.251 OA
BRANCH   7   9
ATOM      9  O   UNL     1      10.064  -5.288  25.912  0.00  0.00    -0.480 OA
ATOM     10  H   UNL     1      10.668  -4.744  25.367  0.00  0.00    +0.295 HD
ENDBRANCH   7   9
ENDBRANCH   6   7
BRANCH   6  11
ATOM     11  C   UNL     1       9.074  -3.077  24.534  0.00  0.00    +0.050 C 
BRANCH  11  12
ATOM     12  C   UNL     1       9.640  -1.823  23.813  0.00  0.00    -0.043 A 
ATOM     13  C   UNL     1      10.191  -0.685  24.426  0.00  0.00    +0.053 A 
ATOM     14  C   UNL     1      10.298   0.499  23.679  0.00  0.00    +0.166 A 
ATOM     15  C   UNL     1       9.910   0.571  22.361  0.00  0.00    +0.166 A 
ATOM     16  O   UNL     1       9.965   1.831  21.850  0.00  0.00    -0.453 OA
ATOM     17  C   UNL     1      10.468   2.561  22.985  0.00  0.00    +0.466 C 
ATOM     18  C   UNL     1       9.485  -0.543  21.687  0.00  0.00    +0.050 A 
ATOM     19  O   UNL     1      10.709   1.716  24.141  0.00  0.00    -0.453 OA
ATOM     20  C   UNL     1       9.370  -1.741  22.412  0.00  0.00    +0.007 A 
ENDBRANCH  11  12
ENDBRANCH   6  11
ENDBRANCH   1   6
BRANCH   1  21
ATOM     21  C   UNL     1       6.134  -3.077  25.924  0.00  0.00    +0.050 C 
BRANCH  21  22
ATOM     22  C   UNL     1       6.089  -3.600  24.468  0.00  0.00    -0.043 A 
ATOM     23  C   UNL     1       6.270  -4.926  24.004  0.00  0.00    +0.053 A 
ATOM     24  C   UNL     1       6.195  -5.197  22.623  0.00  0.00    +0.166 A 
ATOM     25  C   UNL     1       5.942  -4.219  21.696  0.00  0.00    +0.166 A 
ATOM     26  O   UNL     1       5.907  -4.674  20.414  0.00  0.00    -0.453 OA
ATOM     27  C   UNL     1       6.139  -6.078  20.621  0.00  0.00    +0.466 C 
ATOM     28  C   UNL     1       5.751  -2.917  22.086  0.00  0.00    +0.050 A 
ATOM     29  O   UNL     1       6.349  -6.419  22.018  0.00  0.00    -0.453 OA
ATOM     30  C   UNL     1       5.821  -2.621  23.457  0.00  0.00    +0.007 A 
ENDBRANCH  21  22
ENDBRANCH   1  21
TORSDOF 9
ENDMDL
MODEL 5
REMARK VINA RESULT:      -6.8      2.409      5.980
REMARK  Name = 
REMARK  9 active torsions:
REMARK  status: ('A' for Active; 'I' for Inactive)
REMARK    1  A    between atoms: C_2  and  C_3
REMARK    2  A    between atoms: C_2  and  C_13
REMARK    3  A    between atoms: C_2  and  C_16
REMARK    4  A    between atoms: C_3  and  C_4
REMARK    5  A    between atoms: C_13  and  O_14
REMARK    6  A    between atoms: C_16  and  C_18
REMARK    7  A    between atoms: C_16  and  C_28
REMARK    8  A    between atoms: C_18  and  C_19
REMARK    9  A    between atoms: C_28  and  O_29
REMARK                            x       y       z     vdW  Elec       q    Type
REMARK                         _______ _______ _______ _____ _____    ______ ____
ROOT
ATOM      1  C   UNL     1       8.387  -3.625  25.137  0.00  0.00    +0.116 C 
ENDROOT
BRANCH   1   2
ATOM      2  C   UNL     1       8.902  -4.819  25.925  0.00  0.00    +0.309 C 
ATOM      3  O   UNL     1       8.651  -5.019  27.105  0.00  0.00    -0.251 OA
BRANCH   2   4
ATOM      4  O   UNL     1       9.794  -5.576  25.251  0.00  0.00    -0.480 OA
ATOM      5  H   UNL     1       9.536  -6.501  25.050  0.00  0.00    +0.295 HD
ENDBRANCH   2   4
ENDBRANCH   1   2
BRANCH   1   6
ATOM      6  C   UNL     1       7.004  -4.149  24.463  0.00  0.00    +0.116 C 
BRANCH   6   7
ATOM      7  C   UNL     1       7.397  -4.549  23.049  0.00  0.00    +0.309 C 
ATOM      8  O   UNL     1       7.151  -3.862  22.060  0.00  0.00    -0.251 OA
BRANCH   7   9
ATOM      9  O   UNL     1       7.882  -5.800  22.924  0.00  0.00    -0.480 OA
ATOM     10  H   UNL     1       7.648  -6.433  23.632  0.00  0.00    +0.295 HD
ENDBRANCH   7   9
ENDBRANCH   6   7
BRANCH   6  11
ATOM     11  C   UNL     1       6.297  -5.393  25.089  0.00  0.00    +0.050 C 
BRANCH  11  12
ATOM     12  C   UNL     1       4.833  -5.811  24.781  0.00  0.00    -0.043 A 
ATOM     13  C   UNL     1       4.272  -7.087  24.965  0.00  0.00    +0.053 A 
ATOM     14  C   UNL     1       3.082  -7.405  24.294  0.00  0.00    +0.166 A 
ATOM     15  C   UNL     1       2.432  -6.498  23.488  0.00  0.00    +0.166 A 
ATOM     16  O   UNL     1       1.372  -7.032  22.821  0.00  0.00    -0.453 OA
ATOM     17  C   UNL     1       1.393  -8.384  23.318  0.00  0.00    +0.466 C 
ATOM     18  C   UNL     1       2.871  -5.206  23.377  0.00  0.00    +0.050 A 
ATOM     19  O   UNL     1       2.459  -8.619  24.276  0.00  0.00    -0.453 OA
ATOM     20  C   UNL     1       4.062  -4.863  24.040  0.00  0.00    +0.007 A 
ENDBRANCH  11  12
ENDBRANCH   6  11
ENDBRANCH   1   6
BRANCH   1  21
ATOM     21  C   UNL     1       9.555  -3.168  24.195  0.00  0.00    +0.050 C 
BRANCH  21  22
ATOM     22  C   UNL     1       9.755  -1.722  23.679  0.00  0.00    -0.043 A 
ATOM     23  C   UNL     1      10.071  -0.558  24.423  0.00  0.00    +0.053 A 
ATOM     24  C   UNL     1      10.207   0.678  23.759  0.00  0.00    +0.166 A 
ATOM     25  C   UNL     1      10.055   0.802  22.403  0.00  0.00    +0.166 A 
ATOM     26  O   UNL     1      10.226   2.072  21.946  0.00  0.00    -0.453 OA
ATOM     27  C   UNL     1      10.538   2.758  23.171  0.00  0.00    +0.466 C 
ATOM     28  C   UNL     1       9.757  -0.291  21.628  0.00  0.00    +0.050 A 
ATOM     29  O   UNL     1      10.504   1.888  24.334  0.00  0.00    -0.453 OA
ATOM     30  C   UNL     1       9.615  -1.534  22.266  0.00  0.00    +0.007 A 
ENDBRANCH  21  22
ENDBRANCH   1  21
TORSDOF 9
ENDMDL
MODEL 6
REMARK VINA RESULT:      -6.7      2.408      5.706
REMARK  Name = 
REMARK  9 active torsions:
REMARK  status: ('A' for Active; 'I' for Inactive)
REMARK    1  A    between atoms: C_2  and  C_3
REMARK    2  A    between atoms: C_2  and  C_13
REMARK    3  A    between atoms: C_2  and  C_16
REMARK    4  A    between atoms: C_3  and  C_4
REMARK    5  A    between atoms: C_13  and  O_14
REMARK    6  A    between atoms: C_16  and  C_18
REMARK    7  A    between atoms: C_16  and  C_28
REMARK    8  A    between atoms: C_18  and  C_19
REMARK    9  A    between atoms: C_28  and  O_29
REMARK                            x       y       z     vdW  Elec       q    Type
REMARK                         _______ _______ _______ _____ _____    ______ ____
ROOT
ATOM      1  C   UNL     1       7.177  -3.964  24.448  0.00  0.00    +0.116 C 
ENDROOT
BRANCH   1   2
ATOM      2  C   UNL     1       7.567  -4.437  23.057  0.00  0.00    +0.309 C 
ATOM      3  O   UNL     1       7.304  -3.829  22.029  0.00  0.00    -0.251 OA
BRANCH   2   4
ATOM      4  O   UNL     1       8.108  -5.674  23.031  0.00  0.00    -0.480 OA
ATOM      5  H   UNL     1       7.897  -6.239  22.258  0.00  0.00    +0.295 HD
ENDBRANCH   2   4
ENDBRANCH   1   2
BRANCH   1   6
ATOM      6  C   UNL     1       8.571  -3.462  25.114  0.00  0.00    +0.116 C 
BRANCH   6   7
ATOM      7  C   UNL     1       9.056  -4.654  25.926  0.00  0.00    +0.309 C 
ATOM      8  O   UNL     1       8.774  -4.823  27.110  0.00  0.00    -0.251 OA
BRANCH   7   9
ATOM      9  O   UNL     1       9.969  -5.430  25.309  0.00  0.00    -0.480 OA
ATOM     10  H   UNL     1       9.624  -6.181  24.787  0.00  0.00    +0.295 HD
ENDBRANCH   7   9
ENDBRANCH   6   7
BRANCH   6  11
ATOM     11  C   UNL     1       9.749  -3.070  24.166  0.00  0.00    +0.050 C 
BRANCH  11  12
ATOM     12  C   UNL     1       9.999  -1.632  23.633  0.00  0.00    -0.043 A 
ATOM     13  C   UNL     1      10.123  -0.465  24.406  0.00  0.00    +0.053 A 
ATOM     14  C   UNL     1       9.960   0.780  23.779  0.00  0.00    +0.166 A 
ATOM     15  C   UNL     1       9.714   0.894  22.430  0.00  0.00    +0.166 A 
ATOM     16  O   UNL     1       9.454   2.170  22.035  0.00  0.00    -0.453 OA
ATOM     17  C   UNL     1       9.595   2.874  23.284  0.00  0.00    +0.466 C 
ATOM     18  C   UNL     1       9.709  -0.207  21.616  0.00  0.00    +0.050 A 
ATOM     19  O   UNL     1       9.945   2.001  24.390  0.00  0.00    -0.453 OA
ATOM     20  C   UNL     1       9.870  -1.466  22.220  0.00  0.00    +0.007 A 
ENDBRANCH  11  12
ENDBRANCH   6  11
ENDBRANCH   1   6
BRANCH   1  21
ATOM     21  C   UNL     1       6.404  -5.149  25.126  0.00  0.00    +0.050 C 
BRANCH  21  22
ATOM     22  C   UNL     1       5.043  -5.704  24.642  0.00  0.00    -0.043 A 
ATOM     23  C   UNL     1       4.524  -7.015  24.793  0.00  0.00    +0.053 A 
ATOM     24  C   UNL     1       3.251  -7.324  24.271  0.00  0.00    +0.166 A 
ATOM     25  C   UNL     1       2.479  -6.396  23.623  0.00  0.00    +0.166 A 
ATOM     26  O   UNL     1       1.284  -6.881  23.192  0.00  0.00    -0.453 OA
ATOM     27  C   UNL     1       1.358  -8.237  23.666  0.00  0.00    +0.466 C 
ATOM     28  C   UNL     1       2.925  -5.109  23.453  0.00  0.00    +0.050 A 
ATOM     29  O   UNL     1       2.615  -8.538  24.331  0.00  0.00    -0.453 OA
ATOM     30  C   UNL     1       4.190  -4.775  23.964  0.00  0.00    +0.007 A 
ENDBRANCH  21  22
ENDBRANCH   1  21
TORSDOF 9
ENDMDL
MODEL 7
REMARK VINA RESULT:      -6.7      3.099      6.573
REMARK  Name = 
REMARK  9 active torsions:
REMARK  status: ('A' for Active; 'I' for Inactive)
REMARK    1  A    between atoms: C_2  and  C_3
REMARK    2  A    between atoms: C_2  and  C_13
REMARK    3  A    between atoms: C_2  and  C_16
REMARK    4  A    between atoms: C_3  and  C_4
REMARK    5  A    between atoms: C_13  and  O_14
REMARK    6  A    between atoms: C_16  and  C_18
REMARK    7  A    between atoms: C_16  and  C_28
REMARK    8  A    between atoms: C_18  and  C_19
REMARK    9  A    between atoms: C_28  and  O_29
REMARK                            x       y       z     vdW  Elec       q    Type
REMARK                         _______ _______ _______ _____ _____    ______ ____
ROOT
ATOM      1  C   UNL     1       7.902  -0.424  23.324  0.00  0.00    +0.116 C 
ENDROOT
BRANCH   1   2
ATOM      2  C   UNL     1       6.519  -0.813  23.822  0.00  0.00    +0.309 C 
ATOM      3  O   UNL     1       6.077  -0.506  24.921  0.00  0.00    -0.251 OA
BRANCH   2   4
ATOM      4  O   UNL     1       5.861  -1.661  23.003  0.00  0.00    -0.480 OA
ATOM      5  H   UNL     1       5.157  -1.281  22.436  0.00  0.00    +0.295 HD
ENDBRANCH   2   4
ENDBRANCH   1   2
BRANCH   1   6
ATOM      6  C   UNL     1       8.601  -1.834  22.921  0.00  0.00    +0.116 C 
BRANCH   6   7
ATOM      7  C   UNL     1       9.777  -1.439  22.040  0.00  0.00    +0.309 C 
ATOM      8  O   UNL     1      10.940  -1.751  22.287  0.00  0.00    -0.251 OA
BRANCH   7   9
ATOM      9  O   UNL     1       9.484  -0.566  21.056  0.00  0.00    -0.480 OA
ATOM     10  H   UNL     1      10.164  -0.440  20.365  0.00  0.00    +0.295 HD
ENDBRANCH   7   9
ENDBRANCH   6   7
BRANCH   6  11
ATOM     11  C   UNL     1       9.188  -2.725  24.062  0.00  0.00    +0.050 C 
BRANCH  11  12
ATOM     12  C   UNL     1       8.450  -3.940  24.689  0.00  0.00    -0.043 A 
ATOM     13  C   UNL     1       7.329  -4.600  24.158  0.00  0.00    +0.053 A 
ATOM     14  C   UNL     1       6.556  -5.408  25.007  0.00  0.00    +0.166 A 
ATOM     15  C   UNL     1       6.880  -5.597  26.331  0.00  0.00    +0.166 A 
ATOM     16  O   UNL     1       5.942  -6.301  27.021  0.00  0.00    -0.453 OA
ATOM     17  C   UNL     1       4.987  -6.574  25.977  0.00  0.00    +0.466 C 
ATOM     18  C   UNL     1       8.031  -5.076  26.860  0.00  0.00    +0.050 A 
ATOM     19  O   UNL     1       5.386  -6.034  24.690  0.00  0.00    -0.453 OA
ATOM     20  C   UNL     1       8.822  -4.264  26.029  0.00  0.00    +0.007 A 
ENDBRANCH  11  12
ENDBRANCH   6  11
ENDBRANCH   1   6
BRANCH   1  21
ATOM     21  C   UNL     1       8.560   0.446  24.452  0.00  0.00    +0.050 C 
BRANCH  21  22
ATOM     22  C   UNL     1       9.096   1.884  24.255  0.00  0.00    -0.043 A 
ATOM     23  C   UNL     1       8.493   3.108  24.640  0.00  0.00    +0.053 A 
ATOM     24  C   UNL     1       9.148   4.325  24.363  0.00  0.00    +0.166 A 
ATOM     25  C   UNL     1      10.365   4.376  23.735  0.00  0.00    +0.166 A 
ATOM     26  O   UNL     1      10.837   5.639  23.555  0.00  0.00    -0.453 OA
ATOM     27  C   UNL     1       9.789   6.407  24.172  0.00  0.00    +0.466 C 
ATOM     28  C   UNL     1      11.002   3.224  23.345  0.00  0.00    +0.050 A 
ATOM     29  O   UNL     1       8.698   5.585  24.666  0.00  0.00    -0.453 OA
ATOM     30  C   UNL     1      10.370   1.998  23.609  0.00  0.00    +0.007 A 
ENDBRANCH  21  22
ENDBRANCH   1  21
TORSDOF 9
ENDMDL
MODEL 8
REMARK VINA RESULT:      -6.6      0.641      3.906
REMARK  Name = 
REMARK  9 active torsions:
REMARK  status: ('A' for Active; 'I' for Inactive)
REMARK    1  A    between atoms: C_2  and  C_3
REMARK    2  A    between atoms: C_2  and  C_13
REMARK    3  A    between atoms: C_2  and  C_16
REMARK    4  A    between atoms: C_3  and  C_4
REMARK    5  A    between atoms: C_13  and  O_14
REMARK    6  A    between atoms: C_16  and  C_18
REMARK    7  A    between atoms: C_16  and  C_28
REMARK    8  A    between atoms: C_18  and  C_19
REMARK    9  A    between atoms: C_28  and  O_29
REMARK                            x       y       z     vdW  Elec       q    Type
REMARK                         _______ _______ _______ _____ _____    ______ ____
ROOT
ATOM      1  C   UNL     1       8.721  -1.293  23.395  0.00  0.00    +0.116 C 
ENDROOT
BRANCH   1   2
ATOM      2  C   UNL     1       9.982  -2.075  23.066  0.00  0.00    +0.309 C 
ATOM      3  O   UNL     1      10.456  -2.944  23.784  0.00  0.00    -0.251 OA
BRANCH   2   4
ATOM      4  O   UNL     1      10.633  -1.627  21.970  0.00  0.00    -0.480 OA
ATOM      5  H   UNL     1      10.095  -1.450  21.170  0.00  0.00    +0.295 HD
ENDBRANCH   2   4
ENDBRANCH   1   2
BRANCH   1   6
ATOM      6  C   UNL     1       8.524  -1.493  24.995  0.00  0.00    +0.116 C 
BRANCH   6   7
ATOM      7  C   UNL     1       9.344  -0.376  25.622  0.00  0.00    +0.309 C 
ATOM      8  O   UNL     1      10.235   0.225  25.025  0.00  0.00    -0.251 OA
BRANCH   7   9
ATOM      9  O   UNL     1       9.152  -0.200  26.945  0.00  0.00    -0.480 OA
ATOM     10  H   UNL     1       9.919   0.118  27.461  0.00  0.00    +0.295 HD
ENDBRANCH   7   9
ENDBRANCH   6   7
BRANCH   6  11
ATOM     11  C   UNL     1       7.085  -1.365  25.588  0.00  0.00    +0.050 C 
BRANCH  11  12
ATOM     12  C   UNL     1       6.294  -2.542  26.224  0.00  0.00    -0.043 A 
ATOM     13  C   UNL     1       6.804  -3.811  26.548  0.00  0.00    +0.053 A 
ATOM     14  C   UNL     1       5.904  -4.869  26.747  0.00  0.00    +0.166 A 
ATOM     15  C   UNL     1       4.541  -4.696  26.666  0.00  0.00    +0.166 A 
ATOM     16  O   UNL     1       3.843  -5.860  26.756  0.00  0.00    -0.453 OA
ATOM     17  C   UNL     1       4.915  -6.804  26.941  0.00  0.00    +0.466 C 
ATOM     18  C   UNL     1       3.995  -3.454  26.476  0.00  0.00    +0.050 A 
ATOM     19  O   UNL     1       6.225  -6.178  26.965  0.00  0.00    -0.453 OA
ATOM     20  C   UNL     1       4.876  -2.377  26.274  0.00  0.00    +0.007 A 
ENDBRANCH  11  12
ENDBRANCH   6  11
ENDBRANCH   1   6
BRANCH   1  21
ATOM     21  C   UNL     1       7.601  -1.816  22.429  0.00  0.00    +0.050 C 
BRANCH  21  22
ATOM     22  C   UNL     1       6.740  -3.077  22.679  0.00  0.00    -0.043 A 
ATOM     23  C   UNL     1       5.328  -3.184  22.724  0.00  0.00    +0.053 A 
ATOM     24  C   UNL     1       4.731  -4.436  22.972  0.00  0.00    +0.166 A 
ATOM     25  C   UNL     1       5.469  -5.575  23.166  0.00  0.00    +0.166 A 
ATOM     26  O   UNL     1       4.716  -6.685  23.390  0.00  0.00    -0.453 OA
ATOM     27  C   UNL     1       3.391  -6.135  23.290  0.00  0.00    +0.466 C 
ATOM     28  C   UNL     1       6.840  -5.536  23.126  0.00  0.00    +0.050 A 
ATOM     29  O   UNL     1       3.387  -4.702  23.050  0.00  0.00    -0.453 OA
ATOM     30  C   UNL     1       7.460  -4.299  22.880  0.00  0.00    +0.007 A 
ENDBRANCH  21  22
ENDBRANCH   1  21
TORSDOF 9
ENDMDL
MODEL 9
REMARK VINA RESULT:      -6.6      2.387      6.711
REMARK  Name = 
REMARK  9 active torsions:
REMARK  status: ('A' for Active; 'I' for Inactive)
REMARK    1  A    between atoms: C_2  and  C_3
REMARK    2  A    between atoms: C_2  and  C_13
REMARK    3  A    between atoms: C_2  and  C_16
REMARK    4  A    between atoms: C_3  and  C_4
REMARK    5  A    between atoms: C_13  and  O_14
REMARK    6  A    between atoms: C_16  and  C_18
REMARK    7  A    between atoms: C_16  and  C_28
REMARK    8  A    between atoms: C_18  and  C_19
REMARK    9  A    between atoms: C_28  and  O_29
REMARK                            x       y       z     vdW  Elec       q    Type
REMARK                         _______ _______ _______ _____ _____    ______ ____
ROOT
ATOM      1  C   UNL     1       8.435  -4.048  24.787  0.00  0.00    +0.116 C 
ENDROOT
BRANCH   1   2
ATOM      2  C   UNL     1       9.321  -5.281  24.861  0.00  0.00    +0.309 C 
ATOM      3  O   UNL     1       9.185  -6.266  24.148  0.00  0.00    -0.251 OA
BRANCH   2   4
ATOM      4  O   UNL     1      10.193  -5.267  25.892  0.00  0.00    -0.480 OA
ATOM      5  H   UNL     1      10.187  -6.040  26.495  0.00  0.00    +0.295 HD
ENDBRANCH   2   4
ENDBRANCH   1   2
BRANCH   1   6
ATOM      6  C   UNL     1       6.944  -4.597  25.126  0.00  0.00    +0.116 C 
BRANCH   6   7
ATOM      7  C   UNL     1       7.054  -5.147  26.541  0.00  0.00    +0.309 C 
ATOM      8  O   UNL     1       7.759  -4.639  27.410  0.00  0.00    -0.251 OA
BRANCH   7   9
ATOM      9  O   UNL     1       6.461  -6.341  26.735  0.00  0.00    -0.480 OA
ATOM     10  H   UNL     1       5.615  -6.336  27.227  0.00  0.00    +0.295 HD
ENDBRANCH   7   9
ENDBRANCH   6   7
BRANCH   6  11
ATOM     11  C   UNL     1       5.763  -3.575  25.145  0.00  0.00    +0.050 C 
BRANCH  11  12
ATOM     12  C   UNL     1       5.938  -2.040  25.305  0.00  0.00    -0.043 A 
ATOM     13  C   UNL     1       5.857  -1.079  24.282  0.00  0.00    +0.053 A 
ATOM     14  C   UNL     1       6.411   0.191  24.504  0.00  0.00    +0.166 A 
ATOM     15  C   UNL     1       7.000   0.534  25.699  0.00  0.00    +0.166 A 
ATOM     16  O   UNL     1       7.595   1.759  25.676  0.00  0.00    -0.453 OA
ATOM     17  C   UNL     1       7.290   2.181  24.333  0.00  0.00    +0.466 C 
ATOM     18  C   UNL     1       6.991  -0.325  26.765  0.00  0.00    +0.050 A 
ATOM     19  O   UNL     1       6.513   1.203  23.593  0.00  0.00    -0.453 OA
ATOM     20  C   UNL     1       6.443  -1.604  26.568  0.00  0.00    +0.007 A 
ENDBRANCH  11  12
ENDBRANCH   6  11
ENDBRANCH   1   6
BRANCH   1  21
ATOM     21  C   UNL     1       8.693  -3.391  23.385  0.00  0.00    +0.050 C 
BRANCH  21  22
ATOM     22  C   UNL     1       9.183  -1.939  23.171  0.00  0.00    -0.043 A 
ATOM     23  C   UNL     1       9.815  -1.077  24.102  0.00  0.00    +0.053 A 
ATOM     24  C   UNL     1      10.184   0.224  23.707  0.00  0.00    +0.166 A 
ATOM     25  C   UNL     1       9.964   0.696  22.439  0.00  0.00    +0.166 A 
ATOM     26  O   UNL     1      10.389   1.974  22.247  0.00  0.00    -0.453 OA
ATOM     27  C   UNL     1      10.943   2.269  23.542  0.00  0.00    +0.466 C 
ATOM     28  C   UNL     1       9.363  -0.094  21.491  0.00  0.00    +0.050 A 
ATOM     29  O   UNL     1      10.796   1.174  24.485  0.00  0.00    -0.453 OA
ATOM     30  C   UNL     1       8.985  -1.396  21.860  0.00  0.00    +0.007 A 
ENDBRANCH  21  22
ENDBRANCH   1  21
TORSDOF 9
ENDMDL
