MODEL 1
REMARK VINA RESULT:      -8.4      0.000      0.000
REMARK  Name = 
REMARK  7 active torsions:
REMARK  status: ('A' for Active; 'I' for Inactive)
REMARK    1  A    between atoms: C_2  and  C_3
REMARK    2  A    between atoms: C_6  and  N_10
REMARK    3  A    between atoms: N_10  and  C_11
REMARK    4  A    between atoms: C_11  and  C_12
REMARK    5  A    between atoms: C_21  and  C_24
REMARK    6  A    between atoms: C_27  and  C_30
REMARK    7  A    between atoms: C_30  and  O_31
REMARK                            x       y       z     vdW  Elec       q    Type
REMARK                         _______ _______ _______ _____ _____    ______ ____
ROOT
ATOM      1  C   UNL     1      10.305   2.016  23.265  0.00  0.00    -0.033 A 
ATOM      2  C   UNL     1      10.022   1.625  21.930  0.00  0.00    +0.005 A 
ATOM      3  C   UNL     1       9.359   0.427  21.637  0.00  0.00    +0.010 A 
ATOM      4  C   UNL     1       8.999  -0.365  22.701  0.00  0.00    +0.004 A 
ATOM      5  C   UNL     1       8.325  -1.610  22.798  0.00  0.00    +0.070 A 
ATOM      6  N   UNL     1       7.763  -2.561  22.034  0.00  0.00    -0.276 N 
ATOM      7  H   UNL     1       7.672  -2.609  21.025  0.00  0.00    +0.189 HD
ATOM      8  N   UNL     1       7.271  -3.581  22.786  0.00  0.00    -0.173 NA
ATOM      9  C   UNL     1       7.524  -3.232  24.069  0.00  0.00    +0.097 A 
ATOM     10  C   UNL     1       8.196  -1.998  24.102  0.00  0.00    +0.010 A 
ATOM     11  C   UNL     1       8.804  -1.045  25.071  0.00  0.00    +0.075 C 
ATOM     12  C   UNL     1       9.279  -0.004  24.046  0.00  0.00    -0.033 A 
ATOM     13  C   UNL     1       9.921   1.187  24.332  0.00  0.00    +0.009 A 
ENDROOT
BRANCH   9  14
ATOM     14  C   UNL     1       7.147  -4.080  25.200  0.00  0.00    +0.002 A 
ATOM     15  C   UNL     1       8.121  -4.564  26.083  0.00  0.00    +0.011 A 
ATOM     16  C   UNL     1       7.754  -5.325  27.198  0.00  0.00    +0.015 A 
ATOM     17  C   UNL     1       6.407  -5.613  27.443  0.00  0.00    +0.059 A 
ATOM     18  C   UNL     1       5.431  -5.176  26.541  0.00  0.00    +0.015 A 
ATOM     19  C   UNL     1       5.802  -4.411  25.430  0.00  0.00    +0.011 A 
BRANCH  17  20
ATOM     20  C   UNL     1       6.064  -6.417  28.643  0.00  0.00    +0.337 C 
ATOM     21  O   UNL     1       6.407  -6.106  29.770  0.00  0.00    -0.245 OA
BRANCH  20  22
ATOM     22  O   UNL     1       5.299  -7.497  28.377  0.00  0.00    -0.477 OA
ATOM     23  H   UNL     1       4.627  -7.705  29.051  0.00  0.00    +0.295 HD
ENDBRANCH  20  22
ENDBRANCH  17  20
ENDBRANCH   9  14
BRANCH   1  24
ATOM     24  C   UNL     1      11.003   3.330  23.541  0.00  0.00    +0.116 C 
BRANCH  24  25
ATOM     25  N   UNL     1      10.195   4.464  23.096  0.00  0.00    -0.309 NA
ATOM     26  H   UNL     1      10.805   5.165  22.678  0.00  0.00    +0.123 HD
BRANCH  25  31
ATOM     27  C   UNL     1       6.721   5.537  22.889  0.00  0.00    -0.014 C 
ATOM     28  C   UNL     1       5.788   6.228  23.888  0.00  0.00    +0.007 C 
ATOM     29  C   UNL     1       7.169   4.162  23.408  0.00  0.00    +0.005 C 
ATOM     30  C   UNL     1       8.167   4.275  24.562  0.00  0.00    +0.019 C 
ATOM     31  C   UNL     1       9.409   5.093  24.167  0.00  0.00    +0.054 C 
ATOM     32  C   UNL     1       8.962   6.488  23.684  0.00  0.00    +0.019 C 
ATOM     33  C   UNL     1       7.933   6.417  22.549  0.00  0.00    +0.005 C 
ENDBRANCH  25  31
ENDBRANCH  24  25
ENDBRANCH   1  24
TORSDOF 6
ENDMDL
MODEL 2
REMARK VINA RESULT:      -8.3      1.517      2.300
REMARK  Name = 
REMARK  7 active torsions:
REMARK  status: ('A' for Active; 'I' for Inactive)
REMARK    1  A    between atoms: C_2  and  C_3
REMARK    2  A    between atoms: C_6  and  N_10
REMARK    3  A    between atoms: N_10  and  C_11
REMARK    4  A    between atoms: C_11  and  C_12
REMARK    5  A    between atoms: C_21  and  C_24
REMARK    6  A    between atoms: C_27  and  C_30
REMARK    7  A    between atoms: C_30  and  O_31
REMARK                            x       y       z     vdW  Elec       q    Type
REMARK                         _______ _______ _______ _____ _____    ______ ____
ROOT
ATOM      1  C   UNL     1       7.629   2.154  22.248  0.00  0.00    -0.033 A 
ATOM      2  C   UNL     1       8.975   1.870  21.901  0.00  0.00    +0.005 A 
ATOM      3  C   UNL     1       9.589   0.663  22.256  0.00  0.00    +0.010 A 
ATOM      4  C   UNL     1       8.833  -0.239  22.966  0.00  0.00    +0.004 A 
ATOM      5  C   UNL     1       9.098  -1.535  23.479  0.00  0.00    +0.070 A 
ATOM      6  N   UNL     1      10.076  -2.452  23.557  0.00  0.00    -0.276 N 
ATOM      7  H   UNL     1      11.022  -2.421  23.193  0.00  0.00    +0.189 HD
ATOM      8  N   UNL     1       9.675  -3.554  24.244  0.00  0.00    -0.173 NA
ATOM      9  C   UNL     1       8.387  -3.312  24.585  0.00  0.00    +0.097 A 
ATOM     10  C   UNL     1       8.004  -2.042  24.122  0.00  0.00    +0.010 A 
ATOM     11  C   UNL     1       6.839  -1.114  24.139  0.00  0.00    +0.075 C 
ATOM     12  C   UNL     1       7.486   0.023  23.335  0.00  0.00    -0.033 A 
ATOM     13  C   UNL     1       6.879   1.212  22.971  0.00  0.00    +0.009 A 
ENDROOT
BRANCH   9  14
ATOM     14  C   UNL     1       7.585  -4.269  25.347  0.00  0.00    +0.002 A 
ATOM     15  C   UNL     1       7.861  -4.512  26.699  0.00  0.00    +0.011 A 
ATOM     16  C   UNL     1       7.058  -5.382  27.443  0.00  0.00    +0.015 A 
ATOM     17  C   UNL     1       5.967  -6.023  26.843  0.00  0.00    +0.059 A 
ATOM     18  C   UNL     1       5.713  -5.825  25.482  0.00  0.00    +0.015 A 
ATOM     19  C   UNL     1       6.516  -4.949  24.743  0.00  0.00    +0.011 A 
BRANCH  17  20
ATOM     20  C   UNL     1       5.137  -6.931  27.674  0.00  0.00    +0.337 C 
ATOM     21  O   UNL     1       5.552  -7.469  28.686  0.00  0.00    -0.245 OA
BRANCH  20  22
ATOM     22  O   UNL     1       3.870  -7.071  27.232  0.00  0.00    -0.477 OA
ATOM     23  H   UNL     1       3.188  -7.086  27.927  0.00  0.00    +0.295 HD
ENDBRANCH  20  22
ENDBRANCH  17  20
ENDBRANCH   9  14
BRANCH   1  24
ATOM     24  C   UNL     1       6.995   3.463  21.826  0.00  0.00    +0.116 C 
BRANCH  24  25
ATOM     25  N   UNL     1       7.860   4.598  22.143  0.00  0.00    -0.309 NA
ATOM     26  H   UNL     1       8.755   4.250  22.481  0.00  0.00    +0.123 HD
BRANCH  25  31
ATOM     27  C   UNL     1       9.506   5.787  25.165  0.00  0.00    -0.014 C 
ATOM     28  C   UNL     1       9.048   6.703  26.304  0.00  0.00    +0.007 C 
ATOM     29  C   UNL     1       9.523   6.536  23.824  0.00  0.00    +0.005 C 
ATOM     30  C   UNL     1       8.113   6.811  23.297  0.00  0.00    +0.019 C 
ATOM     31  C   UNL     1       7.296   5.517  23.142  0.00  0.00    +0.054 C 
ATOM     32  C   UNL     1       7.246   4.787  24.499  0.00  0.00    +0.019 C 
ATOM     33  C   UNL     1       8.641   4.521  25.078  0.00  0.00    +0.005 C 
ENDBRANCH  25  31
ENDBRANCH  24  25
ENDBRANCH   1  24
TORSDOF 6
ENDMDL
MODEL 3
REMARK VINA RESULT:      -7.5      2.203      3.110
REMARK  Name = 
REMARK  7 active torsions:
REMARK  status: ('A' for Active; 'I' for Inactive)
REMARK    1  A    between atoms: C_2  and  C_3
REMARK    2  A    between atoms: C_6  and  N_10
REMARK    3  A    between atoms: N_10  and  C_11
REMARK    4  A    between atoms: C_11  and  C_12
REMARK    5  A    between atoms: C_21  and  C_24
REMARK    6  A    between atoms: C_27  and  C_30
REMARK    7  A    between atoms: C_30  and  O_31
REMARK                            x       y       z     vdW  Elec       q    Type
REMARK                         _______ _______ _______ _____ _____    ______ ____
ROOT
ATOM      1  C   UNL     1       9.079   0.290  22.301  0.00  0.00    -0.033 A 
ATOM      2  C   UNL     1      10.298  -0.221  22.819  0.00  0.00    +0.005 A 
ATOM      3  C   UNL     1      10.355  -1.443  23.500  0.00  0.00    +0.010 A 
ATOM      4  C   UNL     1       9.173  -2.127  23.656  0.00  0.00    +0.004 A 
ATOM      5  C   UNL     1       8.844  -3.367  24.264  0.00  0.00    +0.070 A 
ATOM      6  N   UNL     1       9.404  -4.392  24.927  0.00  0.00    -0.276 N 
ATOM      7  H   UNL     1      10.373  -4.541  25.187  0.00  0.00    +0.189 HD
ATOM      8  N   UNL     1       8.481  -5.326  25.278  0.00  0.00    -0.173 NA
ATOM      9  C   UNL     1       7.305  -4.864  24.791  0.00  0.00    +0.097 A 
ATOM     10  C   UNL     1       7.507  -3.627  24.156  0.00  0.00    +0.010 A 
ATOM     11  C   UNL     1       6.745  -2.553  23.460  0.00  0.00    +0.075 C 
ATOM     12  C   UNL     1       7.938  -1.635  23.157  0.00  0.00    -0.033 A 
ATOM     13  C   UNL     1       7.888  -0.434  22.472  0.00  0.00    +0.009 A 
ENDROOT
BRANCH   9  14
ATOM     14  C   UNL     1       6.047  -5.590  24.964  0.00  0.00    +0.002 A 
ATOM     15  C   UNL     1       5.215  -5.845  23.866  0.00  0.00    +0.011 A 
ATOM     16  C   UNL     1       4.042  -6.591  24.022  0.00  0.00    +0.015 A 
ATOM     17  C   UNL     1       3.685  -7.091  25.280  0.00  0.00    +0.059 A 
ATOM     18  C   UNL     1       4.484  -6.800  26.391  0.00  0.00    +0.015 A 
ATOM     19  C   UNL     1       5.659  -6.059  26.229  0.00  0.00    +0.011 A 
BRANCH  17  20
ATOM     20  C   UNL     1       2.436  -7.885  25.396  0.00  0.00    +0.337 C 
ATOM     21  O   UNL     1       1.344  -7.379  25.590  0.00  0.00    -0.245 OA
BRANCH  20  22
ATOM     22  O   UNL     1       2.613  -9.211  25.221  0.00  0.00    -0.477 OA
ATOM     23  H   UNL     1       3.474  -9.468  24.844  0.00  0.00    +0.295 HD
ENDBRANCH  20  22
ENDBRANCH  17  20
ENDBRANCH   9  14
BRANCH   1  24
ATOM     24  C   UNL     1       9.065   1.605  21.551  0.00  0.00    +0.116 C 
BRANCH  24  25
ATOM     25  N   UNL     1       9.286   2.734  22.453  0.00  0.00    -0.309 NA
ATOM     26  H   UNL     1      10.139   2.571  22.987  0.00  0.00    +0.123 HD
BRANCH  25  31
ATOM     27  C   UNL     1       8.256   5.958  23.797  0.00  0.00    -0.014 C 
ATOM     28  C   UNL     1       7.163   6.366  24.788  0.00  0.00    +0.007 C 
ATOM     29  C   UNL     1       7.652   5.316  22.538  0.00  0.00    +0.005 C 
ATOM     30  C   UNL     1       7.101   3.915  22.811  0.00  0.00    +0.019 C 
ATOM     31  C   UNL     1       8.178   2.978  23.386  0.00  0.00    +0.054 C 
ATOM     32  C   UNL     1       8.756   3.604  24.672  0.00  0.00    +0.019 C 
ATOM     33  C   UNL     1       9.288   5.025  24.448  0.00  0.00    +0.005 C 
ENDBRANCH  25  31
ENDBRANCH  24  25
ENDBRANCH   1  24
TORSDOF 6
ENDMDL
MODEL 4
REMARK VINA RESULT:      -7.5      4.201      9.384
REMARK  Name = 
REMARK  7 active torsions:
REMARK  status: ('A' for Active; 'I' for Inactive)
REMARK    1  A    between atoms: C_2  and  C_3
REMARK    2  A    between atoms: C_6  and  N_10
REMARK    3  A    between atoms: N_10  and  C_11
REMARK    4  A    between atoms: C_11  and  C_12
REMARK    5  A    between atoms: C_21  and  C_24
REMARK    6  A    between atoms: C_27  and  C_30
REMARK    7  A    between atoms: C_30  and  O_31
REMARK                            x       y       z     vdW  Elec       q    Type
REMARK                         _______ _______ _______ _____ _____    ______ ____
ROOT
ATOM      1  C   UNL     1       7.608  -4.739  26.485  0.00  0.00    -0.033 A 
ATOM      2  C   UNL     1       8.710  -5.254  25.753  0.00  0.00    +0.005 A 
ATOM      3  C   UNL     1       9.439  -4.459  24.860  0.00  0.00    +0.010 A 
ATOM      4  C   UNL     1       9.035  -3.154  24.712  0.00  0.00    +0.004 A 
ATOM      5  C   UNL     1       9.518  -2.072  23.929  0.00  0.00    +0.070 A 
ATOM      6  N   UNL     1      10.472  -1.770  23.034  0.00  0.00    -0.276 N 
ATOM      7  H   UNL     1      11.205  -2.355  22.648  0.00  0.00    +0.189 HD
ATOM      8  N   UNL     1      10.381  -0.478  22.623  0.00  0.00    -0.173 NA
ATOM      9  C   UNL     1       9.336   0.042  23.310  0.00  0.00    +0.097 A 
ATOM     10  C   UNL     1       8.771  -0.947  24.133  0.00  0.00    +0.010 A 
ATOM     11  C   UNL     1       7.647  -1.142  25.091  0.00  0.00    +0.075 C 
ATOM     12  C   UNL     1       7.930  -2.614  25.423  0.00  0.00    -0.033 A 
ATOM     13  C   UNL     1       7.222  -3.399  26.316  0.00  0.00    +0.009 A 
ENDROOT
BRANCH   9  14
ATOM     14  C   UNL     1       8.903   1.429  23.146  0.00  0.00    +0.002 A 
ATOM     15  C   UNL     1       8.030   1.785  22.109  0.00  0.00    +0.011 A 
ATOM     16  C   UNL     1       7.569   3.100  21.988  0.00  0.00    +0.015 A 
ATOM     17  C   UNL     1       7.977   4.078  22.903  0.00  0.00    +0.059 A 
ATOM     18  C   UNL     1       8.887   3.744  23.912  0.00  0.00    +0.015 A 
ATOM     19  C   UNL     1       9.340   2.426  24.032  0.00  0.00    +0.011 A 
BRANCH  17  20
ATOM     20  C   UNL     1       7.456   5.458  22.741  0.00  0.00    +0.337 C 
ATOM     21  O   UNL     1       7.005   6.110  23.666  0.00  0.00    -0.245 OA
BRANCH  20  22
ATOM     22  O   UNL     1       7.568   5.941  21.485  0.00  0.00    -0.477 OA
ATOM     23  H   UNL     1       7.996   5.341  20.848  0.00  0.00    +0.295 HD
ENDBRANCH  20  22
ENDBRANCH  17  20
ENDBRANCH   9  14
BRANCH   1  24
ATOM     24  C   UNL     1       6.861  -5.625  27.458  0.00  0.00    +0.116 C 
BRANCH  24  25
ATOM     25  N   UNL     1       5.418  -5.558  27.237  0.00  0.00    -0.309 NA
ATOM     26  H   UNL     1       4.940  -5.617  28.135  0.00  0.00    +0.123 HD
BRANCH  25  31
ATOM     27  C   UNL     1       3.128  -5.100  24.442  0.00  0.00    -0.014 C 
ATOM     28  C   UNL     1       2.480  -6.081  23.462  0.00  0.00    +0.007 C 
ATOM     29  C   UNL     1       4.659  -5.113  24.310  0.00  0.00    +0.005 C 
ATOM     30  C   UNL     1       5.278  -6.392  24.875  0.00  0.00    +0.019 C 
ATOM     31  C   UNL     1       4.900  -6.608  26.350  0.00  0.00    +0.054 C 
ATOM     32  C   UNL     1       3.363  -6.636  26.477  0.00  0.00    +0.019 C 
ATOM     33  C   UNL     1       2.700  -5.384  25.890  0.00  0.00    +0.005 C 
ENDBRANCH  25  31
ENDBRANCH  24  25
ENDBRANCH   1  24
TORSDOF 6
ENDMDL
MODEL 5
REMARK VINA RESULT:      -7.4      2.126      2.782
REMARK  Name = 
REMARK  7 active torsions:
REMARK  status: ('A' for Active; 'I' for Inactive)
REMARK    1  A    between atoms: C_2  and  C_3
REMARK    2  A    between atoms: C_6  and  N_10
REMARK    3  A    between atoms: N_10  and  C_11
REMARK    4  A    between atoms: C_11  and  C_12
REMARK    5  A    between atoms: C_21  and  C_24
REMARK    6  A    between atoms: C_27  and  C_30
REMARK    7  A    between atoms: C_30  and  O_31
REMARK                            x       y       z     vdW  Elec       q    Type
REMARK                         _______ _______ _______ _____ _____    ______ ____
ROOT
ATOM      1  C   UNL     1       7.883   2.299  22.348  0.00  0.00    -0.033 A 
ATOM      2  C   UNL     1       9.229   1.978  22.032  0.00  0.00    +0.005 A 
ATOM      3  C   UNL     1       9.791   0.741  22.372  0.00  0.00    +0.010 A 
ATOM      4  C   UNL     1       8.984  -0.151  23.036  0.00  0.00    +0.004 A 
ATOM      5  C   UNL     1       9.191  -1.468  23.523  0.00  0.00    +0.070 A 
ATOM      6  N   UNL     1      10.135  -2.420  23.606  0.00  0.00    -0.276 N 
ATOM      7  H   UNL     1      11.091  -2.412  23.270  0.00  0.00    +0.189 HD
ATOM      8  N   UNL     1       9.676  -3.525  24.251  0.00  0.00    -0.173 NA
ATOM      9  C   UNL     1       8.388  -3.247  24.562  0.00  0.00    +0.097 A 
ATOM     10  C   UNL     1       8.062  -1.953  24.121  0.00  0.00    +0.010 A 
ATOM     11  C   UNL     1       6.929  -0.986  24.129  0.00  0.00    +0.075 C 
ATOM     12  C   UNL     1       7.637   0.148  23.374  0.00  0.00    -0.033 A 
ATOM     13  C   UNL     1       7.081   1.365  23.023  0.00  0.00    +0.009 A 
ENDROOT
BRANCH   9  14
ATOM     14  C   UNL     1       7.532  -4.195  25.275  0.00  0.00    +0.002 A 
ATOM     15  C   UNL     1       7.789  -4.516  26.615  0.00  0.00    +0.011 A 
ATOM     16  C   UNL     1       6.936  -5.377  27.315  0.00  0.00    +0.015 A 
ATOM     17  C   UNL     1       5.816  -5.928  26.682  0.00  0.00    +0.059 A 
ATOM     18  C   UNL     1       5.579  -5.652  25.331  0.00  0.00    +0.015 A 
ATOM     19  C   UNL     1       6.431  -4.787  24.637  0.00  0.00    +0.011 A 
BRANCH  17  20
ATOM     20  C   UNL     1       4.934  -6.829  27.467  0.00  0.00    +0.337 C 
ATOM     21  O   UNL     1       3.733  -6.911  27.278  0.00  0.00    -0.245 OA
BRANCH  20  22
ATOM     22  O   UNL     1       5.591  -7.581  28.375  0.00  0.00    -0.477 OA
ATOM     23  H   UNL     1       5.351  -7.411  29.304  0.00  0.00    +0.295 HD
ENDBRANCH  20  22
ENDBRANCH  17  20
ENDBRANCH   9  14
BRANCH   1  24
ATOM     24  C   UNL     1       7.307   3.639  21.942  0.00  0.00    +0.116 C 
BRANCH  24  25
ATOM     25  N   UNL     1       5.849   3.646  22.054  0.00  0.00    -0.309 NA
ATOM     26  H   UNL     1       5.443   3.685  21.121  0.00  0.00    +0.123 HD
BRANCH  25  31
ATOM     27  C   UNL     1       3.541   3.390  24.860  0.00  0.00    -0.014 C 
ATOM     28  C   UNL     1       2.879   4.439  25.756  0.00  0.00    +0.007 C 
ATOM     29  C   UNL     1       5.071   3.424  25.002  0.00  0.00    +0.005 C 
ATOM     30  C   UNL     1       5.686   4.660  24.344  0.00  0.00    +0.019 C 
ATOM     31  C   UNL     1       5.318   4.758  22.853  0.00  0.00    +0.054 C 
ATOM     32  C   UNL     1       3.782   4.765  22.714  0.00  0.00    +0.019 C 
ATOM     33  C   UNL     1       3.122   3.558  23.391  0.00  0.00    +0.005 C 
ENDBRANCH  25  31
ENDBRANCH  24  25
ENDBRANCH   1  24
TORSDOF 6
ENDMDL
MODEL 6
REMARK VINA RESULT:      -7.4      4.578      9.854
REMARK  Name = 
REMARK  7 active torsions:
REMARK  status: ('A' for Active; 'I' for Inactive)
REMARK    1  A    between atoms: C_2  and  C_3
REMARK    2  A    between atoms: C_6  and  N_10
REMARK    3  A    between atoms: N_10  and  C_11
REMARK    4  A    between atoms: C_11  and  C_12
REMARK    5  A    between atoms: C_21  and  C_24
REMARK    6  A    between atoms: C_27  and  C_30
REMARK    7  A    between atoms: C_30  and  O_31
REMARK                            x       y       z     vdW  Elec       q    Type
REMARK                         _______ _______ _______ _____ _____    ______ ____
ROOT
ATOM      1  C   UNL     1       6.835  -4.846  22.584  0.00  0.00    -0.033 A 
ATOM      2  C   UNL     1       7.855  -5.146  23.524  0.00  0.00    +0.005 A 
ATOM      3  C   UNL     1       8.609  -4.141  24.141  0.00  0.00    +0.010 A 
ATOM      4  C   UNL     1       8.325  -2.843  23.790  0.00  0.00    +0.004 A 
ATOM      5  C   UNL     1       8.854  -1.590  24.198  0.00  0.00    +0.070 A 
ATOM      6  N   UNL     1       9.782  -1.058  25.010  0.00  0.00    -0.276 N 
ATOM      7  H   UNL     1      10.432  -1.519  25.638  0.00  0.00    +0.189 HD
ATOM      8  N   UNL     1       9.805   0.298  24.923  0.00  0.00    -0.173 NA
ATOM      9  C   UNL     1       8.835   0.614  24.033  0.00  0.00    +0.097 A 
ATOM     10  C   UNL     1       8.228  -0.560  23.556  0.00  0.00    +0.010 A 
ATOM     11  C   UNL     1       7.183  -1.005  22.592  0.00  0.00    +0.075 C 
ATOM     12  C   UNL     1       7.317  -2.514  22.845  0.00  0.00    -0.033 A 
ATOM     13  C   UNL     1       6.564  -3.510  22.249  0.00  0.00    +0.009 A 
ENDROOT
BRANCH   9  14
ATOM     14  C   UNL     1       8.539   1.996  23.656  0.00  0.00    +0.002 A 
ATOM     15  C   UNL     1       7.775   2.274  22.516  0.00  0.00    +0.011 A 
ATOM     16  C   UNL     1       7.441   3.593  22.188  0.00  0.00    +0.015 A 
ATOM     17  C   UNL     1       7.871   4.651  22.997  0.00  0.00    +0.059 A 
ATOM     18  C   UNL     1       8.675   4.387  24.111  0.00  0.00    +0.015 A 
ATOM     19  C   UNL     1       9.001   3.067  24.437  0.00  0.00    +0.011 A 
BRANCH  17  20
ATOM     20  C   UNL     1       7.486   6.033  22.615  0.00  0.00    +0.337 C 
ATOM     21  O   UNL     1       7.228   6.900  23.432  0.00  0.00    -0.245 OA
BRANCH  20  22
ATOM     22  O   UNL     1       7.492   6.254  21.284  0.00  0.00    -0.477 OA
ATOM     23  H   UNL     1       8.085   5.676  20.771  0.00  0.00    +0.295 HD
ENDBRANCH  20  22
ENDBRANCH  17  20
ENDBRANCH   9  14
BRANCH   1  24
ATOM     24  C   UNL     1       6.027  -5.962  21.957  0.00  0.00    +0.116 C 
BRANCH  24  25
ATOM     25  N   UNL     1       5.195  -6.638  22.950  0.00  0.00    -0.309 NA
ATOM     26  H   UNL     1       4.724  -7.427  22.509  0.00  0.00    +0.123 HD
BRANCH  25  31
ATOM     27  C   UNL     1       2.608  -7.663  25.300  0.00  0.00    -0.014 C 
ATOM     28  C   UNL     1       1.482  -6.898  26.001  0.00  0.00    +0.007 C 
ATOM     29  C   UNL     1       3.986  -7.127  25.715  0.00  0.00    +0.005 C 
ATOM     30  C   UNL     1       4.278  -5.752  25.112  0.00  0.00    +0.019 C 
ATOM     31  C   UNL     1       4.188  -5.770  23.576  0.00  0.00    +0.054 C 
ATOM     32  C   UNL     1       2.790  -6.270  23.159  0.00  0.00    +0.019 C 
ATOM     33  C   UNL     1       2.444  -7.633  23.773  0.00  0.00    +0.005 C 
ENDBRANCH  25  31
ENDBRANCH  24  25
ENDBRANCH   1  24
TORSDOF 6
ENDMDL
MODEL 7
REMARK VINA RESULT:      -7.4      2.659      3.159
REMARK  Name = 
REMARK  7 active torsions:
REMARK  status: ('A' for Active; 'I' for Inactive)
REMARK    1  A    between atoms: C_2  and  C_3
REMARK    2  A    between atoms: C_6  and  N_10
REMARK    3  A    between atoms: N_10  and  C_11
REMARK    4  A    between atoms: C_11  and  C_12
REMARK    5  A    between atoms: C_21  and  C_24
REMARK    6  A    between atoms: C_27  and  C_30
REMARK    7  A    between atoms: C_30  and  O_31
REMARK                            x       y       z     vdW  Elec       q    Type
REMARK                         _______ _______ _______ _____ _____    ______ ____
ROOT
ATOM      1  C   UNL     1       9.754   2.243  23.836  0.00  0.00    -0.033 A 
ATOM      2  C   UNL     1      10.925   1.505  24.151  0.00  0.00    +0.005 A 
ATOM      3  C   UNL     1      10.912   0.109  24.249  0.00  0.00    +0.010 A 
ATOM      4  C   UNL     1       9.710  -0.522  24.034  0.00  0.00    +0.004 A 
ATOM      5  C   UNL     1       9.317  -1.886  24.038  0.00  0.00    +0.070 A 
ATOM      6  N   UNL     1       9.811  -3.120  24.231  0.00  0.00    -0.276 N 
ATOM      7  H   UNL     1      10.757  -3.409  24.454  0.00  0.00    +0.189 HD
ATOM      8  N   UNL     1       8.849  -4.071  24.100  0.00  0.00    -0.173 NA
ATOM      9  C   UNL     1       7.717  -3.393  23.794  0.00  0.00    +0.097 A 
ATOM     10  C   UNL     1       7.986  -2.014  23.758  0.00  0.00    +0.010 A 
ATOM     11  C   UNL     1       7.293  -0.712  23.545  0.00  0.00    +0.075 C 
ATOM     12  C   UNL     1       8.521   0.192  23.727  0.00  0.00    -0.033 A 
ATOM     13  C   UNL     1       8.541   1.571  23.617  0.00  0.00    +0.009 A 
ENDROOT
BRANCH   9  14
ATOM     14  C   UNL     1       6.437  -4.065  23.573  0.00  0.00    +0.002 A 
ATOM     15  C   UNL     1       6.363  -5.209  22.768  0.00  0.00    +0.011 A 
ATOM     16  C   UNL     1       5.150  -5.886  22.605  0.00  0.00    +0.015 A 
ATOM     17  C   UNL     1       3.994  -5.426  23.246  0.00  0.00    +0.059 A 
ATOM     18  C   UNL     1       4.047  -4.257  24.013  0.00  0.00    +0.015 A 
ATOM     19  C   UNL     1       5.264  -3.587  24.177  0.00  0.00    +0.011 A 
BRANCH  17  20
ATOM     20  C   UNL     1       2.731  -6.182  23.052  0.00  0.00    +0.337 C 
ATOM     21  O   UNL     1       1.711  -5.671  22.622  0.00  0.00    -0.245 OA
BRANCH  20  22
ATOM     22  O   UNL     1       2.828  -7.494  23.351  0.00  0.00    -0.477 OA
ATOM     23  H   UNL     1       2.797  -8.097  22.586  0.00  0.00    +0.295 HD
ENDBRANCH  20  22
ENDBRANCH  17  20
ENDBRANCH   9  14
BRANCH   1  24
ATOM     24  C   UNL     1       9.816   3.751  23.717  0.00  0.00    +0.116 C 
BRANCH  24  25
ATOM     25  N   UNL     1       8.703   4.267  22.921  0.00  0.00    -0.309 NA
ATOM     26  H   UNL     1       8.985   4.310  21.943  0.00  0.00    +0.123 HD
BRANCH  25  31
ATOM     27  C   UNL     1       5.381   5.101  24.158  0.00  0.00    -0.014 C 
ATOM     28  C   UNL     1       4.738   6.420  24.596  0.00  0.00    +0.007 C 
ATOM     29  C   UNL     1       6.570   4.737  25.060  0.00  0.00    +0.005 C 
ATOM     30  C   UNL     1       7.782   5.637  24.812  0.00  0.00    +0.019 C 
ATOM     31  C   UNL     1       8.234   5.595  23.342  0.00  0.00    +0.054 C 
ATOM     32  C   UNL     1       7.051   6.000  22.439  0.00  0.00    +0.019 C 
ATOM     33  C   UNL     1       5.803   5.142  22.682  0.00  0.00    +0.005 C 
ENDBRANCH  25  31
ENDBRANCH  24  25
ENDBRANCH   1  24
TORSDOF 6
ENDMDL
MODEL 8
REMARK VINA RESULT:      -7.4      4.268      9.366
REMARK  Name = 
REMARK  7 active torsions:
REMARK  status: ('A' for Active; 'I' for Inactive)
REMARK    1  A    between atoms: C_2  and  C_3
REMARK    2  A    between atoms: C_6  and  N_10
REMARK    3  A    between atoms: N_10  and  C_11
REMARK    4  A    between atoms: C_11  and  C_12
REMARK    5  A    between atoms: C_21  and  C_24
REMARK    6  A    between atoms: C_27  and  C_30
REMARK    7  A    between atoms: C_30  and  O_31
REMARK                            x       y       z     vdW  Elec       q    Type
REMARK                         _______ _______ _______ _____ _____    ______ ____
ROOT
ATOM      1  C   UNL     1       8.186  -4.306  25.786  0.00  0.00    -0.033 A 
ATOM      2  C   UNL     1       8.217  -4.775  24.446  0.00  0.00    +0.005 A 
ATOM      3  C   UNL     1       8.484  -3.918  23.371  0.00  0.00    +0.010 A 
ATOM      4  C   UNL     1       8.706  -2.595  23.667  0.00  0.00    +0.004 A 
ATOM      5  C   UNL     1       9.008  -1.461  22.869  0.00  0.00    +0.070 A 
ATOM      6  N   UNL     1       9.203  -1.100  21.590  0.00  0.00    -0.276 N 
ATOM      7  H   UNL     1       9.179  -1.666  20.748  0.00  0.00    +0.189 HD
ATOM      8  N   UNL     1       9.457   0.230  21.478  0.00  0.00    -0.173 NA
ATOM      9  C   UNL     1       9.437   0.705  22.746  0.00  0.00    +0.097 A 
ATOM     10  C   UNL     1       9.147  -0.341  23.639  0.00  0.00    +0.010 A 
ATOM     11  C   UNL     1       8.929  -0.586  25.092  0.00  0.00    +0.075 C 
ATOM     12  C   UNL     1       8.670  -2.096  24.997  0.00  0.00    -0.033 A 
ATOM     13  C   UNL     1       8.421  -2.949  26.057  0.00  0.00    +0.009 A 
ENDROOT
BRANCH   9  14
ATOM     14  C   UNL     1       9.666   2.115  23.058  0.00  0.00    +0.002 A 
ATOM     15  C   UNL     1       8.592   2.959  23.369  0.00  0.00    +0.011 A 
ATOM     16  C   UNL     1       8.816   4.293  23.726  0.00  0.00    +0.015 A 
ATOM     17  C   UNL     1      10.120   4.800  23.774  0.00  0.00    +0.059 A 
ATOM     18  C   UNL     1      11.195   3.979  23.417  0.00  0.00    +0.015 A 
ATOM     19  C   UNL     1      10.966   2.645  23.067  0.00  0.00    +0.011 A 
BRANCH  17  20
ATOM     20  C   UNL     1      10.311   6.220  24.166  0.00  0.00    +0.337 C 
ATOM     21  O   UNL     1       9.421   7.050  24.107  0.00  0.00    -0.245 OA
BRANCH  20  22
ATOM     22  O   UNL     1      11.547   6.495  24.636  0.00  0.00    -0.477 OA
ATOM     23  H   UNL     1      11.586   7.191  25.316  0.00  0.00    +0.295 HD
ENDBRANCH  20  22
ENDBRANCH  17  20
ENDBRANCH   9  14
BRANCH   1  24
ATOM     24  C   UNL     1       7.916  -5.270  26.922  0.00  0.00    +0.116 C 
BRANCH  24  25
ATOM     25  N   UNL     1       6.760  -4.850  27.711  0.00  0.00    -0.309 NA
ATOM     26  H   UNL     1       7.064  -4.634  28.659  0.00  0.00    +0.123 HD
BRANCH  25  31
ATOM     27  C   UNL     1       3.426  -4.535  26.280  0.00  0.00    -0.014 C 
ATOM     28  C   UNL     1       2.203  -5.456  26.287  0.00  0.00    +0.007 C 
ATOM     29  C   UNL     1       4.613  -5.194  25.562  0.00  0.00    +0.005 C 
ATOM     30  C   UNL     1       5.229  -6.329  26.382  0.00  0.00    +0.019 C 
ATOM     31  C   UNL     1       5.684  -5.850  27.772  0.00  0.00    +0.054 C 
ATOM     32  C   UNL     1       4.482  -5.224  28.508  0.00  0.00    +0.019 C 
ATOM     33  C   UNL     1       3.815  -4.103  27.702  0.00  0.00    +0.005 C 
ENDBRANCH  25  31
ENDBRANCH  24  25
ENDBRANCH   1  24
TORSDOF 6
ENDMDL
MODEL 9
REMARK VINA RESULT:      -7.3      1.287      1.944
REMARK  Name = 
REMARK  7 active torsions:
REMARK  status: ('A' for Active; 'I' for Inactive)
REMARK    1  A    between atoms: C_2  and  C_3
REMARK    2  A    between atoms: C_6  and  N_10
REMARK    3  A    between atoms: N_10  and  C_11
REMARK    4  A    between atoms: C_11  and  C_12
REMARK    5  A    between atoms: C_21  and  C_24
REMARK    6  A    between atoms: C_27  and  C_30
REMARK    7  A    between atoms: C_30  and  O_31
REMARK                            x       y       z     vdW  Elec       q    Type
REMARK                         _______ _______ _______ _____ _____    ______ ____
ROOT
ATOM      1  C   UNL     1       9.902   0.479  23.128  0.00  0.00    -0.033 A 
ATOM      2  C   UNL     1       9.804  -0.139  21.854  0.00  0.00    +0.005 A 
ATOM      3  C   UNL     1       9.182  -1.382  21.683  0.00  0.00    +0.010 A 
ATOM      4  C   UNL     1       8.676  -1.988  22.808  0.00  0.00    +0.004 A 
ATOM      5  C   UNL     1       7.988  -3.211  23.024  0.00  0.00    +0.070 A 
ATOM      6  N   UNL     1       7.532  -4.288  22.365  0.00  0.00    -0.276 N 
ATOM      7  H   UNL     1       7.580  -4.509  21.377  0.00  0.00    +0.189 HD
ATOM      8  N   UNL     1       6.937  -5.175  23.207  0.00  0.00    -0.173 NA
ATOM      9  C   UNL     1       7.013  -4.607  24.434  0.00  0.00    +0.097 A 
ATOM     10  C   UNL     1       7.680  -3.373  24.345  0.00  0.00    +0.010 A 
ATOM     11  C   UNL     1       8.153  -2.257  25.210  0.00  0.00    +0.075 C 
ATOM     12  C   UNL     1       8.769  -1.398  24.097  0.00  0.00    -0.033 A 
ATOM     13  C   UNL     1       9.372  -0.163  24.259  0.00  0.00    +0.009 A 
ENDROOT
BRANCH   9  14
ATOM     14  C   UNL     1       6.481  -5.257  25.631  0.00  0.00    +0.002 A 
ATOM     15  C   UNL     1       7.123  -5.108  26.867  0.00  0.00    +0.011 A 
ATOM     16  C   UNL     1       6.581  -5.680  28.023  0.00  0.00    +0.015 A 
ATOM     17  C   UNL     1       5.388  -6.410  27.956  0.00  0.00    +0.059 A 
ATOM     18  C   UNL     1       4.766  -6.606  26.719  0.00  0.00    +0.015 A 
ATOM     19  C   UNL     1       5.309  -6.027  25.567  0.00  0.00    +0.011 A 
BRANCH  17  20
ATOM     20  C   UNL     1       4.846  -6.992  29.210  0.00  0.00    +0.337 C 
ATOM     21  O   UNL     1       5.369  -6.828  30.298  0.00  0.00    -0.245 OA
BRANCH  20  22
ATOM     22  O   UNL     1       3.697  -7.680  29.040  0.00  0.00    -0.477 OA
ATOM     23  H   UNL     1       2.925  -7.321  29.515  0.00  0.00    +0.295 HD
ENDBRANCH  20  22
ENDBRANCH  17  20
ENDBRANCH   9  14
BRANCH   1  24
ATOM     24  C   UNL     1      10.562   1.834  23.266  0.00  0.00    +0.116 C 
BRANCH  24  25
ATOM     25  N   UNL     1       9.813   2.699  24.175  0.00  0.00    -0.309 NA
ATOM     26  H   UNL     1       9.290   2.121  24.831  0.00  0.00    +0.123 HD
BRANCH  25  31
ATOM     27  C   UNL     1       7.252   4.750  25.757  0.00  0.00    -0.014 C 
ATOM     28  C   UNL     1       6.199   5.710  25.195  0.00  0.00    +0.007 C 
ATOM     29  C   UNL     1       8.674   5.239  25.439  0.00  0.00    +0.005 C 
ATOM     30  C   UNL     1       9.027   5.073  23.960  0.00  0.00    +0.019 C 
ATOM     31  C   UNL     1       8.882   3.612  23.497  0.00  0.00    +0.054 C 
ATOM     32  C   UNL     1       7.443   3.135  23.779  0.00  0.00    +0.019 C 
ATOM     33  C   UNL     1       7.038   3.317  25.247  0.00  0.00    +0.005 C 
ENDBRANCH  25  31
ENDBRANCH  24  25
ENDBRANCH   1  24
TORSDOF 6
ENDMDL
