MODEL 1
REMARK VINA RESULT:      -8.3      0.000      0.000
REMARK  Name = 
REMARK  4 active torsions:
REMARK  status: ('A' for Active; 'I' for Inactive)
REMARK    1  A    between atoms: C_2  and  C_5
REMARK    2  A    between atoms: C_7  and  N_8
REMARK    3  A    between atoms: C_13  and  C_14
REMARK    4  A    between atoms: N_16  and  C_17
REMARK                            x       y       z     vdW  Elec       q    Type
REMARK                         _______ _______ _______ _____ _____    ______ ____
ROOT
ATOM      1  N   UNL     1       9.396   1.452  23.214  0.00  0.00    -0.296 N 
ATOM      2  H   UNL     1       9.369   1.343  22.207  0.00  0.00    +0.154 HD
ATOM      3  C   UNL     1       9.173   0.372  24.013  0.00  0.00    +0.174 A 
ATOM      4  C   UNL     1       8.788  -0.914  23.520  0.00  0.00    +0.064 A 
ATOM      5  C   UNL     1       8.649  -1.689  24.665  0.00  0.00    +0.183 A 
ATOM      6  C   UNL     1       8.266  -3.032  24.699  0.00  0.00    +0.101 A 
ATOM      7  C   UNL     1       8.017  -3.610  23.442  0.00  0.00    +0.057 A 
ATOM      8  C   UNL     1       8.152  -2.864  22.257  0.00  0.00    +0.021 A 
ATOM      9 CL   UNL     1       7.585  -5.274  23.242  0.00  0.00    -0.083 Cl
ATOM     10  O   UNL     1       8.944  -0.926  25.745  0.00  0.00    -0.352 OA
ATOM     11  C   UNL     1       8.533  -1.513  22.276  0.00  0.00    +0.016 A 
ATOM     12  N   UNL     1       9.304   0.329  25.345  0.00  0.00    -0.062 NA
ENDROOT
BRANCH   1  17
ATOM     13  C   UNL     1      11.175   4.737  23.579  0.00  0.00    +0.057 A 
ATOM     14  C   UNL     1      10.152   5.512  24.137  0.00  0.00    +0.012 A 
ATOM     15  C   UNL     1       8.920   4.932  24.440  0.00  0.00    +0.002 A 
ATOM     16  C   UNL     1       8.691   3.578  24.170  0.00  0.00    +0.023 A 
ATOM     17  C   UNL     1       9.695   2.778  23.610  0.00  0.00    +0.033 A 
ATOM     18  C   UNL     1      10.935   3.376  23.342  0.00  0.00    +0.035 A 
BRANCH  13  20
ATOM     19  F   UNL     1      12.582   5.703  21.883  0.00  0.00    -0.166 F 
ATOM     20  C   UNL     1      12.497   5.354  23.197  0.00  0.00    +0.417 C 
ATOM     21  F   UNL     1      12.762   6.490  23.899  0.00  0.00    -0.166 F 
ATOM     22  F   UNL     1      13.548   4.519  23.427  0.00  0.00    -0.166 F 
ENDBRANCH  13  20
ENDBRANCH   1  17
BRANCH   6  23
ATOM     23  C   UNL     1       8.098  -3.732  26.001  0.00  0.00    +0.253 C 
ATOM     24  N   UNL     1       6.797  -4.049  26.365  0.00  0.00    -0.279 N 
ATOM     25  H   UNL     1       6.047  -3.796  25.729  0.00  0.00    +0.155 HD
ATOM     26  O   UNL     1       9.091  -4.012  26.659  0.00  0.00    -0.270 OA
BRANCH  24  27
ATOM     27  C   UNL     1       6.397  -4.754  27.523  0.00  0.00    +0.070 A 
ATOM     28  C   UNL     1       5.407  -4.230  28.338  0.00  0.00    +0.137 A 
ATOM     29  N   UNL     1       4.954  -4.813  29.469  0.00  0.00    -0.242 NA
ATOM     30  C   UNL     1       5.528  -5.982  29.783  0.00  0.00    +0.221 A 
ATOM     31  N   UNL     1       6.488  -6.599  29.081  0.00  0.00    -0.242 NA
ATOM     32  C   UNL     1       6.902  -5.965  27.957  0.00  0.00    +0.137 A 
ENDBRANCH  24  27
ENDBRANCH   6  23
TORSDOF 4
ENDMDL
MODEL 2
REMARK VINA RESULT:      -7.7      4.149      5.240
REMARK  Name = 
REMARK  4 active torsions:
REMARK  status: ('A' for Active; 'I' for Inactive)
REMARK    1  A    between atoms: C_2  and  C_5
REMARK    2  A    between atoms: C_7  and  N_8
REMARK    3  A    between atoms: C_13  and  C_14
REMARK    4  A    between atoms: N_16  and  C_17
REMARK                            x       y       z     vdW  Elec       q    Type
REMARK                         _______ _______ _______ _____ _____    ______ ____
ROOT
ATOM      1  N   UNL     1       8.475  -1.603  24.666  0.00  0.00    -0.296 N 
ATOM      2  H   UNL     1       9.210  -1.770  25.343  0.00  0.00    +0.154 HD
ATOM      3  C   UNL     1       7.326  -2.331  24.729  0.00  0.00    +0.174 A 
ATOM      4  C   UNL     1       7.122  -3.415  25.640  0.00  0.00    +0.064 A 
ATOM      5  C   UNL     1       5.845  -3.873  25.342  0.00  0.00    +0.183 A 
ATOM      6  C   UNL     1       5.198  -4.945  25.963  0.00  0.00    +0.101 A 
ATOM      7  C   UNL     1       5.938  -5.578  26.976  0.00  0.00    +0.057 A 
ATOM      8  C   UNL     1       7.231  -5.142  27.315  0.00  0.00    +0.021 A 
ATOM      9 CL   UNL     1       5.313  -6.890  27.916  0.00  0.00    -0.083 Cl
ATOM     10  O   UNL     1       5.331  -3.112  24.347  0.00  0.00    -0.352 OA
ATOM     11  C   UNL     1       7.843  -4.065  26.655  0.00  0.00    +0.016 A 
ATOM     12  N   UNL     1       6.222  -2.139  23.995  0.00  0.00    -0.062 NA
ENDROOT
BRANCH   1  17
ATOM     13  C   UNL     1       9.335   1.772  23.268  0.00  0.00    +0.057 A 
ATOM     14  C   UNL     1       9.751   1.409  21.982  0.00  0.00    +0.012 A 
ATOM     15  C   UNL     1       9.686   0.077  21.575  0.00  0.00    +0.002 A 
ATOM     16  C   UNL     1       9.224  -0.909  22.455  0.00  0.00    +0.023 A 
ATOM     17  C   UNL     1       8.802  -0.576  23.748  0.00  0.00    +0.033 A 
ATOM     18  C   UNL     1       8.849   0.774  24.124  0.00  0.00    +0.035 A 
BRANCH  13  20
ATOM     19  F   UNL     1       8.700   4.080  23.021  0.00  0.00    -0.166 F 
ATOM     20  C   UNL     1       9.444   3.198  23.746  0.00  0.00    +0.417 C 
ATOM     21  F   UNL     1       9.038   3.346  25.037  0.00  0.00    -0.166 F 
ATOM     22  F   UNL     1      10.722   3.668  23.700  0.00  0.00    -0.166 F 
ENDBRANCH  13  20
ENDBRANCH   1  17
BRANCH   6  23
ATOM     23  C   UNL     1       3.847  -5.372  25.508  0.00  0.00    +0.253 C 
ATOM     24  N   UNL     1       3.787  -6.007  24.275  0.00  0.00    -0.279 N 
ATOM     25  H   UNL     1       4.655  -6.150  23.767  0.00  0.00    +0.155 HD
ATOM     26  O   UNL     1       2.883  -5.171  26.234  0.00  0.00    -0.270 OA
BRANCH  24  27
ATOM     27  C   UNL     1       2.631  -6.545  23.664  0.00  0.00    +0.070 A 
ATOM     28  C   UNL     1       2.322  -7.884  23.840  0.00  0.00    +0.137 A 
ATOM     29  N   UNL     1       1.251  -8.503  23.298  0.00  0.00    -0.242 NA
ATOM     30  C   UNL     1       0.456  -7.727  22.549  0.00  0.00    +0.221 A 
ATOM     31  N   UNL     1       0.638  -6.422  22.304  0.00  0.00    -0.242 NA
ATOM     32  C   UNL     1       1.730  -5.857  22.874  0.00  0.00    +0.137 A 
ENDBRANCH  24  27
ENDBRANCH   6  23
TORSDOF 4
ENDMDL
MODEL 3
REMARK VINA RESULT:      -7.7      5.506      9.737
REMARK  Name = 
REMARK  4 active torsions:
REMARK  status: ('A' for Active; 'I' for Inactive)
REMARK    1  A    between atoms: C_2  and  C_5
REMARK    2  A    between atoms: C_7  and  N_8
REMARK    3  A    between atoms: C_13  and  C_14
REMARK    4  A    between atoms: N_16  and  C_17
REMARK                            x       y       z     vdW  Elec       q    Type
REMARK                         _______ _______ _______ _____ _____    ______ ____
ROOT
ATOM      1  N   UNL     1       8.540  -2.411  24.729  0.00  0.00    -0.296 N 
ATOM      2  H   UNL     1       9.473  -2.771  24.569  0.00  0.00    +0.154 HD
ATOM      3  C   UNL     1       8.295  -1.083  24.556  0.00  0.00    +0.174 A 
ATOM      4  C   UNL     1       9.310  -0.119  24.261  0.00  0.00    +0.064 A 
ATOM      5  C   UNL     1       8.625   1.087  24.197  0.00  0.00    +0.183 A 
ATOM      6  C   UNL     1       9.197   2.337  23.946  0.00  0.00    +0.101 A 
ATOM      7  C   UNL     1      10.587   2.323  23.741  0.00  0.00    +0.057 A 
ATOM      8  C   UNL     1      11.319   1.123  23.791  0.00  0.00    +0.021 A 
ATOM      9 CL   UNL     1      11.495   3.746  23.360  0.00  0.00    -0.083 Cl
ATOM     10  O   UNL     1       7.309   0.853  24.419  0.00  0.00    -0.352 OA
ATOM     11  C   UNL     1      10.699  -0.109  24.054  0.00  0.00    +0.016 A 
ATOM     12  N   UNL     1       7.098  -0.484  24.601  0.00  0.00    -0.062 NA
ENDROOT
BRANCH   1  17
ATOM     13  C   UNL     1       6.084  -5.241  24.512  0.00  0.00    +0.057 A 
ATOM     14  C   UNL     1       6.036  -5.631  25.856  0.00  0.00    +0.012 A 
ATOM     15  C   UNL     1       6.760  -4.924  26.816  0.00  0.00    +0.002 A 
ATOM     16  C   UNL     1       7.554  -3.834  26.442  0.00  0.00    +0.023 A 
ATOM     17  C   UNL     1       7.623  -3.422  25.105  0.00  0.00    +0.033 A 
ATOM     18  C   UNL     1       6.864  -4.129  24.162  0.00  0.00    +0.035 A 
BRANCH  13  20
ATOM     19  F   UNL     1       4.714  -7.129  23.923  0.00  0.00    -0.166 F 
ATOM     20  C   UNL     1       5.350  -6.021  23.451  0.00  0.00    +0.417 C 
ATOM     21  F   UNL     1       4.390  -5.279  22.831  0.00  0.00    -0.166 F 
ATOM     22  F   UNL     1       6.177  -6.462  22.462  0.00  0.00    -0.166 F 
ENDBRANCH  13  20
ENDBRANCH   1  17
BRANCH   6  23
ATOM     23  C   UNL     1       8.355   3.565  23.961  0.00  0.00    +0.253 C 
ATOM     24  N   UNL     1       7.569   3.784  22.838  0.00  0.00    -0.279 N 
ATOM     25  H   UNL     1       7.605   3.102  22.087  0.00  0.00    +0.155 HD
ATOM     26  O   UNL     1       8.376   4.289  24.947  0.00  0.00    -0.270 OA
BRANCH  24  27
ATOM     27  C   UNL     1       6.655   4.846  22.648  0.00  0.00    +0.070 A 
ATOM     28  C   UNL     1       7.090   6.029  22.072  0.00  0.00    +0.137 A 
ATOM     29  N   UNL     1       6.309   7.108  21.851  0.00  0.00    -0.242 NA
ATOM     30  C   UNL     1       5.029   6.979  22.226  0.00  0.00    +0.221 A 
ATOM     31  N   UNL     1       4.481   5.891  22.786  0.00  0.00    -0.242 NA
ATOM     32  C   UNL     1       5.315   4.842  22.985  0.00  0.00    +0.137 A 
ENDBRANCH  24  27
ENDBRANCH   6  23
TORSDOF 4
ENDMDL
MODEL 4
REMARK VINA RESULT:      -7.6      5.773      9.984
REMARK  Name = 
REMARK  4 active torsions:
REMARK  status: ('A' for Active; 'I' for Inactive)
REMARK    1  A    between atoms: C_2  and  C_5
REMARK    2  A    between atoms: C_7  and  N_8
REMARK    3  A    between atoms: C_13  and  C_14
REMARK    4  A    between atoms: N_16  and  C_17
REMARK                            x       y       z     vdW  Elec       q    Type
REMARK                         _______ _______ _______ _____ _____    ______ ____
ROOT
ATOM      1  N   UNL     1       8.241  -3.286  23.800  0.00  0.00    -0.296 N 
ATOM      2  H   UNL     1       9.139  -3.527  24.202  0.00  0.00    +0.154 HD
ATOM      3  C   UNL     1       8.015  -2.013  23.376  0.00  0.00    +0.174 A 
ATOM      4  C   UNL     1       8.941  -0.938  23.560  0.00  0.00    +0.064 A 
ATOM      5  C   UNL     1       8.298   0.162  23.006  0.00  0.00    +0.183 A 
ATOM      6  C   UNL     1       8.805   1.464  22.959  0.00  0.00    +0.101 A 
ATOM      7  C   UNL     1      10.080   1.625  23.527  0.00  0.00    +0.057 A 
ATOM      8  C   UNL     1      10.769   0.537  24.092  0.00  0.00    +0.021 A 
ATOM      9 CL   UNL     1      10.923   3.136  23.530  0.00  0.00    -0.083 Cl
ATOM     10  O   UNL     1       7.097  -0.234  22.520  0.00  0.00    -0.352 OA
ATOM     11  C   UNL     1      10.214  -0.753  24.123  0.00  0.00    +0.016 A 
ATOM     12  N   UNL     1       6.937  -1.576  22.711  0.00  0.00    -0.062 NA
ENDROOT
BRANCH   1  17
ATOM     13  C   UNL     1       5.667  -5.833  24.787  0.00  0.00    +0.057 A 
ATOM     14  C   UNL     1       5.379  -6.392  23.536  0.00  0.00    +0.012 A 
ATOM     15  C   UNL     1       6.073  -5.968  22.403  0.00  0.00    +0.002 A 
ATOM     16  C   UNL     1       7.049  -4.969  22.505  0.00  0.00    +0.023 A 
ATOM     17  C   UNL     1       7.357  -4.391  23.742  0.00  0.00    +0.033 A 
ATOM     18  C   UNL     1       6.667  -4.854  24.872  0.00  0.00    +0.035 A 
BRANCH  13  20
ATOM     19  F   UNL     1       3.958  -5.328  26.403  0.00  0.00    -0.166 F 
ATOM     20  C   UNL     1       4.894  -6.240  26.016  0.00  0.00    +0.417 C 
ATOM     21  F   UNL     1       4.220  -7.410  25.842  0.00  0.00    -0.166 F 
ATOM     22  F   UNL     1       5.697  -6.429  27.100  0.00  0.00    -0.166 F 
ENDBRANCH  13  20
ENDBRANCH   1  17
BRANCH   6  23
ATOM     23  C   UNL     1       7.987   2.568  22.387  0.00  0.00    +0.253 C 
ATOM     24  N   UNL     1       7.706   3.628  23.237  0.00  0.00    -0.279 N 
ATOM     25  H   UNL     1       8.075   3.595  24.182  0.00  0.00    +0.155 HD
ATOM     26  O   UNL     1       7.633   2.502  21.217  0.00  0.00    -0.270 OA
BRANCH  24  27
ATOM     27  C   UNL     1       6.996   4.805  22.905  0.00  0.00    +0.070 A 
ATOM     28  C   UNL     1       5.690   4.963  23.338  0.00  0.00    +0.137 A 
ATOM     29  N   UNL     1       4.917   6.039  23.074  0.00  0.00    -0.242 NA
ATOM     30  C   UNL     1       5.499   6.998  22.341  0.00  0.00    +0.221 A 
ATOM     31  N   UNL     1       6.752   6.973  21.867  0.00  0.00    -0.242 NA
ATOM     32  C   UNL     1       7.477   5.867  22.163  0.00  0.00    +0.137 A 
ENDBRANCH  24  27
ENDBRANCH   6  23
TORSDOF 4
ENDMDL
MODEL 5
REMARK VINA RESULT:      -7.5      2.359      2.950
REMARK  Name = 
REMARK  4 active torsions:
REMARK  status: ('A' for Active; 'I' for Inactive)
REMARK    1  A    between atoms: C_2  and  C_5
REMARK    2  A    between atoms: C_7  and  N_8
REMARK    3  A    between atoms: C_13  and  C_14
REMARK    4  A    between atoms: N_16  and  C_17
REMARK                            x       y       z     vdW  Elec       q    Type
REMARK                         _______ _______ _______ _____ _____    ______ ____
ROOT
ATOM      1  N   UNL     1       8.234  -0.430  22.607  0.00  0.00    -0.296 N 
ATOM      2  H   UNL     1       7.992  -0.570  21.633  0.00  0.00    +0.154 HD
ATOM      3  C   UNL     1       7.967  -1.410  23.513  0.00  0.00    +0.174 A 
ATOM      4  C   UNL     1       7.254  -2.610  23.198  0.00  0.00    +0.064 A 
ATOM      5  C   UNL     1       7.193  -3.295  24.404  0.00  0.00    +0.183 A 
ATOM      6  C   UNL     1       6.573  -4.531  24.609  0.00  0.00    +0.101 A 
ATOM      7  C   UNL     1       5.979  -5.094  23.466  0.00  0.00    +0.057 A 
ATOM      8  C   UNL     1       6.024  -4.437  22.224  0.00  0.00    +0.021 A 
ATOM      9 CL   UNL     1       5.206  -6.642  23.475  0.00  0.00    -0.083 Cl
ATOM     10  O   UNL     1       7.832  -2.567  25.352  0.00  0.00    -0.352 OA
ATOM     11  C   UNL     1       6.653  -3.191  22.070  0.00  0.00    +0.016 A 
ATOM     12  N   UNL     1       8.342  -1.428  24.799  0.00  0.00    -0.062 NA
ENDROOT
BRANCH   1  17
ATOM     13  C   UNL     1       8.708   3.255  23.137  0.00  0.00    +0.057 A 
ATOM     14  C   UNL     1      10.027   3.271  23.605  0.00  0.00    +0.012 A 
ATOM     15  C   UNL     1      10.757   2.085  23.681  0.00  0.00    +0.002 A 
ATOM     16  C   UNL     1      10.171   0.869  23.310  0.00  0.00    +0.023 A 
ATOM     17  C   UNL     1       8.852   0.822  22.840  0.00  0.00    +0.033 A 
ATOM     18  C   UNL     1       8.148   2.031  22.744  0.00  0.00    +0.035 A 
BRANCH  13  20
ATOM     19  F   UNL     1       6.822   4.510  23.950  0.00  0.00    -0.166 F 
ATOM     20  C   UNL     1       7.884   4.518  23.095  0.00  0.00    +0.417 C 
ATOM     21  F   UNL     1       8.610   5.624  23.417  0.00  0.00    -0.166 F 
ATOM     22  F   UNL     1       7.363   4.760  21.861  0.00  0.00    -0.166 F 
ENDBRANCH  13  20
ENDBRANCH   1  17
BRANCH   6  23
ATOM     23  C   UNL     1       6.528  -5.132  25.970  0.00  0.00    +0.253 C 
ATOM     24  N   UNL     1       5.348  -4.959  26.679  0.00  0.00    -0.279 N 
ATOM     25  H   UNL     1       4.592  -4.449  26.234  0.00  0.00    +0.155 HD
ATOM     26  O   UNL     1       7.499  -5.756  26.377  0.00  0.00    -0.270 OA
BRANCH  24  27
ATOM     27  C   UNL     1       5.055  -5.481  27.961  0.00  0.00    +0.070 A 
ATOM     28  C   UNL     1       5.069  -4.641  29.062  0.00  0.00    +0.137 A 
ATOM     29  N   UNL     1       4.813  -5.031  30.329  0.00  0.00    -0.242 NA
ATOM     30  C   UNL     1       4.525  -6.331  30.484  0.00  0.00    +0.221 A 
ATOM     31  N   UNL     1       4.472  -7.245  29.505  0.00  0.00    -0.242 NA
ATOM     32  C   UNL     1       4.740  -6.793  28.256  0.00  0.00    +0.137 A 
ENDBRANCH  24  27
ENDBRANCH   6  23
TORSDOF 4
ENDMDL
MODEL 6
REMARK VINA RESULT:      -7.5      5.532      9.360
REMARK  Name = 
REMARK  4 active torsions:
REMARK  status: ('A' for Active; 'I' for Inactive)
REMARK    1  A    between atoms: C_2  and  C_5
REMARK    2  A    between atoms: C_7  and  N_8
REMARK    3  A    between atoms: C_13  and  C_14
REMARK    4  A    between atoms: N_16  and  C_17
REMARK                            x       y       z     vdW  Elec       q    Type
REMARK                         _______ _______ _______ _____ _____    ______ ____
ROOT
ATOM      1  N   UNL     1       9.344  -1.261  23.636  0.00  0.00    -0.296 N 
ATOM      2  H   UNL     1      10.332  -1.260  23.413  0.00  0.00    +0.154 HD
ATOM      3  C   UNL     1       8.683  -0.077  23.756  0.00  0.00    +0.174 A 
ATOM      4  C   UNL     1       9.322   1.201  23.692  0.00  0.00    +0.064 A 
ATOM      5  C   UNL     1       8.289   2.108  23.885  0.00  0.00    +0.183 A 
ATOM      6  C   UNL     1       8.421   3.499  23.922  0.00  0.00    +0.101 A 
ATOM      7  C   UNL     1       9.730   3.975  23.736  0.00  0.00    +0.057 A 
ATOM      8  C   UNL     1      10.805   3.092  23.531  0.00  0.00    +0.021 A 
ATOM      9 CL   UNL     1      10.118   5.661  23.688  0.00  0.00    -0.083 Cl
ATOM     10  O   UNL     1       7.130   1.422  24.035  0.00  0.00    -0.352 OA
ATOM     11  C   UNL     1      10.622   1.700  23.510  0.00  0.00    +0.016 A 
ATOM     12  N   UNL     1       7.362   0.082  23.917  0.00  0.00    -0.062 NA
ENDROOT
BRANCH   1  17
ATOM     13  C   UNL     1       7.511  -4.448  22.882  0.00  0.00    +0.057 A 
ATOM     14  C   UNL     1       8.020  -5.272  23.893  0.00  0.00    +0.012 A 
ATOM     15  C   UNL     1       8.907  -4.755  24.837  0.00  0.00    +0.002 A 
ATOM     16  C   UNL     1       9.309  -3.416  24.771  0.00  0.00    +0.023 A 
ATOM     17  C   UNL     1       8.817  -2.568  23.770  0.00  0.00    +0.033 A 
ATOM     18  C   UNL     1       7.904  -3.102  22.850  0.00  0.00    +0.035 A 
BRANCH  13  20
ATOM     19  F   UNL     1       5.532  -5.696  22.319  0.00  0.00    -0.166 F 
ATOM     20  C   UNL     1       6.592  -4.998  21.821  0.00  0.00    +0.417 C 
ATOM     21  F   UNL     1       6.056  -4.020  21.039  0.00  0.00    -0.166 F 
ATOM     22  F   UNL     1       7.228  -5.850  20.970  0.00  0.00    -0.166 F 
ENDBRANCH  13  20
ENDBRANCH   1  17
BRANCH   6  23
ATOM     23  C   UNL     1       7.237   4.359  24.195  0.00  0.00    +0.253 C 
ATOM     24  N   UNL     1       6.286   4.432  23.187  0.00  0.00    -0.279 N 
ATOM     25  H   UNL     1       6.444   3.898  22.339  0.00  0.00    +0.155 HD
ATOM     26  O   UNL     1       7.149   4.924  25.277  0.00  0.00    -0.270 OA
BRANCH  24  27
ATOM     27  C   UNL     1       5.062   5.139  23.239  0.00  0.00    +0.070 A 
ATOM     28  C   UNL     1       3.998   4.615  23.955  0.00  0.00    +0.137 A 
ATOM     29  N   UNL     1       2.785   5.198  24.066  0.00  0.00    -0.242 NA
ATOM     30  C   UNL     1       2.648   6.368  23.425  0.00  0.00    +0.221 A 
ATOM     31  N   UNL     1       3.596   6.984  22.706  0.00  0.00    -0.242 NA
ATOM     32  C   UNL     1       4.791   6.349  22.631  0.00  0.00    +0.137 A 
ENDBRANCH  24  27
ENDBRANCH   6  23
TORSDOF 4
ENDMDL
MODEL 7
REMARK VINA RESULT:      -7.4      3.112      3.608
REMARK  Name = 
REMARK  4 active torsions:
REMARK  status: ('A' for Active; 'I' for Inactive)
REMARK    1  A    between atoms: C_2  and  C_5
REMARK    2  A    between atoms: C_7  and  N_8
REMARK    3  A    between atoms: C_13  and  C_14
REMARK    4  A    between atoms: N_16  and  C_17
REMARK                            x       y       z     vdW  Elec       q    Type
REMARK                         _______ _______ _______ _____ _____    ______ ____
ROOT
ATOM      1  N   UNL     1       8.590   1.177  23.631  0.00  0.00    -0.296 N 
ATOM      2  H   UNL     1       9.599   1.116  23.573  0.00  0.00    +0.154 HD
ATOM      3  C   UNL     1       7.868   0.070  23.957  0.00  0.00    +0.174 A 
ATOM      4  C   UNL     1       8.440  -1.230  24.125  0.00  0.00    +0.064 A 
ATOM      5  C   UNL     1       7.354  -2.043  24.423  0.00  0.00    +0.183 A 
ATOM      6  C   UNL     1       7.406  -3.420  24.658  0.00  0.00    +0.101 A 
ATOM      7  C   UNL     1       8.690  -3.986  24.583  0.00  0.00    +0.057 A 
ATOM      8  C   UNL     1       9.818  -3.198  24.290  0.00  0.00    +0.021 A 
ATOM      9 CL   UNL     1       8.998  -5.660  24.893  0.00  0.00    -0.083 Cl
ATOM     10  O   UNL     1       6.233  -1.282  24.446  0.00  0.00    -0.352 OA
ATOM     11  C   UNL     1       9.713  -1.818  24.053  0.00  0.00    +0.016 A 
ATOM     12  N   UNL     1       6.551   0.023  24.199  0.00  0.00    -0.062 NA
ENDROOT
BRANCH   1  17
ATOM     13  C   UNL     1       8.299   4.919  23.573  0.00  0.00    +0.057 A 
ATOM     14  C   UNL     1       7.330   5.077  22.576  0.00  0.00    +0.012 A 
ATOM     15  C   UNL     1       6.746   3.958  21.983  0.00  0.00    +0.002 A 
ATOM     16  C   UNL     1       7.138   2.670  22.367  0.00  0.00    +0.023 A 
ATOM     17  C   UNL     1       8.107   2.480  23.361  0.00  0.00    +0.033 A 
ATOM     18  C   UNL     1       8.658   3.620  23.963  0.00  0.00    +0.035 A 
BRANCH  13  20
ATOM     19  F   UNL     1       9.652   5.830  25.343  0.00  0.00    -0.166 F 
ATOM     20  C   UNL     1       8.980   6.114  24.191  0.00  0.00    +0.417 C 
ATOM     21  F   UNL     1       9.898   6.678  23.358  0.00  0.00    -0.166 F 
ATOM     22  F   UNL     1       8.105   7.108  24.508  0.00  0.00    -0.166 F 
ENDBRANCH  13  20
ENDBRANCH   1  17
BRANCH   6  23
ATOM     23  C   UNL     1       6.155  -4.186  24.911  0.00  0.00    +0.253 C 
ATOM     24  N   UNL     1       5.695  -4.972  23.864  0.00  0.00    -0.279 N 
ATOM     25  H   UNL     1       6.233  -4.987  23.003  0.00  0.00    +0.155 HD
ATOM     26  O   UNL     1       5.622  -4.109  26.009  0.00  0.00    -0.270 OA
BRANCH  24  27
ATOM     27  C   UNL     1       4.566  -5.823  23.887  0.00  0.00    +0.070 A 
ATOM     28  C   UNL     1       3.405  -5.438  23.237  0.00  0.00    +0.137 A 
ATOM     29  N   UNL     1       2.268  -6.166  23.200  0.00  0.00    -0.242 NA
ATOM     30  C   UNL     1       2.313  -7.338  23.848  0.00  0.00    +0.221 A 
ATOM     31  N   UNL     1       3.371  -7.829  24.509  0.00  0.00    -0.242 NA
ATOM     32  C   UNL     1       4.482  -7.053  24.512  0.00  0.00    +0.137 A 
ENDBRANCH  24  27
ENDBRANCH   6  23
TORSDOF 4
ENDMDL
MODEL 8
REMARK VINA RESULT:      -7.2      5.485      9.683
REMARK  Name = 
REMARK  4 active torsions:
REMARK  status: ('A' for Active; 'I' for Inactive)
REMARK    1  A    between atoms: C_2  and  C_5
REMARK    2  A    between atoms: C_7  and  N_8
REMARK    3  A    between atoms: C_13  and  C_14
REMARK    4  A    between atoms: N_16  and  C_17
REMARK                            x       y       z     vdW  Elec       q    Type
REMARK                         _______ _______ _______ _____ _____    ______ ____
ROOT
ATOM      1  N   UNL     1       7.489  -4.075  23.976  0.00  0.00    -0.296 N 
ATOM      2  H   UNL     1       8.360  -4.481  23.656  0.00  0.00    +0.154 HD
ATOM      3  C   UNL     1       7.268  -2.742  23.806  0.00  0.00    +0.174 A 
ATOM      4  C   UNL     1       8.246  -1.834  23.292  0.00  0.00    +0.064 A 
ATOM      5  C   UNL     1       7.608  -0.600  23.315  0.00  0.00    +0.183 A 
ATOM      6  C   UNL     1       8.170   0.616  22.917  0.00  0.00    +0.101 A 
ATOM      7  C   UNL     1       9.495   0.534  22.455  0.00  0.00    +0.057 A 
ATOM      8  C   UNL     1      10.176  -0.696  22.409  0.00  0.00    +0.021 A 
ATOM      9 CL   UNL     1      10.369   1.904  21.860  0.00  0.00    -0.083 Cl
ATOM     10  O   UNL     1       6.350  -0.769  23.789  0.00  0.00    -0.352 OA
ATOM     11  C   UNL     1       9.570  -1.891  22.827  0.00  0.00    +0.016 A 
ATOM     12  N   UNL     1       6.125  -2.089  24.054  0.00  0.00    -0.062 NA
ENDROOT
BRANCH   1  17
ATOM     13  C   UNL     1       5.630  -6.104  26.528  0.00  0.00    +0.057 A 
ATOM     14  C   UNL     1       4.677  -6.720  25.709  0.00  0.00    +0.012 A 
ATOM     15  C   UNL     1       4.697  -6.507  24.330  0.00  0.00    +0.002 A 
ATOM     16  C   UNL     1       5.656  -5.664  23.759  0.00  0.00    +0.023 A 
ATOM     17  C   UNL     1       6.621  -5.033  24.554  0.00  0.00    +0.033 A 
ATOM     18  C   UNL     1       6.600  -5.285  25.933  0.00  0.00    +0.035 A 
BRANCH  13  20
ATOM     19  F   UNL     1       5.179  -7.513  28.426  0.00  0.00    -0.166 F 
ATOM     20  C   UNL     1       5.597  -6.279  28.026  0.00  0.00    +0.417 C 
ATOM     21  F   UNL     1       6.819  -6.098  28.598  0.00  0.00    -0.166 F 
ATOM     22  F   UNL     1       4.764  -5.390  28.636  0.00  0.00    -0.166 F 
ENDBRANCH  13  20
ENDBRANCH   1  17
BRANCH   6  23
ATOM     23  C   UNL     1       7.395   1.880  23.047  0.00  0.00    +0.253 C 
ATOM     24  N   UNL     1       7.765   2.723  24.085  0.00  0.00    -0.279 N 
ATOM     25  H   UNL     1       8.536   2.439  24.682  0.00  0.00    +0.155 HD
ATOM     26  O   UNL     1       6.510   2.121  22.237  0.00  0.00    -0.270 OA
BRANCH  24  27
ATOM     27  C   UNL     1       7.213   3.992  24.373  0.00  0.00    +0.070 A 
ATOM     28  C   UNL     1       7.816   5.133  23.868  0.00  0.00    +0.137 A 
ATOM     29  N   UNL     1       7.381   6.392  24.084  0.00  0.00    -0.242 NA
ATOM     30  C   UNL     1       6.281   6.499  24.842  0.00  0.00    +0.221 A 
ATOM     31  N   UNL     1       5.600   5.480  25.384  0.00  0.00    -0.242 NA
ATOM     32  C   UNL     1       6.086   4.240  25.133  0.00  0.00    +0.137 A 
ENDBRANCH  24  27
ENDBRANCH   6  23
TORSDOF 4
ENDMDL
MODEL 9
REMARK VINA RESULT:      -7.2      5.503      9.359
REMARK  Name = 
REMARK  4 active torsions:
REMARK  status: ('A' for Active; 'I' for Inactive)
REMARK    1  A    between atoms: C_2  and  C_5
REMARK    2  A    between atoms: C_7  and  N_8
REMARK    3  A    between atoms: C_13  and  C_14
REMARK    4  A    between atoms: N_16  and  C_17
REMARK                            x       y       z     vdW  Elec       q    Type
REMARK                         _______ _______ _______ _____ _____    ______ ____
ROOT
ATOM      1  N   UNL     1       9.409  -0.773  23.414  0.00  0.00    -0.296 N 
ATOM      2  H   UNL     1      10.404  -0.746  23.600  0.00  0.00    +0.154 HD
ATOM      3  C   UNL     1       8.731   0.391  23.216  0.00  0.00    +0.174 A 
ATOM      4  C   UNL     1       9.320   1.687  23.359  0.00  0.00    +0.064 A 
ATOM      5  C   UNL     1       8.277   2.565  23.091  0.00  0.00    +0.183 A 
ATOM      6  C   UNL     1       8.358   3.960  23.121  0.00  0.00    +0.101 A 
ATOM      7  C   UNL     1       9.624   4.474  23.450  0.00  0.00    +0.057 A 
ATOM      8  C   UNL     1      10.708   3.621  23.722  0.00  0.00    +0.021 A 
ATOM      9 CL   UNL     1       9.967   6.169  23.492  0.00  0.00    -0.083 Cl
ATOM     10  O   UNL     1       7.167   1.846  22.797  0.00  0.00    -0.352 OA
ATOM     11  C   UNL     1      10.575   2.224  23.686  0.00  0.00    +0.016 A 
ATOM     12  N   UNL     1       7.453   0.511  22.834  0.00  0.00    -0.062 NA
ENDROOT
BRANCH   1  17
ATOM     13  C   UNL     1       8.448  -4.240  24.483  0.00  0.00    +0.057 A 
ATOM     14  C   UNL     1       7.610  -4.604  23.422  0.00  0.00    +0.012 A 
ATOM     15  C   UNL     1       7.423  -3.733  22.348  0.00  0.00    +0.002 A 
ATOM     16  C   UNL     1       8.054  -2.484  22.333  0.00  0.00    +0.023 A 
ATOM     17  C   UNL     1       8.896  -2.092  23.381  0.00  0.00    +0.033 A 
ATOM     18  C   UNL     1       9.093  -2.996  24.435  0.00  0.00    +0.035 A 
BRANCH  13  20
ATOM     19  F   UNL     1       9.531  -6.143  25.481  0.00  0.00    -0.166 F 
ATOM     20  C   UNL     1       8.625  -5.144  25.677  0.00  0.00    +0.417 C 
ATOM     21  F   UNL     1       9.052  -4.469  26.780  0.00  0.00    -0.166 F 
ATOM     22  F   UNL     1       7.467  -5.760  26.041  0.00  0.00    -0.166 F 
ENDBRANCH  13  20
ENDBRANCH   1  17
BRANCH   6  23
ATOM     23  C   UNL     1       7.146   4.788  22.870  0.00  0.00    +0.253 C 
ATOM     24  N   UNL     1       6.073   4.581  23.725  0.00  0.00    -0.279 N 
ATOM     25  H   UNL     1       6.176   3.894  24.466  0.00  0.00    +0.155 HD
ATOM     26  O   UNL     1       7.164   5.608  21.962  0.00  0.00    -0.270 OA
BRANCH  24  27
ATOM     27  C   UNL     1       4.845   5.281  23.714  0.00  0.00    +0.070 A 
ATOM     28  C   UNL     1       3.771   4.771  23.002  0.00  0.00    +0.137 A 
ATOM     29  N   UNL     1       2.558   5.357  22.916  0.00  0.00    -0.242 NA
ATOM     30  C   UNL     1       2.427   6.510  23.587  0.00  0.00    +0.221 A 
ATOM     31  N   UNL     1       3.381   7.106  24.316  0.00  0.00    -0.242 NA
ATOM     32  C   UNL     1       4.577   6.471  24.363  0.00  0.00    +0.137 A 
ENDBRANCH  24  27
ENDBRANCH   6  23
TORSDOF 4
ENDMDL
