MODEL 1
REMARK VINA RESULT:      -3.2      0.000      0.000
REMARK  Name = 
REMARK  2 active torsions:
REMARK  status: ('A' for Active; 'I' for Inactive)
REMARK    1  A    between atoms: CB_1  and  CA_2
REMARK    2  A    between atoms: CA_2  and  C_6
REMARK                            x       y       z     vdW  Elec       q    Type
REMARK                         _______ _______ _______ _____ _____    ______ ____
ROOT
ATOM      1  CB  ALA A   1       9.346  -0.041  21.312  0.00  0.00    +0.123 C 
ATOM      2  CA  ALA A   1       9.953   1.014  22.169  0.00  0.00    +0.195 C 
ATOM      3  N   ALA A   1      10.109   2.193  21.688  0.00  0.00    -0.257 N 
ATOM      4  H1  ALA A   1       9.847   2.475  20.753  0.00  0.00    +0.443 HD
ATOM      5  H2  ALA A   1      10.536   2.860  22.351  0.00  0.00    +0.443 HD
ENDROOT
BRANCH   2   6
ATOM      6  C   ALA A   1      10.403   0.799  23.572  0.00  0.00    +0.132 C 
ATOM      7  OXT ALA A   1      10.435  -0.434  23.860  0.00  0.00    -0.540 OA
ATOM      8  O   ALA A   1      10.672   1.825  24.238  0.00  0.00    -0.540 OA
ENDBRANCH   2   6
TORSDOF 1
ENDMDL
MODEL 2
REMARK VINA RESULT:      -3.2      0.671      1.354
REMARK  Name = 
REMARK  2 active torsions:
REMARK  status: ('A' for Active; 'I' for Inactive)
REMARK    1  A    between atoms: CB_1  and  CA_2
REMARK    2  A    between atoms: CA_2  and  C_6
REMARK                            x       y       z     vdW  Elec       q    Type
REMARK                         _______ _______ _______ _____ _____    ______ ____
ROOT
ATOM      1  CB  ALA A   1       9.554   0.036  21.576  0.00  0.00    +0.123 C 
ATOM      2  CA  ALA A   1       9.995   1.250  22.315  0.00  0.00    +0.195 C 
ATOM      3  N   ALA A   1      10.165   2.345  21.669  0.00  0.00    -0.257 N 
ATOM      4  H1  ALA A   1      10.021   2.457  20.674  0.00  0.00    +0.443 HD
ATOM      5  H2  ALA A   1      10.470   3.136  22.260  0.00  0.00    +0.443 HD
ENDROOT
BRANCH   2   6
ATOM      6  C   ALA A   1      10.259   1.291  23.780  0.00  0.00    +0.132 C 
ATOM      7  OXT ALA A   1       9.726   2.307  24.315  0.00  0.00    -0.540 OA
ATOM      8  O   ALA A   1      10.942   0.354  24.253  0.00  0.00    -0.540 OA
ENDBRANCH   2   6
TORSDOF 1
ENDMDL
MODEL 3
REMARK VINA RESULT:      -3.1      1.430      2.288
REMARK  Name = 
REMARK  2 active torsions:
REMARK  status: ('A' for Active; 'I' for Inactive)
REMARK    1  A    between atoms: CB_1  and  CA_2
REMARK    2  A    between atoms: CA_2  and  C_6
REMARK                            x       y       z     vdW  Elec       q    Type
REMARK                         _______ _______ _______ _____ _____    ______ ____
ROOT
ATOM      1  CB  ALA A   1      10.555   2.040  23.755  0.00  0.00    +0.123 C 
ATOM      2  CA  ALA A   1      10.076   1.429  22.485  0.00  0.00    +0.195 C 
ATOM      3  N   ALA A   1       9.737   2.196  21.515  0.00  0.00    -0.257 N 
ATOM      4  H1  ALA A   1       9.768   3.207  21.539  0.00  0.00    +0.443 HD
ATOM      5  H2  ALA A   1       9.419   1.688  20.673  0.00  0.00    +0.443 HD
ENDROOT
BRANCH   2   6
ATOM      6  C   ALA A   1       9.959  -0.037  22.251  0.00  0.00    +0.132 C 
ATOM      7  OXT ALA A   1       9.388  -0.282  21.148  0.00  0.00    -0.540 OA
ATOM      8  O   ALA A   1      10.423  -0.785  23.142  0.00  0.00    -0.540 OA
ENDBRANCH   2   6
TORSDOF 1
ENDMDL
MODEL 4
REMARK VINA RESULT:      -3.1      6.813      7.247
REMARK  Name = 
REMARK  2 active torsions:
REMARK  status: ('A' for Active; 'I' for Inactive)
REMARK    1  A    between atoms: CB_1  and  CA_2
REMARK    2  A    between atoms: CA_2  and  C_6
REMARK                            x       y       z     vdW  Elec       q    Type
REMARK                         _______ _______ _______ _____ _____    ______ ____
ROOT
ATOM      1  CB  ALA A   1       8.219  -5.044  24.122  0.00  0.00    +0.123 C 
ATOM      2  CA  ALA A   1       8.718  -5.209  25.514  0.00  0.00    +0.195 C 
ATOM      3  N   ALA A   1       9.887  -5.703  25.701  0.00  0.00    -0.257 N 
ATOM      4  H1  ALA A   1      10.515  -5.996  24.965  0.00  0.00    +0.443 HD
ATOM      5  H2  ALA A   1      10.152  -5.780  26.697  0.00  0.00    +0.443 HD
ENDROOT
BRANCH   2   6
ATOM      6  C   ALA A   1       7.947  -4.836  26.732  0.00  0.00    +0.132 C 
ATOM      7  OXT ALA A   1       7.692  -3.595  26.752  0.00  0.00    -0.540 OA
ATOM      8  O   ALA A   1       7.672  -5.763  27.528  0.00  0.00    -0.540 OA
ENDBRANCH   2   6
TORSDOF 1
ENDMDL
MODEL 5
REMARK VINA RESULT:      -3.0      1.747      2.000
REMARK  Name = 
REMARK  2 active torsions:
REMARK  status: ('A' for Active; 'I' for Inactive)
REMARK    1  A    between atoms: CB_1  and  CA_2
REMARK    2  A    between atoms: CA_2  and  C_6
REMARK                            x       y       z     vdW  Elec       q    Type
REMARK                         _______ _______ _______ _____ _____    ______ ____
ROOT
ATOM      1  CB  ALA A   1       9.803   1.315  21.941  0.00  0.00    +0.123 C 
ATOM      2  CA  ALA A   1       9.860  -0.163  22.104  0.00  0.00    +0.195 C 
ATOM      3  N   ALA A   1       9.585  -0.912  21.099  0.00  0.00    -0.257 N 
ATOM      4  H1  ALA A   1       9.325  -0.574  20.182  0.00  0.00    +0.443 HD
ATOM      5  H2  ALA A   1       9.650  -1.923  21.302  0.00  0.00    +0.443 HD
ENDROOT
BRANCH   2   6
ATOM      6  C   ALA A   1      10.223  -0.854  23.373  0.00  0.00    +0.132 C 
ATOM      7  OXT ALA A   1      10.193  -2.112  23.235  0.00  0.00    -0.540 OA
ATOM      8  O   ALA A   1      10.493  -0.122  24.352  0.00  0.00    -0.540 OA
ENDBRANCH   2   6
TORSDOF 1
ENDMDL
MODEL 6
REMARK VINA RESULT:      -3.0      1.695      2.328
REMARK  Name = 
REMARK  2 active torsions:
REMARK  status: ('A' for Active; 'I' for Inactive)
REMARK    1  A    between atoms: CB_1  and  CA_2
REMARK    2  A    between atoms: CA_2  and  C_6
REMARK                            x       y       z     vdW  Elec       q    Type
REMARK                         _______ _______ _______ _____ _____    ______ ____
ROOT
ATOM      1  CB  ALA A   1       9.735   1.357  21.903  0.00  0.00    +0.123 C 
ATOM      2  CA  ALA A   1       9.845  -0.115  22.092  0.00  0.00    +0.195 C 
ATOM      3  N   ALA A   1       9.580  -0.891  21.106  0.00  0.00    -0.257 N 
ATOM      4  H1  ALA A   1       9.296  -0.581  20.187  0.00  0.00    +0.443 HD
ATOM      5  H2  ALA A   1       9.683  -1.896  21.327  0.00  0.00    +0.443 HD
ENDROOT
BRANCH   2   6
ATOM      6  C   ALA A   1      10.249  -0.768  23.368  0.00  0.00    +0.132 C 
ATOM      7  OXT ALA A   1      10.667   0.083  24.207  0.00  0.00    -0.540 OA
ATOM      8  O   ALA A   1      10.122  -2.013  23.426  0.00  0.00    -0.540 OA
ENDBRANCH   2   6
TORSDOF 1
ENDMDL
MODEL 7
REMARK VINA RESULT:      -3.0      6.914      7.350
REMARK  Name = 
REMARK  2 active torsions:
REMARK  status: ('A' for Active; 'I' for Inactive)
REMARK    1  A    between atoms: CB_1  and  CA_2
REMARK    2  A    between atoms: CA_2  and  C_6
REMARK                            x       y       z     vdW  Elec       q    Type
REMARK                         _______ _______ _______ _____ _____    ______ ____
ROOT
ATOM      1  CB  ALA A   1       6.363  -5.228  25.684  0.00  0.00    +0.123 C 
ATOM      2  CA  ALA A   1       7.839  -5.382  25.794  0.00  0.00    +0.195 C 
ATOM      3  N   ALA A   1       8.347  -5.713  26.925  0.00  0.00    -0.257 N 
ATOM      4  H1  ALA A   1       7.818  -5.882  27.769  0.00  0.00    +0.443 HD
ATOM      5  H2  ALA A   1       9.377  -5.798  26.909  0.00  0.00    +0.443 HD
ENDROOT
BRANCH   2   6
ATOM      6  C   ALA A   1       8.790  -5.178  24.667  0.00  0.00    +0.132 C 
ATOM      7  OXT ALA A   1       9.971  -5.000  25.089  0.00  0.00    -0.540 OA
ATOM      8  O   ALA A   1       8.306  -5.210  23.512  0.00  0.00    -0.540 OA
ENDBRANCH   2   6
TORSDOF 1
ENDMDL
MODEL 8
REMARK VINA RESULT:      -2.9      5.218      5.559
REMARK  Name = 
REMARK  2 active torsions:
REMARK  status: ('A' for Active; 'I' for Inactive)
REMARK    1  A    between atoms: CB_1  and  CA_2
REMARK    2  A    between atoms: CA_2  and  C_6
REMARK                            x       y       z     vdW  Elec       q    Type
REMARK                         _______ _______ _______ _____ _____    ______ ____
ROOT
ATOM      1  CB  ALA A   1      13.346   5.614  22.222  0.00  0.00    +0.123 C 
ATOM      2  CA  ALA A   1      12.252   5.265  23.169  0.00  0.00    +0.195 C 
ATOM      3  N   ALA A   1      11.657   4.135  23.044  0.00  0.00    -0.257 N 
ATOM      4  H1  ALA A   1      11.874   3.443  22.340  0.00  0.00    +0.443 HD
ATOM      5  H2  ALA A   1      10.913   3.976  23.743  0.00  0.00    +0.443 HD
ENDROOT
BRANCH   2   6
ATOM      6  C   ALA A   1      11.785   6.147  24.274  0.00  0.00    +0.132 C 
ATOM      7  OXT ALA A   1      10.545   6.384  24.180  0.00  0.00    -0.540 OA
ATOM      8  O   ALA A   1      12.650   6.513  25.102  0.00  0.00    -0.540 OA
ENDBRANCH   2   6
TORSDOF 1
ENDMDL
MODEL 9
REMARK VINA RESULT:      -2.9      2.649      2.927
REMARK  Name = 
REMARK  2 active torsions:
REMARK  status: ('A' for Active; 'I' for Inactive)
REMARK    1  A    between atoms: CB_1  and  CA_2
REMARK    2  A    between atoms: CA_2  and  C_6
REMARK                            x       y       z     vdW  Elec       q    Type
REMARK                         _______ _______ _______ _____ _____    ______ ____
ROOT
ATOM      1  CB  ALA A   1      10.188   1.198  23.918  0.00  0.00    +0.123 C 
ATOM      2  CA  ALA A   1      10.341   2.376  23.021  0.00  0.00    +0.195 C 
ATOM      3  N   ALA A   1      10.117   2.235  21.765  0.00  0.00    -0.257 N 
ATOM      4  H1  ALA A   1       9.838   1.370  21.322  0.00  0.00    +0.443 HD
ATOM      5  H2  ALA A   1      10.247   3.103  21.219  0.00  0.00    +0.443 HD
ENDROOT
BRANCH   2   6
ATOM      6  C   ALA A   1      10.742   3.734  23.480  0.00  0.00    +0.132 C 
ATOM      7  OXT ALA A   1       9.758   4.362  23.972  0.00  0.00    -0.540 OA
ATOM      8  O   ALA A   1      11.944   4.048  23.321  0.00  0.00    -0.540 OA
ENDBRANCH   2   6
TORSDOF 1
ENDMDL
