MODEL 1
REMARK VINA RESULT:      -6.4      0.000      0.000
REMARK  Name = 
REMARK  7 active torsions:
REMARK  status: ('A' for Active; 'I' for Inactive)
REMARK    1  A    between atoms: O_1  and  C_2
REMARK    2  A    between atoms: C_2  and  C_3
REMARK    3  A    between atoms: C_2  and  C_12
REMARK    4  A    between atoms: C_2  and  C_18
REMARK    5  A    between atoms: C_3  and  C_4
REMARK    6  A    between atoms: C_4  and  C_5
REMARK    7  A    between atoms: C_5  and  N_6
REMARK                            x       y       z     vdW  Elec       q    Type
REMARK                         _______ _______ _______ _____ _____    ______ ____
ROOT
ATOM      1  C   UNL     1       8.743  -3.821  24.705  0.00  0.00    +0.116 C 
ENDROOT
BRANCH   1   2
ATOM      2  C   UNL     1       7.731  -4.265  23.639  0.00  0.00    -0.012 A 
ATOM      3  C   UNL     1       6.701  -3.405  23.212  0.00  0.00    +0.007 A 
ATOM      4  C   UNL     1       5.836  -3.769  22.175  0.00  0.00    +0.000 A 
ATOM      5  C   UNL     1       5.970  -5.007  21.553  0.00  0.00    +0.000 A 
ATOM      6  C   UNL     1       6.954  -5.892  21.985  0.00  0.00    +0.000 A 
ATOM      7  C   UNL     1       7.822  -5.524  23.018  0.00  0.00    +0.007 A 
ENDBRANCH   1   2
BRANCH   1   8
ATOM      8  C   UNL     1       9.263  -2.390  24.427  0.00  0.00    -0.012 A 
ATOM      9  C   UNL     1       9.978  -2.068  23.255  0.00  0.00    +0.007 A 
ATOM     10  C   UNL     1      10.389  -0.761  22.986  0.00  0.00    +0.000 A 
ATOM     11  C   UNL     1      10.103   0.253  23.890  0.00  0.00    +0.000 A 
ATOM     12  C   UNL     1       9.437  -0.045  25.077  0.00  0.00    +0.000 A 
ATOM     13  C   UNL     1       9.033  -1.355  25.351  0.00  0.00    +0.007 A 
ENDBRANCH   1   8
BRANCH   1  14
ATOM     14  O   UNL     1       9.877  -4.711  24.687  0.00  0.00    -0.379 OA
ATOM     15  H   UNL     1       9.882  -5.162  25.548  0.00  0.00    +0.211 HD
ENDBRANCH   1  14
BRANCH   1  16
ATOM     16  C   UNL     1       8.188  -3.909  26.148  0.00  0.00    +0.046 C 
BRANCH  16  17
ATOM     17  C   UNL     1       7.979  -5.315  26.722  0.00  0.00    +0.019 C 
BRANCH  17  18
ATOM     18  C   UNL     1       6.665  -5.375  27.526  0.00  0.00    +0.084 C 
BRANCH  18  19
ATOM     19  N   UNL     1       5.765  -6.463  27.102  0.00  0.00    -0.302 NA
ATOM     20  C   UNL     1       5.356  -6.335  25.696  0.00  0.00    +0.084 C 
ATOM     21  C   UNL     1       4.353  -5.206  25.450  0.00  0.00    +0.015 C 
ATOM     22  C   UNL     1       3.145  -5.318  26.377  0.00  0.00    +0.002 C 
ATOM     23  C   UNL     1       3.573  -5.496  27.830  0.00  0.00    +0.015 C 
ATOM     24  C   UNL     1       4.587  -6.631  27.965  0.00  0.00    +0.084 C 
ENDBRANCH  18  19
ENDBRANCH  17  18
ENDBRANCH  16  17
ENDBRANCH   1  16
TORSDOF 7
ENDMDL
MODEL 2
REMARK VINA RESULT:      -6.3      1.886      6.169
REMARK  Name = 
REMARK  7 active torsions:
REMARK  status: ('A' for Active; 'I' for Inactive)
REMARK    1  A    between atoms: O_1  and  C_2
REMARK    2  A    between atoms: C_2  and  C_3
REMARK    3  A    between atoms: C_2  and  C_12
REMARK    4  A    between atoms: C_2  and  C_18
REMARK    5  A    between atoms: C_3  and  C_4
REMARK    6  A    between atoms: C_4  and  C_5
REMARK    7  A    between atoms: C_5  and  N_6
REMARK                            x       y       z     vdW  Elec       q    Type
REMARK                         _______ _______ _______ _____ _____    ______ ____
ROOT
ATOM      1  C   UNL     1       8.014  -4.699  24.635  0.00  0.00    +0.116 C 
ENDROOT
BRANCH   1   2
ATOM      2  C   UNL     1       7.075  -5.215  25.734  0.00  0.00    -0.012 A 
ATOM      3  C   UNL     1       5.820  -5.769  25.418  0.00  0.00    +0.007 A 
ATOM      4  C   UNL     1       5.003  -6.326  26.407  0.00  0.00    +0.000 A 
ATOM      5  C   UNL     1       5.415  -6.328  27.736  0.00  0.00    +0.000 A 
ATOM      6  C   UNL     1       6.633  -5.750  28.081  0.00  0.00    +0.000 A 
ATOM      7  C   UNL     1       7.451  -5.198  27.091  0.00  0.00    +0.007 A 
ENDBRANCH   1   2
BRANCH   1   8
ATOM      8  C   UNL     1       7.330  -4.733  23.247  0.00  0.00    -0.012 A 
ATOM      9  C   UNL     1       7.394  -5.866  22.409  0.00  0.00    +0.007 A 
ATOM     10  C   UNL     1       6.722  -5.908  21.186  0.00  0.00    +0.000 A 
ATOM     11  C   UNL     1       5.979  -4.813  20.768  0.00  0.00    +0.000 A 
ATOM     12  C   UNL     1       5.935  -3.664  21.555  0.00  0.00    +0.000 A 
ATOM     13  C   UNL     1       6.614  -3.619  22.776  0.00  0.00    +0.007 A 
ENDBRANCH   1   8
BRANCH   1  14
ATOM     14  O   UNL     1       9.182  -5.543  24.569  0.00  0.00    -0.379 OA
ATOM     15  H   UNL     1       9.267  -5.815  23.641  0.00  0.00    +0.211 HD
ENDBRANCH   1  14
BRANCH   1  16
ATOM     16  C   UNL     1       8.562  -3.278  24.918  0.00  0.00    +0.046 C 
BRANCH  16  17
ATOM     17  C   UNL     1       9.930  -2.935  24.319  0.00  0.00    +0.019 C 
BRANCH  17  18
ATOM     18  C   UNL     1       9.778  -1.879  23.206  0.00  0.00    +0.084 C 
BRANCH  18  19
ATOM     19  N   UNL     1       8.910  -0.749  23.582  0.00  0.00    -0.302 NA
ATOM     20  C   UNL     1       8.372  -0.044  22.409  0.00  0.00    +0.084 C 
ATOM     21  C   UNL     1       9.411   0.803  21.672  0.00  0.00    +0.015 C 
ATOM     22  C   UNL     1      10.129   1.760  22.621  0.00  0.00    +0.002 C 
ATOM     23  C   UNL     1      10.647   1.033  23.858  0.00  0.00    +0.015 C 
ATOM     24  C   UNL     1       9.541   0.203  24.507  0.00  0.00    +0.084 C 
ENDBRANCH  18  19
ENDBRANCH  17  18
ENDBRANCH  16  17
ENDBRANCH   1  16
TORSDOF 7
ENDMDL
MODEL 3
REMARK VINA RESULT:      -6.3      1.883      5.950
REMARK  Name = 
REMARK  7 active torsions:
REMARK  status: ('A' for Active; 'I' for Inactive)
REMARK    1  A    between atoms: O_1  and  C_2
REMARK    2  A    between atoms: C_2  and  C_3
REMARK    3  A    between atoms: C_2  and  C_12
REMARK    4  A    between atoms: C_2  and  C_18
REMARK    5  A    between atoms: C_3  and  C_4
REMARK    6  A    between atoms: C_4  and  C_5
REMARK    7  A    between atoms: C_5  and  N_6
REMARK                            x       y       z     vdW  Elec       q    Type
REMARK                         _______ _______ _______ _____ _____    ______ ____
ROOT
ATOM      1  C   UNL     1       7.339  -4.212  25.531  0.00  0.00    +0.116 C 
ENDROOT
BRANCH   1   2
ATOM      2  C   UNL     1       6.540  -5.202  26.390  0.00  0.00    -0.012 A 
ATOM      3  C   UNL     1       6.811  -5.358  27.763  0.00  0.00    +0.007 A 
ATOM      4  C   UNL     1       6.024  -6.187  28.568  0.00  0.00    +0.000 A 
ATOM      5  C   UNL     1       4.958  -6.892  28.016  0.00  0.00    +0.000 A 
ATOM      6  C   UNL     1       4.695  -6.787  26.654  0.00  0.00    +0.000 A 
ATOM      7  C   UNL     1       5.479  -5.953  25.851  0.00  0.00    +0.007 A 
ENDBRANCH   1   2
BRANCH   1   8
ATOM      8  C   UNL     1       6.902  -4.273  24.047  0.00  0.00    -0.012 A 
ATOM      9  C   UNL     1       5.950  -3.382  23.510  0.00  0.00    +0.007 A 
ATOM     10  C   UNL     1       5.608  -3.406  22.157  0.00  0.00    +0.000 A 
ATOM     11  C   UNL     1       6.206  -4.330  21.311  0.00  0.00    +0.000 A 
ATOM     12  C   UNL     1       7.117  -5.251  21.822  0.00  0.00    +0.000 A 
ATOM     13  C   UNL     1       7.453  -5.233  23.179  0.00  0.00    +0.007 A 
ENDBRANCH   1   8
BRANCH   1  14
ATOM     14  O   UNL     1       8.740  -4.550  25.590  0.00  0.00    -0.379 OA
ATOM     15  H   UNL     1       8.784  -5.472  25.894  0.00  0.00    +0.211 HD
ENDBRANCH   1  14
BRANCH   1  16
ATOM     16  C   UNL     1       7.257  -2.753  26.045  0.00  0.00    +0.046 C 
BRANCH  16  17
ATOM     17  C   UNL     1       8.584  -2.005  26.210  0.00  0.00    +0.019 C 
BRANCH  17  18
ATOM     18  C   UNL     1       8.750  -0.956  25.092  0.00  0.00    +0.084 C 
BRANCH  18  19
ATOM     19  N   UNL     1       9.995  -1.112  24.318  0.00  0.00    -0.302 NA
ATOM     20  C   UNL     1      10.457   0.158  23.742  0.00  0.00    +0.084 C 
ATOM     21  C   UNL     1       9.609   0.642  22.564  0.00  0.00    +0.015 C 
ATOM     22  C   UNL     1       9.465  -0.439  21.496  0.00  0.00    +0.002 C 
ATOM     23  C   UNL     1       9.028  -1.768  22.104  0.00  0.00    +0.015 C 
ATOM     24  C   UNL     1       9.924  -2.150  23.280  0.00  0.00    +0.084 C 
ENDBRANCH  18  19
ENDBRANCH  17  18
ENDBRANCH  16  17
ENDBRANCH   1  16
TORSDOF 7
ENDMDL
MODEL 4
REMARK VINA RESULT:      -6.1      2.172      6.135
REMARK  Name = 
REMARK  7 active torsions:
REMARK  status: ('A' for Active; 'I' for Inactive)
REMARK    1  A    between atoms: O_1  and  C_2
REMARK    2  A    between atoms: C_2  and  C_3
REMARK    3  A    between atoms: C_2  and  C_12
REMARK    4  A    between atoms: C_2  and  C_18
REMARK    5  A    between atoms: C_3  and  C_4
REMARK    6  A    between atoms: C_4  and  C_5
REMARK    7  A    between atoms: C_5  and  N_6
REMARK                            x       y       z     vdW  Elec       q    Type
REMARK                         _______ _______ _______ _____ _____    ______ ____
ROOT
ATOM      1  C   UNL     1       7.267  -3.464  24.898  0.00  0.00    +0.116 C 
ENDROOT
BRANCH   1   2
ATOM      2  C   UNL     1       6.996  -4.101  23.527  0.00  0.00    -0.012 A 
ATOM      3  C   UNL     1       7.466  -5.392  23.219  0.00  0.00    +0.007 A 
ATOM      4  C   UNL     1       7.140  -6.012  22.009  0.00  0.00    +0.000 A 
ATOM      5  C   UNL     1       6.351  -5.350  21.073  0.00  0.00    +0.000 A 
ATOM      6  C   UNL     1       5.908  -4.057  21.336  0.00  0.00    +0.000 A 
ATOM      7  C   UNL     1       6.229  -3.440  22.549  0.00  0.00    +0.007 A 
ENDBRANCH   1   2
BRANCH   1   8
ATOM      8  C   UNL     1       6.634  -4.294  26.041  0.00  0.00    -0.012 A 
ATOM      9  C   UNL     1       7.414  -5.074  26.919  0.00  0.00    +0.007 A 
ATOM     10  C   UNL     1       6.840  -5.770  27.984  0.00  0.00    +0.000 A 
ATOM     11  C   UNL     1       5.468  -5.709  28.189  0.00  0.00    +0.000 A 
ATOM     12  C   UNL     1       4.668  -4.982  27.310  0.00  0.00    +0.000 A 
ATOM     13  C   UNL     1       5.242  -4.292  26.239  0.00  0.00    +0.007 A 
ENDBRANCH   1   8
BRANCH   1  14
ATOM     14  O   UNL     1       6.683  -2.146  24.937  0.00  0.00    -0.379 OA
ATOM     15  H   UNL     1       5.896  -2.215  25.503  0.00  0.00    +0.211 HD
ENDBRANCH   1  14
BRANCH   1  16
ATOM     16  C   UNL     1       8.774  -3.242  25.180  0.00  0.00    +0.046 C 
BRANCH  16  17
ATOM     17  C   UNL     1       9.631  -2.755  24.006  0.00  0.00    +0.019 C 
BRANCH  17  18
ATOM     18  C   UNL     1      10.009  -1.273  24.198  0.00  0.00    +0.084 C 
BRANCH  18  19
ATOM     19  N   UNL     1       8.908  -0.341  23.894  0.00  0.00    -0.302 NA
ATOM     20  C   UNL     1       8.519  -0.378  22.477  0.00  0.00    +0.084 C 
ATOM     21  C   UNL     1       9.536   0.282  21.544  0.00  0.00    +0.015 C 
ATOM     22  C   UNL     1       9.872   1.702  21.997  0.00  0.00    +0.002 C 
ATOM     23  C   UNL     1      10.233   1.743  23.479  0.00  0.00    +0.015 C 
ATOM     24  C   UNL     1       9.166   1.042  24.319  0.00  0.00    +0.084 C 
ENDBRANCH  18  19
ENDBRANCH  17  18
ENDBRANCH  16  17
ENDBRANCH   1  16
TORSDOF 7
ENDMDL
MODEL 5
REMARK VINA RESULT:      -6.0      0.774      1.636
REMARK  Name = 
REMARK  7 active torsions:
REMARK  status: ('A' for Active; 'I' for Inactive)
REMARK    1  A    between atoms: O_1  and  C_2
REMARK    2  A    between atoms: C_2  and  C_3
REMARK    3  A    between atoms: C_2  and  C_12
REMARK    4  A    between atoms: C_2  and  C_18
REMARK    5  A    between atoms: C_3  and  C_4
REMARK    6  A    between atoms: C_4  and  C_5
REMARK    7  A    between atoms: C_5  and  N_6
REMARK                            x       y       z     vdW  Elec       q    Type
REMARK                         _______ _______ _______ _____ _____    ______ ____
ROOT
ATOM      1  C   UNL     1       8.861  -3.535  24.470  0.00  0.00    +0.116 C 
ENDROOT
BRANCH   1   2
ATOM      2  C   UNL     1       7.907  -4.063  23.390  0.00  0.00    -0.012 A 
ATOM      3  C   UNL     1       7.925  -5.416  23.001  0.00  0.00    +0.007 A 
ATOM      4  C   UNL     1       6.994  -5.920  22.087  0.00  0.00    +0.000 A 
ATOM      5  C   UNL     1       6.035  -5.080  21.529  0.00  0.00    +0.000 A 
ATOM      6  C   UNL     1       6.022  -3.730  21.866  0.00  0.00    +0.000 A 
ATOM      7  C   UNL     1       6.949  -3.228  22.784  0.00  0.00    +0.007 A 
ENDBRANCH   1   2
BRANCH   1   8
ATOM      8  C   UNL     1       9.394  -2.126  24.113  0.00  0.00    -0.012 A 
ATOM      9  C   UNL     1      10.097  -1.873  22.917  0.00  0.00    +0.007 A 
ATOM     10  C   UNL     1      10.519  -0.587  22.576  0.00  0.00    +0.000 A 
ATOM     11  C   UNL     1      10.255   0.475  23.430  0.00  0.00    +0.000 A 
ATOM     12  C   UNL     1       9.601   0.247  24.639  0.00  0.00    +0.000 A 
ATOM     13  C   UNL     1       9.186  -1.042  24.984  0.00  0.00    +0.007 A 
ENDBRANCH   1   8
BRANCH   1  14
ATOM     14  O   UNL     1       9.996  -4.418  24.579  0.00  0.00    -0.379 OA
ATOM     15  H   UNL     1       9.650  -5.319  24.468  0.00  0.00    +0.211 HD
ENDBRANCH   1  14
BRANCH   1  16
ATOM     16  C   UNL     1       8.231  -3.517  25.885  0.00  0.00    +0.046 C 
BRANCH  16  17
ATOM     17  C   UNL     1       8.443  -4.764  26.750  0.00  0.00    +0.019 C 
BRANCH  17  18
ATOM     18  C   UNL     1       7.175  -5.640  26.748  0.00  0.00    +0.084 C 
BRANCH  18  19
ATOM     19  N   UNL     1       5.943  -4.890  26.443  0.00  0.00    -0.302 NA
ATOM     20  C   UNL     1       5.097  -4.700  27.631  0.00  0.00    +0.084 C 
ATOM     21  C   UNL     1       4.388  -5.974  28.090  0.00  0.00    +0.015 C 
ATOM     22  C   UNL     1       3.611  -6.625  26.947  0.00  0.00    +0.002 C 
ATOM     23  C   UNL     1       4.479  -6.781  25.702  0.00  0.00    +0.015 C 
ATOM     24  C   UNL     1       5.156  -5.461  25.341  0.00  0.00    +0.084 C 
ENDBRANCH  18  19
ENDBRANCH  17  18
ENDBRANCH  16  17
ENDBRANCH   1  16
TORSDOF 7
ENDMDL
MODEL 6
REMARK VINA RESULT:      -5.9      2.082      4.470
REMARK  Name = 
REMARK  7 active torsions:
REMARK  status: ('A' for Active; 'I' for Inactive)
REMARK    1  A    between atoms: O_1  and  C_2
REMARK    2  A    between atoms: C_2  and  C_3
REMARK    3  A    between atoms: C_2  and  C_12
REMARK    4  A    between atoms: C_2  and  C_18
REMARK    5  A    between atoms: C_3  and  C_4
REMARK    6  A    between atoms: C_4  and  C_5
REMARK    7  A    between atoms: C_5  and  N_6
REMARK                            x       y       z     vdW  Elec       q    Type
REMARK                         _______ _______ _______ _____ _____    ______ ____
ROOT
ATOM      1  C   UNL     1       7.020  -1.585  23.903  0.00  0.00    +0.116 C 
ENDROOT
BRANCH   1   2
ATOM      2  C   UNL     1       7.778  -0.533  23.081  0.00  0.00    -0.012 A 
ATOM      3  C   UNL     1       9.037  -0.818  22.520  0.00  0.00    +0.007 A 
ATOM      4  C   UNL     1       9.687   0.104  21.692  0.00  0.00    +0.000 A 
ATOM      5  C   UNL     1       9.100   1.337  21.421  0.00  0.00    +0.000 A 
ATOM      6  C   UNL     1       7.875   1.658  21.997  0.00  0.00    +0.000 A 
ATOM      7  C   UNL     1       7.223   0.734  22.820  0.00  0.00    +0.007 A 
ENDBRANCH   1   2
BRANCH   1   8
ATOM      8  C   UNL     1       6.952  -2.941  23.159  0.00  0.00    -0.012 A 
ATOM      9  C   UNL     1       7.733  -4.049  23.550  0.00  0.00    +0.007 A 
ATOM     10  C   UNL     1       7.620  -5.284  22.910  0.00  0.00    +0.000 A 
ATOM     11  C   UNL     1       6.729  -5.437  21.857  0.00  0.00    +0.000 A 
ATOM     12  C   UNL     1       5.978  -4.348  21.421  0.00  0.00    +0.000 A 
ATOM     13  C   UNL     1       6.097  -3.109  22.056  0.00  0.00    +0.007 A 
ENDBRANCH   1   8
BRANCH   1  14
ATOM     14  O   UNL     1       5.666  -1.138  24.122  0.00  0.00    -0.379 OA
ATOM     15  H   UNL     1       5.113  -1.936  24.117  0.00  0.00    +0.211 HD
ENDBRANCH   1  14
BRANCH   1  16
ATOM     16  C   UNL     1       7.607  -1.792  25.321  0.00  0.00    +0.046 C 
BRANCH  16  17
ATOM     17  C   UNL     1       6.608  -2.080  26.447  0.00  0.00    +0.019 C 
BRANCH  17  18
ATOM     18  C   UNL     1       6.703  -3.556  26.882  0.00  0.00    +0.084 C 
BRANCH  18  19
ATOM     19  N   UNL     1       5.413  -4.127  27.309  0.00  0.00    -0.302 NA
ATOM     20  C   UNL     1       5.452  -5.595  27.392  0.00  0.00    +0.084 C 
ATOM     21  C   UNL     1       5.478  -6.286  26.027  0.00  0.00    +0.015 C 
ATOM     22  C   UNL     1       4.337  -5.805  25.134  0.00  0.00    +0.002 C 
ATOM     23  C   UNL     1       4.271  -4.282  25.085  0.00  0.00    +0.015 C 
ATOM     24  C   UNL     1       4.270  -3.691  26.494  0.00  0.00    +0.084 C 
ENDBRANCH  18  19
ENDBRANCH  17  18
ENDBRANCH  16  17
ENDBRANCH   1  16
TORSDOF 7
ENDMDL
MODEL 7
REMARK VINA RESULT:      -5.9      1.977      2.840
REMARK  Name = 
REMARK  7 active torsions:
REMARK  status: ('A' for Active; 'I' for Inactive)
REMARK    1  A    between atoms: O_1  and  C_2
REMARK    2  A    between atoms: C_2  and  C_3
REMARK    3  A    between atoms: C_2  and  C_12
REMARK    4  A    between atoms: C_2  and  C_18
REMARK    5  A    between atoms: C_3  and  C_4
REMARK    6  A    between atoms: C_4  and  C_5
REMARK    7  A    between atoms: C_5  and  N_6
REMARK                            x       y       z     vdW  Elec       q    Type
REMARK                         _______ _______ _______ _____ _____    ______ ____
ROOT
ATOM      1  C   UNL     1       7.172  -2.210  23.862  0.00  0.00    +0.116 C 
ENDROOT
BRANCH   1   2
ATOM      2  C   UNL     1       7.051  -3.490  23.024  0.00  0.00    -0.012 A 
ATOM      3  C   UNL     1       7.810  -4.636  23.332  0.00  0.00    +0.007 A 
ATOM      4  C   UNL     1       7.633  -5.832  22.629  0.00  0.00    +0.000 A 
ATOM      5  C   UNL     1       6.706  -5.906  21.593  0.00  0.00    +0.000 A 
ATOM      6  C   UNL     1       5.974  -4.776  21.243  0.00  0.00    +0.000 A 
ATOM      7  C   UNL     1       6.147  -3.582  21.949  0.00  0.00    +0.007 A 
ENDBRANCH   1   2
BRANCH   1   8
ATOM      8  C   UNL     1       7.824  -1.063  23.051  0.00  0.00    -0.012 A 
ATOM      9  C   UNL     1       9.020  -1.245  22.327  0.00  0.00    +0.007 A 
ATOM     10  C   UNL     1       9.567  -0.223  21.550  0.00  0.00    +0.000 A 
ATOM     11  C   UNL     1       8.932   1.010  21.487  0.00  0.00    +0.000 A 
ATOM     12  C   UNL     1       7.773   1.232  22.226  0.00  0.00    +0.000 A 
ATOM     13  C   UNL     1       7.230   0.210  23.012  0.00  0.00    +0.007 A 
ENDBRANCH   1   8
BRANCH   1  14
ATOM     14  O   UNL     1       8.008  -2.466  25.009  0.00  0.00    -0.379 OA
ATOM     15  H   UNL     1       7.407  -2.693  25.737  0.00  0.00    +0.211 HD
ENDBRANCH   1  14
BRANCH   1  16
ATOM     16  C   UNL     1       5.820  -1.736  24.451  0.00  0.00    +0.046 C 
BRANCH  16  17
ATOM     17  C   UNL     1       5.144  -2.668  25.463  0.00  0.00    +0.019 C 
BRANCH  17  18
ATOM     18  C   UNL     1       3.894  -3.319  24.840  0.00  0.00    +0.084 C 
BRANCH  18  19
ATOM     19  N   UNL     1       3.360  -4.443  25.629  0.00  0.00    -0.302 NA
ATOM     20  C   UNL     1       4.415  -5.170  26.351  0.00  0.00    +0.084 C 
ATOM     21  C   UNL     1       5.298  -6.029  25.445  0.00  0.00    +0.015 C 
ATOM     22  C   UNL     1       4.464  -6.968  24.577  0.00  0.00    +0.002 C 
ATOM     23  C   UNL     1       3.342  -6.218  23.864  0.00  0.00    +0.015 C 
ATOM     24  C   UNL     1       2.535  -5.378  24.851  0.00  0.00    +0.084 C 
ENDBRANCH  18  19
ENDBRANCH  17  18
ENDBRANCH  16  17
ENDBRANCH   1  16
TORSDOF 7
ENDMDL
MODEL 8
REMARK VINA RESULT:      -5.8      4.185      7.554
REMARK  Name = 
REMARK  7 active torsions:
REMARK  status: ('A' for Active; 'I' for Inactive)
REMARK    1  A    between atoms: O_1  and  C_2
REMARK    2  A    between atoms: C_2  and  C_3
REMARK    3  A    between atoms: C_2  and  C_12
REMARK    4  A    between atoms: C_2  and  C_18
REMARK    5  A    between atoms: C_3  and  C_4
REMARK    6  A    between atoms: C_4  and  C_5
REMARK    7  A    between atoms: C_5  and  N_6
REMARK                            x       y       z     vdW  Elec       q    Type
REMARK                         _______ _______ _______ _____ _____    ______ ____
ROOT
ATOM      1  C   UNL     1       8.962   3.362  23.698  0.00  0.00    +0.116 C 
ENDROOT
BRANCH   1   2
ATOM      2  C   UNL     1      10.170   4.309  23.746  0.00  0.00    -0.012 A 
ATOM      3  C   UNL     1      10.079   5.576  24.353  0.00  0.00    +0.007 A 
ATOM      4  C   UNL     1      11.201   6.400  24.483  0.00  0.00    +0.000 A 
ATOM      5  C   UNL     1      12.436   5.985  23.994  0.00  0.00    +0.000 A 
ATOM      6  C   UNL     1      12.544   4.754  23.353  0.00  0.00    +0.000 A 
ATOM      7  C   UNL     1      11.423   3.928  23.228  0.00  0.00    +0.007 A 
ENDBRANCH   1   2
BRANCH   1   8
ATOM      8  C   UNL     1       9.371   1.950  23.213  0.00  0.00    -0.012 A 
ATOM      9  C   UNL     1       9.018   1.467  21.936  0.00  0.00    +0.007 A 
ATOM     10  C   UNL     1       9.443   0.216  21.485  0.00  0.00    +0.000 A 
ATOM     11  C   UNL     1      10.225  -0.584  22.306  0.00  0.00    +0.000 A 
ATOM     12  C   UNL     1      10.552  -0.151  23.589  0.00  0.00    +0.000 A 
ATOM     13  C   UNL     1      10.119   1.098  24.044  0.00  0.00    +0.007 A 
ENDBRANCH   1   8
BRANCH   1  14
ATOM     14  O   UNL     1       7.986   3.879  22.771  0.00  0.00    -0.379 OA
ATOM     15  H   UNL     1       7.149   3.434  22.983  0.00  0.00    +0.211 HD
ENDBRANCH   1  14
BRANCH   1  16
ATOM     16  C   UNL     1       8.215   3.259  25.050  0.00  0.00    +0.046 C 
BRANCH  16  17
ATOM     17  C   UNL     1       7.032   2.286  25.111  0.00  0.00    +0.019 C 
BRANCH  17  18
ATOM     18  C   UNL     1       7.233   1.269  26.252  0.00  0.00    +0.084 C 
BRANCH  18  19
ATOM     19  N   UNL     1       6.294   0.134  26.201  0.00  0.00    -0.302 NA
ATOM     20  C   UNL     1       6.870  -1.093  26.771  0.00  0.00    +0.084 C 
ATOM     21  C   UNL     1       7.936  -1.740  25.885  0.00  0.00    +0.015 C 
ATOM     22  C   UNL     1       7.421  -1.969  24.465  0.00  0.00    +0.002 C 
ATOM     23  C   UNL     1       6.785  -0.706  23.893  0.00  0.00    +0.015 C 
ATOM     24  C   UNL     1       5.752  -0.130  24.860  0.00  0.00    +0.084 C 
ENDBRANCH  18  19
ENDBRANCH  17  18
ENDBRANCH  16  17
ENDBRANCH   1  16
TORSDOF 7
ENDMDL
MODEL 9
REMARK VINA RESULT:      -5.7      2.903      4.245
REMARK  Name = 
REMARK  7 active torsions:
REMARK  status: ('A' for Active; 'I' for Inactive)
REMARK    1  A    between atoms: O_1  and  C_2
REMARK    2  A    between atoms: C_2  and  C_3
REMARK    3  A    between atoms: C_2  and  C_12
REMARK    4  A    between atoms: C_2  and  C_18
REMARK    5  A    between atoms: C_3  and  C_4
REMARK    6  A    between atoms: C_4  and  C_5
REMARK    7  A    between atoms: C_5  and  N_6
REMARK                            x       y       z     vdW  Elec       q    Type
REMARK                         _______ _______ _______ _____ _____    ______ ____
ROOT
ATOM      1  C   UNL     1       8.935  -2.996  24.263  0.00  0.00    +0.116 C 
ENDROOT
BRANCH   1   2
ATOM      2  C   UNL     1       7.796  -3.696  23.508  0.00  0.00    -0.012 A 
ATOM      3  C   UNL     1       6.728  -2.962  22.959  0.00  0.00    +0.007 A 
ATOM      4  C   UNL     1       5.739  -3.586  22.190  0.00  0.00    +0.000 A 
ATOM      5  C   UNL     1       5.788  -4.959  21.967  0.00  0.00    +0.000 A 
ATOM      6  C   UNL     1       6.811  -5.713  22.534  0.00  0.00    +0.000 A 
ATOM      7  C   UNL     1       7.801  -5.088  23.298  0.00  0.00    +0.007 A 
ENDBRANCH   1   2
BRANCH   1   8
ATOM      8  C   UNL     1       9.378  -1.701  23.539  0.00  0.00    -0.012 A 
ATOM      9  C   UNL     1       9.127  -1.487  22.168  0.00  0.00    +0.007 A 
ATOM     10  C   UNL     1       9.476  -0.290  21.539  0.00  0.00    +0.000 A 
ATOM     11  C   UNL     1      10.094   0.717  22.267  0.00  0.00    +0.000 A 
ATOM     12  C   UNL     1      10.394   0.516  23.613  0.00  0.00    +0.000 A 
ATOM     13  C   UNL     1      10.052  -0.686  24.240  0.00  0.00    +0.007 A 
ENDBRANCH   1   8
BRANCH   1  14
ATOM     14  O   UNL     1      10.077  -3.874  24.328  0.00  0.00    -0.379 OA
ATOM     15  H   UNL     1      10.199  -4.227  23.431  0.00  0.00    +0.211 HD
ENDBRANCH   1  14
BRANCH   1  16
ATOM     16  C   UNL     1       8.586  -2.681  25.739  0.00  0.00    +0.046 C 
BRANCH  16  17
ATOM     17  C   UNL     1       7.223  -2.033  26.002  0.00  0.00    +0.019 C 
BRANCH  17  18
ATOM     18  C   UNL     1       7.404  -0.663  26.686  0.00  0.00    +0.084 C 
BRANCH  18  19
ATOM     19  N   UNL     1       6.297   0.275  26.427  0.00  0.00    -0.302 NA
ATOM     20  C   UNL     1       5.700   0.082  25.097  0.00  0.00    +0.084 C 
ATOM     21  C   UNL     1       6.585   0.575  23.951  0.00  0.00    +0.015 C 
ATOM     22  C   UNL     1       7.024   2.022  24.164  0.00  0.00    +0.002 C 
ATOM     23  C   UNL     1       7.602   2.228  25.561  0.00  0.00    +0.015 C 
ATOM     24  C   UNL     1       6.653   1.686  26.629  0.00  0.00    +0.084 C 
ENDBRANCH  18  19
ENDBRANCH  17  18
ENDBRANCH  16  17
ENDBRANCH   1  16
TORSDOF 7
ENDMDL
