MODEL 1
REMARK VINA RESULT:      -6.0      0.000      0.000
REMARK  Name = 
REMARK  6 active torsions:
REMARK  status: ('A' for Active; 'I' for Inactive)
REMARK    1  A    between atoms: C_1  and  C_2
REMARK    2  A    between atoms: N_4  and  C_5
REMARK    3  A    between atoms: C_5  and  C_6
REMARK    4  A    between atoms: C_6  and  C_7
REMARK    5  A    between atoms: C_10  and  S_13
REMARK    6  A    between atoms: S_13  and  N_14
REMARK                            x       y       z     vdW  Elec       q    Type
REMARK                         _______ _______ _______ _____ _____    ______ ____
ROOT
ATOM      1  C   UNL     1       9.184  -1.368  22.235  0.00  0.00    -0.046 A 
ATOM      2  C   UNL     1      10.196  -1.684  23.156  0.00  0.00    +0.005 A 
ATOM      3  C   UNL     1      10.006  -2.690  24.110  0.00  0.00    +0.029 A 
ATOM      4  C   UNL     1       8.803  -3.399  24.131  0.00  0.00    +0.105 A 
ATOM      5  C   UNL     1       7.798  -3.119  23.207  0.00  0.00    +0.029 A 
ATOM      6  C   UNL     1       7.999  -2.123  22.253  0.00  0.00    +0.005 A 
ENDROOT
BRANCH   4   7
ATOM      7  S   UNL     1       8.516  -4.634  25.359  0.00  0.00    +0.056 S 
ATOM      8  O   UNL     1       7.318  -5.369  25.024  0.00  0.00    -0.153 OA
ATOM      9  O   UNL     1       8.736  -4.068  26.668  0.00  0.00    -0.153 OA
BRANCH   7  10
ATOM     10  N   UNL     1       9.796  -5.686  25.088  0.00  0.00    -0.204 NA
ATOM     11  H   UNL     1       9.484  -6.650  25.197  0.00  0.00    +0.144 HD
ATOM     12  H   UNL     1      10.587  -5.430  25.678  0.00  0.00    +0.144 HD
ENDBRANCH   7  10
ENDBRANCH   4   7
BRANCH   1  13
ATOM     13  C   UNL     1       9.403  -0.263  21.221  0.00  0.00    +0.054 C 
BRANCH  13  14
ATOM     14  C   UNL     1       8.739   1.069  21.601  0.00  0.00    +0.109 C 
BRANCH  14  17
ATOM     15  C   UNL     1      11.181   3.407  23.285  0.00  0.00    +0.109 C 
ATOM     16  C   UNL     1      10.111   2.356  23.189  0.00  0.00    +0.210 C 
ATOM     17  N   UNL     1       9.696   2.114  21.901  0.00  0.00    -0.315 N 
ATOM     18  H   UNL     1      10.124   2.618  21.134  0.00  0.00    +0.149 HD
ATOM     19  O   UNL     1       9.666   1.771  24.171  0.00  0.00    -0.276 OA
ENDBRANCH  14  17
ENDBRANCH  13  14
ENDBRANCH   1  13
TORSDOF 5
ENDMDL
MODEL 2
REMARK VINA RESULT:      -5.8      1.087      1.236
REMARK  Name = 
REMARK  6 active torsions:
REMARK  status: ('A' for Active; 'I' for Inactive)
REMARK    1  A    between atoms: C_1  and  C_2
REMARK    2  A    between atoms: N_4  and  C_5
REMARK    3  A    between atoms: C_5  and  C_6
REMARK    4  A    between atoms: C_6  and  C_7
REMARK    5  A    between atoms: C_10  and  S_13
REMARK    6  A    between atoms: S_13  and  N_14
REMARK                            x       y       z     vdW  Elec       q    Type
REMARK                         _______ _______ _______ _____ _____    ______ ____
ROOT
ATOM      1  C   UNL     1       9.121  -1.396  22.263  0.00  0.00    -0.046 A 
ATOM      2  C   UNL     1      10.187  -1.757  23.103  0.00  0.00    +0.005 A 
ATOM      3  C   UNL     1      10.030  -2.761  24.066  0.00  0.00    +0.029 A 
ATOM      4  C   UNL     1       8.804  -3.421  24.177  0.00  0.00    +0.105 A 
ATOM      5  C   UNL     1       7.744  -3.095  23.334  0.00  0.00    +0.029 A 
ATOM      6  C   UNL     1       7.911  -2.103  22.369  0.00  0.00    +0.005 A 
ENDROOT
BRANCH   4   7
ATOM      7  S   UNL     1       8.562  -4.651  25.420  0.00  0.00    +0.056 S 
ATOM      8  O   UNL     1       7.347  -5.381  25.138  0.00  0.00    -0.153 OA
ATOM      9  O   UNL     1       8.838  -4.081  26.717  0.00  0.00    -0.153 OA
BRANCH   7  10
ATOM     10  N   UNL     1       9.824  -5.710  25.100  0.00  0.00    -0.204 NA
ATOM     11  H   UNL     1      10.669  -5.400  25.580  0.00  0.00    +0.144 HD
ATOM     12  H   UNL     1       9.931  -5.828  24.093  0.00  0.00    +0.144 HD
ENDBRANCH   7  10
ENDBRANCH   4   7
BRANCH   1  13
ATOM     13  C   UNL     1       9.307  -0.295  21.238  0.00  0.00    +0.054 C 
BRANCH  13  14
ATOM     14  C   UNL     1       9.786   1.035  21.837  0.00  0.00    +0.109 C 
BRANCH  14  17
ATOM     15  C   UNL     1       7.376   3.921  22.202  0.00  0.00    +0.109 C 
ATOM     16  C   UNL     1       8.207   2.747  22.637  0.00  0.00    +0.210 C 
ATOM     17  N   UNL     1       8.864   2.128  21.600  0.00  0.00    -0.315 N 
ATOM     18  H   UNL     1       8.767   2.489  20.659  0.00  0.00    +0.149 HD
ATOM     19  O   UNL     1       8.292   2.392  23.808  0.00  0.00    -0.276 OA
ENDBRANCH  14  17
ENDBRANCH  13  14
ENDBRANCH   1  13
TORSDOF 5
ENDMDL
MODEL 3
REMARK VINA RESULT:      -5.7      3.297      4.403
REMARK  Name = 
REMARK  6 active torsions:
REMARK  status: ('A' for Active; 'I' for Inactive)
REMARK    1  A    between atoms: C_1  and  C_2
REMARK    2  A    between atoms: N_4  and  C_5
REMARK    3  A    between atoms: C_5  and  C_6
REMARK    4  A    between atoms: C_6  and  C_7
REMARK    5  A    between atoms: C_10  and  S_13
REMARK    6  A    between atoms: S_13  and  N_14
REMARK                            x       y       z     vdW  Elec       q    Type
REMARK                         _______ _______ _______ _____ _____    ______ ____
ROOT
ATOM      1  C   UNL     1       8.847   3.096  23.379  0.00  0.00    -0.046 A 
ATOM      2  C   UNL     1       9.383   2.300  24.405  0.00  0.00    +0.005 A 
ATOM      3  C   UNL     1       9.507   0.915  24.244  0.00  0.00    +0.029 A 
ATOM      4  C   UNL     1       9.110   0.325  23.042  0.00  0.00    +0.105 A 
ATOM      5  C   UNL     1       8.602   1.103  22.003  0.00  0.00    +0.029 A 
ATOM      6  C   UNL     1       8.492   2.482  22.167  0.00  0.00    +0.005 A 
ENDROOT
BRANCH   4   7
ATOM      7  S   UNL     1       9.203  -1.425  22.833  0.00  0.00    +0.056 S 
ATOM      8  O   UNL     1       7.933  -1.915  22.347  0.00  0.00    -0.153 OA
ATOM      9  O   UNL     1       9.873  -2.008  23.971  0.00  0.00    -0.153 OA
BRANCH   7  10
ATOM     10  N   UNL     1      10.274  -1.557  21.547  0.00  0.00    -0.204 NA
ATOM     11  H   UNL     1      10.075  -0.838  20.853  0.00  0.00    +0.144 HD
ATOM     12  H   UNL     1      10.263  -2.509  21.182  0.00  0.00    +0.144 HD
ENDBRANCH   7  10
ENDBRANCH   4   7
BRANCH   1  13
ATOM     13  C   UNL     1       8.705   4.592  23.581  0.00  0.00    +0.054 C 
BRANCH  13  14
ATOM     14  C   UNL     1       9.985   5.274  24.089  0.00  0.00    +0.109 C 
BRANCH  14  17
ATOM     15  C   UNL     1      13.277   5.578  22.261  0.00  0.00    +0.109 C 
ATOM     16  C   UNL     1      12.322   5.664  23.418  0.00  0.00    +0.210 C 
ATOM     17  N   UNL     1      11.028   5.338  23.085  0.00  0.00    -0.315 N 
ATOM     18  H   UNL     1      10.810   5.059  22.136  0.00  0.00    +0.149 HD
ATOM     19  O   UNL     1      12.675   5.986  24.547  0.00  0.00    -0.276 OA
ENDBRANCH  14  17
ENDBRANCH  13  14
ENDBRANCH   1  13
TORSDOF 5
ENDMDL
MODEL 4
REMARK VINA RESULT:      -5.7      1.658      2.203
REMARK  Name = 
REMARK  6 active torsions:
REMARK  status: ('A' for Active; 'I' for Inactive)
REMARK    1  A    between atoms: C_1  and  C_2
REMARK    2  A    between atoms: N_4  and  C_5
REMARK    3  A    between atoms: C_5  and  C_6
REMARK    4  A    between atoms: C_6  and  C_7
REMARK    5  A    between atoms: C_10  and  S_13
REMARK    6  A    between atoms: S_13  and  N_14
REMARK                            x       y       z     vdW  Elec       q    Type
REMARK                         _______ _______ _______ _____ _____    ______ ____
ROOT
ATOM      1  C   UNL     1       9.915  -0.251  23.942  0.00  0.00    -0.046 A 
ATOM      2  C   UNL     1       9.252  -0.372  25.175  0.00  0.00    +0.005 A 
ATOM      3  C   UNL     1       8.867  -1.628  25.658  0.00  0.00    +0.029 A 
ATOM      4  C   UNL     1       9.164  -2.772  24.914  0.00  0.00    +0.105 A 
ATOM      5  C   UNL     1       9.845  -2.673  23.702  0.00  0.00    +0.029 A 
ATOM      6  C   UNL     1      10.235  -1.420  23.233  0.00  0.00    +0.005 A 
ENDROOT
BRANCH   4   7
ATOM      7  S   UNL     1       8.639  -4.362  25.473  0.00  0.00    +0.056 S 
ATOM      8  O   UNL     1       7.517  -4.801  24.676  0.00  0.00    -0.153 OA
ATOM      9  O   UNL     1       8.617  -4.379  26.916  0.00  0.00    -0.153 OA
BRANCH   7  10
ATOM     10  N   UNL     1       9.936  -5.326  25.018  0.00  0.00    -0.204 NA
ATOM     11  H   UNL     1      10.811  -4.894  25.311  0.00  0.00    +0.144 HD
ATOM     12  H   UNL     1       9.882  -5.533  24.021  0.00  0.00    +0.144 HD
ENDBRANCH   7  10
ENDBRANCH   4   7
BRANCH   1  13
ATOM     13  C   UNL     1      10.309   1.120  23.428  0.00  0.00    +0.054 C 
BRANCH  13  14
ATOM     14  C   UNL     1       9.899   1.377  21.970  0.00  0.00    +0.109 C 
BRANCH  14  17
ATOM     15  C   UNL     1       6.851   3.608  21.949  0.00  0.00    +0.109 C 
ATOM     16  C   UNL     1       7.627   2.326  22.043  0.00  0.00    +0.210 C 
ATOM     17  N   UNL     1       8.976   2.485  21.829  0.00  0.00    -0.315 N 
ATOM     18  H   UNL     1       9.348   3.409  21.646  0.00  0.00    +0.149 HD
ATOM     19  O   UNL     1       7.100   1.248  22.297  0.00  0.00    -0.276 OA
ENDBRANCH  14  17
ENDBRANCH  13  14
ENDBRANCH   1  13
TORSDOF 5
ENDMDL
MODEL 5
REMARK VINA RESULT:      -5.4      2.581      6.024
REMARK  Name = 
REMARK  6 active torsions:
REMARK  status: ('A' for Active; 'I' for Inactive)
REMARK    1  A    between atoms: C_1  and  C_2
REMARK    2  A    between atoms: N_4  and  C_5
REMARK    3  A    between atoms: C_5  and  C_6
REMARK    4  A    between atoms: C_6  and  C_7
REMARK    5  A    between atoms: C_10  and  S_13
REMARK    6  A    between atoms: S_13  and  N_14
REMARK                            x       y       z     vdW  Elec       q    Type
REMARK                         _______ _______ _______ _____ _____    ______ ____
ROOT
ATOM      1  C   UNL     1       7.532  -2.198  22.588  0.00  0.00    -0.046 A 
ATOM      2  C   UNL     1       6.817  -1.109  23.114  0.00  0.00    +0.005 A 
ATOM      3  C   UNL     1       7.438   0.131  23.299  0.00  0.00    +0.029 A 
ATOM      4  C   UNL     1       8.778   0.289  22.938  0.00  0.00    +0.105 A 
ATOM      5  C   UNL     1       9.495  -0.772  22.389  0.00  0.00    +0.029 A 
ATOM      6  C   UNL     1       8.866  -2.000  22.197  0.00  0.00    +0.005 A 
ENDROOT
BRANCH   4   7
ATOM      7  S   UNL     1       9.601   1.827  23.214  0.00  0.00    +0.056 S 
ATOM      8  O   UNL     1      10.790   1.595  24.001  0.00  0.00    -0.153 OA
ATOM      9  O   UNL     1       8.629   2.836  23.559  0.00  0.00    -0.153 OA
BRANCH   7  10
ATOM     10  N   UNL     1      10.135   2.207  21.668  0.00  0.00    -0.204 NA
ATOM     11  H   UNL     1       9.881   3.166  21.437  0.00  0.00    +0.144 HD
ATOM     12  H   UNL     1       9.799   1.510  21.004  0.00  0.00    +0.144 HD
ENDBRANCH   7  10
ENDBRANCH   4   7
BRANCH   1  13
ATOM     13  C   UNL     1       6.845  -3.538  22.411  0.00  0.00    +0.054 C 
BRANCH  13  14
ATOM     14  C   UNL     1       7.635  -4.721  22.989  0.00  0.00    +0.109 C 
BRANCH  14  17
ATOM     15  C   UNL     1       8.694  -4.488  26.607  0.00  0.00    +0.109 C 
ATOM     16  C   UNL     1       8.865  -4.567  25.117  0.00  0.00    +0.210 C 
ATOM     17  N   UNL     1       7.679  -4.719  24.437  0.00  0.00    -0.315 N 
ATOM     18  H   UNL     1       6.808  -4.751  24.951  0.00  0.00    +0.149 HD
ATOM     19  O   UNL     1       9.960  -4.492  24.569  0.00  0.00    -0.276 OA
ENDBRANCH  14  17
ENDBRANCH  13  14
ENDBRANCH   1  13
TORSDOF 5
ENDMDL
MODEL 6
REMARK VINA RESULT:      -5.4      2.116      2.547
REMARK  Name = 
REMARK  6 active torsions:
REMARK  status: ('A' for Active; 'I' for Inactive)
REMARK    1  A    between atoms: C_1  and  C_2
REMARK    2  A    between atoms: N_4  and  C_5
REMARK    3  A    between atoms: C_5  and  C_6
REMARK    4  A    between atoms: C_6  and  C_7
REMARK    5  A    between atoms: C_10  and  S_13
REMARK    6  A    between atoms: S_13  and  N_14
REMARK                            x       y       z     vdW  Elec       q    Type
REMARK                         _______ _______ _______ _____ _____    ______ ____
ROOT
ATOM      1  C   UNL     1       9.777   0.556  22.736  0.00  0.00    -0.046 A 
ATOM      2  C   UNL     1       9.907   0.266  24.104  0.00  0.00    +0.005 A 
ATOM      3  C   UNL     1       9.584  -1.002  24.599  0.00  0.00    +0.029 A 
ATOM      4  C   UNL     1       9.146  -1.993  23.718  0.00  0.00    +0.105 A 
ATOM      5  C   UNL     1       9.037  -1.732  22.354  0.00  0.00    +0.029 A 
ATOM      6  C   UNL     1       9.371  -0.470  21.866  0.00  0.00    +0.005 A 
ENDROOT
BRANCH   4   7
ATOM      7  S   UNL     1       8.678  -3.584  24.325  0.00  0.00    +0.056 S 
ATOM      8  O   UNL     1       7.686  -3.425  25.364  0.00  0.00    -0.153 OA
ATOM      9  O   UNL     1       9.858  -4.396  24.500  0.00  0.00    -0.153 OA
BRANCH   7  10
ATOM     10  N   UNL     1       7.866  -4.225  23.003  0.00  0.00    -0.204 NA
ATOM     11  H   UNL     1       8.312  -3.921  22.139  0.00  0.00    +0.144 HD
ATOM     12  H   UNL     1       6.872  -4.003  23.064  0.00  0.00    +0.144 HD
ENDBRANCH   7  10
ENDBRANCH   4   7
BRANCH   1  13
ATOM     13  C   UNL     1      10.116   1.941  22.222  0.00  0.00    +0.054 C 
BRANCH  13  14
ATOM     14  C   UNL     1      10.204   3.008  23.324  0.00  0.00    +0.109 C 
BRANCH  14  17
ATOM     15  C   UNL     1      12.741   5.805  23.413  0.00  0.00    +0.109 C 
ATOM     16  C   UNL     1      11.380   5.168  23.434  0.00  0.00    +0.210 C 
ATOM     17  N   UNL     1      11.410   3.807  23.243  0.00  0.00    -0.315 N 
ATOM     18  H   UNL     1      12.299   3.337  23.123  0.00  0.00    +0.149 HD
ATOM     19  O   UNL     1      10.350   5.810  23.614  0.00  0.00    -0.276 OA
ENDBRANCH  14  17
ENDBRANCH  13  14
ENDBRANCH   1  13
TORSDOF 5
ENDMDL
MODEL 7
REMARK VINA RESULT:      -5.4      3.029      6.845
REMARK  Name = 
REMARK  6 active torsions:
REMARK  status: ('A' for Active; 'I' for Inactive)
REMARK    1  A    between atoms: C_1  and  C_2
REMARK    2  A    between atoms: N_4  and  C_5
REMARK    3  A    between atoms: C_5  and  C_6
REMARK    4  A    between atoms: C_6  and  C_7
REMARK    5  A    between atoms: C_10  and  S_13
REMARK    6  A    between atoms: S_13  and  N_14
REMARK                            x       y       z     vdW  Elec       q    Type
REMARK                         _______ _______ _______ _____ _____    ______ ____
ROOT
ATOM      1  C   UNL     1      10.011  -0.094  22.822  0.00  0.00    -0.046 A 
ATOM      2  C   UNL     1       9.344   0.683  21.860  0.00  0.00    +0.005 A 
ATOM      3  C   UNL     1       9.039   2.025  22.113  0.00  0.00    +0.029 A 
ATOM      4  C   UNL     1       9.420   2.600  23.327  0.00  0.00    +0.105 A 
ATOM      5  C   UNL     1      10.106   1.853  24.282  0.00  0.00    +0.029 A 
ATOM      6  C   UNL     1      10.416   0.520  24.019  0.00  0.00    +0.005 A 
ENDROOT
BRANCH   4   7
ATOM      7  S   UNL     1       8.997   4.275  23.694  0.00  0.00    +0.056 S 
ATOM      8  O   UNL     1       8.794   4.414  25.118  0.00  0.00    -0.153 OA
ATOM      9  O   UNL     1       8.038   4.750  22.726  0.00  0.00    -0.153 OA
BRANCH   7  10
ATOM     10  N   UNL     1      10.435   5.070  23.350  0.00  0.00    -0.204 NA
ATOM     11  H   UNL     1      10.242   6.020  23.035  0.00  0.00    +0.144 HD
ATOM     12  H   UNL     1      10.992   4.516  22.700  0.00  0.00    +0.144 HD
ENDBRANCH   7  10
ENDBRANCH   4   7
BRANCH   1  13
ATOM     13  C   UNL     1      10.317  -1.551  22.536  0.00  0.00    +0.054 C 
BRANCH  13  14
ATOM     14  C   UNL     1       9.961  -2.498  23.691  0.00  0.00    +0.109 C 
BRANCH  14  17
ATOM     15  C   UNL     1       6.908  -4.716  23.870  0.00  0.00    +0.109 C 
ATOM     16  C   UNL     1       8.360  -4.347  23.980  0.00  0.00    +0.210 C 
ATOM     17  N   UNL     1       8.632  -3.063  23.571  0.00  0.00    -0.315 N 
ATOM     18  H   UNL     1       7.876  -2.469  23.251  0.00  0.00    +0.149 HD
ATOM     19  O   UNL     1       9.211  -5.122  24.406  0.00  0.00    -0.276 OA
ENDBRANCH  14  17
ENDBRANCH  13  14
ENDBRANCH   1  13
TORSDOF 5
ENDMDL
MODEL 8
REMARK VINA RESULT:      -5.3      2.500      3.542
REMARK  Name = 
REMARK  6 active torsions:
REMARK  status: ('A' for Active; 'I' for Inactive)
REMARK    1  A    between atoms: C_1  and  C_2
REMARK    2  A    between atoms: N_4  and  C_5
REMARK    3  A    between atoms: C_5  and  C_6
REMARK    4  A    between atoms: C_6  and  C_7
REMARK    5  A    between atoms: C_10  and  S_13
REMARK    6  A    between atoms: S_13  and  N_14
REMARK                            x       y       z     vdW  Elec       q    Type
REMARK                         _______ _______ _______ _____ _____    ______ ____
ROOT
ATOM      1  C   UNL     1      10.407   1.793  23.325  0.00  0.00    -0.046 A 
ATOM      2  C   UNL     1      10.426   1.120  24.558  0.00  0.00    +0.005 A 
ATOM      3  C   UNL     1      10.012  -0.214  24.650  0.00  0.00    +0.029 A 
ATOM      4  C   UNL     1       9.595  -0.886  23.498  0.00  0.00    +0.105 A 
ATOM      5  C   UNL     1       9.596  -0.242  22.262  0.00  0.00    +0.029 A 
ATOM      6  C   UNL     1      10.020   1.082  22.176  0.00  0.00    +0.005 A 
ENDROOT
BRANCH   4   7
ATOM      7  S   UNL     1       9.015  -2.550  23.596  0.00  0.00    +0.056 S 
ATOM      8  O   UNL     1      10.088  -3.402  24.055  0.00  0.00    -0.153 OA
ATOM      9  O   UNL     1       8.234  -2.855  22.422  0.00  0.00    -0.153 OA
BRANCH   7  10
ATOM     10  N   UNL     1       7.924  -2.454  24.867  0.00  0.00    -0.204 NA
ATOM     11  H   UNL     1       7.222  -3.188  24.781  0.00  0.00    +0.144 HD
ATOM     12  H   UNL     1       7.541  -1.511  24.926  0.00  0.00    +0.144 HD
ENDBRANCH   7  10
ENDBRANCH   4   7
BRANCH   1  13
ATOM     13  C   UNL     1      10.842   3.243  23.249  0.00  0.00    +0.054 C 
BRANCH  13  14
ATOM     14  C   UNL     1       9.803   4.232  23.796  0.00  0.00    +0.109 C 
BRANCH  14  17
ATOM     15  C   UNL     1       6.263   4.020  22.494  0.00  0.00    +0.109 C 
ATOM     16  C   UNL     1       7.414   3.764  23.425  0.00  0.00    +0.210 C 
ATOM     17  N   UNL     1       8.603   4.297  22.987  0.00  0.00    -0.315 N 
ATOM     18  H   UNL     1       8.628   4.817  22.118  0.00  0.00    +0.149 HD
ATOM     19  O   UNL     1       7.290   3.146  24.478  0.00  0.00    -0.276 OA
ENDBRANCH  14  17
ENDBRANCH  13  14
ENDBRANCH   1  13
TORSDOF 5
ENDMDL
MODEL 9
REMARK VINA RESULT:      -5.1      2.471      3.124
REMARK  Name = 
REMARK  6 active torsions:
REMARK  status: ('A' for Active; 'I' for Inactive)
REMARK    1  A    between atoms: C_1  and  C_2
REMARK    2  A    between atoms: N_4  and  C_5
REMARK    3  A    between atoms: C_5  and  C_6
REMARK    4  A    between atoms: C_6  and  C_7
REMARK    5  A    between atoms: C_10  and  S_13
REMARK    6  A    between atoms: S_13  and  N_14
REMARK                            x       y       z     vdW  Elec       q    Type
REMARK                         _______ _______ _______ _____ _____    ______ ____
ROOT
ATOM      1  C   UNL     1       8.793   0.447  22.145  0.00  0.00    -0.046 A 
ATOM      2  C   UNL     1       7.522   0.394  22.741  0.00  0.00    +0.005 A 
ATOM      3  C   UNL     1       6.900  -0.835  22.989  0.00  0.00    +0.029 A 
ATOM      4  C   UNL     1       7.562  -2.019  22.657  0.00  0.00    +0.105 A 
ATOM      5  C   UNL     1       8.834  -1.987  22.091  0.00  0.00    +0.029 A 
ATOM      6  C   UNL     1       9.452  -0.759  21.857  0.00  0.00    +0.005 A 
ENDROOT
BRANCH   4   7
ATOM      7  S   UNL     1       6.777  -3.581  22.908  0.00  0.00    +0.056 S 
ATOM      8  O   UNL     1       6.477  -3.743  24.312  0.00  0.00    -0.153 OA
ATOM      9  O   UNL     1       7.466  -4.592  22.142  0.00  0.00    -0.153 OA
BRANCH   7  10
ATOM     10  N   UNL     1       5.301  -3.345  22.143  0.00  0.00    -0.204 NA
ATOM     11  H   UNL     1       5.126  -4.101  21.482  0.00  0.00    +0.144 HD
ATOM     12  H   UNL     1       5.268  -2.412  21.733  0.00  0.00    +0.144 HD
ENDBRANCH   7  10
ENDBRANCH   4   7
BRANCH   1  13
ATOM     13  C   UNL     1       9.442   1.789  21.869  0.00  0.00    +0.054 C 
BRANCH  13  14
ATOM     14  C   UNL     1      10.308   2.309  23.026  0.00  0.00    +0.109 C 
BRANCH  14  17
ATOM     15  C   UNL     1      10.527   6.009  23.757  0.00  0.00    +0.109 C 
ATOM     16  C   UNL     1      11.028   4.617  23.497  0.00  0.00    +0.210 C 
ATOM     17  N   UNL     1      10.023   3.687  23.371  0.00  0.00    -0.315 N 
ATOM     18  H   UNL     1       9.056   3.982  23.443  0.00  0.00    +0.149 HD
ATOM     19  O   UNL     1      12.221   4.349  23.396  0.00  0.00    -0.276 OA
ENDBRANCH  14  17
ENDBRANCH  13  14
ENDBRANCH   1  13
TORSDOF 5
ENDMDL
