MODEL 1
REMARK VINA RESULT:      -6.2      0.000      0.000
REMARK  Name = 
REMARK  5 active torsions:
REMARK  status: ('A' for Active; 'I' for Inactive)
REMARK    1  A    between atoms: C5M_1  and  C5_2
REMARK    2  A    between atoms: N1_4  and  C1*_5
REMARK    3  A    between atoms: C3*_8  and  O3*_10
REMARK    4  A    between atoms: C4*_11  and  C5*_13
REMARK    5  A    between atoms: C5*_13  and  O5*_14
REMARK                            x       y       z     vdW  Elec       q    Type
REMARK                         _______ _______ _______ _____ _____    ______ ____
ROOT
ATOM      1  C5M   T A   1       5.321  -6.151  26.536  0.00  0.00    +0.051 C 
ATOM      2  C5    T A   1       5.524  -5.871  25.082  0.00  0.00    +0.030 A 
ATOM      3  C4    T A   1       4.804  -6.737  24.120  0.00  0.00    +0.257 A 
ATOM      4  O4    T A   1       4.059  -7.641  24.487  0.00  0.00    -0.267 OA
ATOM      5  N3    T A   1       5.008  -6.459  22.800  0.00  0.00    -0.275 N 
ATOM      6  H3    T A   1       4.508  -7.023  22.132  0.00  0.00    +0.173 HD
ATOM      7  C2    T A   1       5.755  -5.429  22.300  0.00  0.00    +0.331 A 
ATOM      8  O2    T A   1       5.783  -5.214  21.090  0.00  0.00    -0.246 OA
ATOM      9  N1    T A   1       6.444  -4.670  23.237  0.00  0.00    -0.274 N 
ATOM     10  C6    T A   1       6.302  -4.897  24.593  0.00  0.00    +0.101 A 
ENDROOT
BRANCH   9  11
ATOM     11  C1*   T A   1       7.254  -3.576  22.722  0.00  0.00    +0.226 C 
ATOM     12  O4*   T A   1       8.477  -3.426  23.470  0.00  0.00    -0.348 OA
ATOM     13  C4*   T A   1       8.817  -2.018  23.475  0.00  0.00    +0.175 C 
ATOM     14  C3*   T A   1       7.743  -1.293  22.660  0.00  0.00    +0.150 C 
ATOM     15  C2*   T A   1       6.561  -2.226  22.780  0.00  0.00    +0.088 C 
BRANCH  14  16
ATOM     16  O3*   T A   1       7.456   0.005  23.157  0.00  0.00    -0.389 OA
ATOM     17  H3*   T A   1       8.061   0.210  23.889  0.00  0.00    +0.210 HD
ENDBRANCH  14  16
BRANCH  13  18
ATOM     18  C5*   T A   1      10.225  -1.844  22.904  0.00  0.00    +0.190 C 
BRANCH  18  19
ATOM     19  O5*   T A   1      10.171  -1.539  21.511  0.00  0.00    -0.392 OA
ATOM     20  H5*   T A   1       9.311  -1.110  21.358  0.00  0.00    +0.210 HD
ENDBRANCH  18  19
ENDBRANCH  13  18
ENDBRANCH   9  11
TORSDOF 4
ENDMDL
MODEL 2
REMARK VINA RESULT:      -6.1      3.360      6.372
REMARK  Name = 
REMARK  5 active torsions:
REMARK  status: ('A' for Active; 'I' for Inactive)
REMARK    1  A    between atoms: C5M_1  and  C5_2
REMARK    2  A    between atoms: N1_4  and  C1*_5
REMARK    3  A    between atoms: C3*_8  and  O3*_10
REMARK    4  A    between atoms: C4*_11  and  C5*_13
REMARK    5  A    between atoms: C5*_13  and  O5*_14
REMARK                            x       y       z     vdW  Elec       q    Type
REMARK                         _______ _______ _______ _____ _____    ______ ____
ROOT
ATOM      1  C5M   T A   1      10.886   1.368  24.147  0.00  0.00    +0.051 C 
ATOM      2  C5    T A   1       9.705   0.506  23.839  0.00  0.00    +0.030 A 
ATOM      3  C4    T A   1       8.691   1.056  22.910  0.00  0.00    +0.257 A 
ATOM      4  O4    T A   1       8.808   2.166  22.398  0.00  0.00    -0.267 OA
ATOM      5  N3    T A   1       7.624   0.248  22.647  0.00  0.00    -0.275 N 
ATOM      6  H3    T A   1       6.935   0.595  22.000  0.00  0.00    +0.173 HD
ATOM      7  C2    T A   1       7.446  -1.027  23.107  0.00  0.00    +0.331 A 
ATOM      8  O2    T A   1       6.493  -1.700  22.719  0.00  0.00    -0.246 OA
ATOM      9  N1    T A   1       8.401  -1.485  24.006  0.00  0.00    -0.274 N 
ATOM     10  C6    T A   1       9.505  -0.721  24.336  0.00  0.00    +0.101 A 
ENDROOT
BRANCH   9  11
ATOM     11  C1*   T A   1       8.222  -2.837  24.516  0.00  0.00    +0.226 C 
ATOM     12  O4*   T A   1       7.857  -2.831  25.910  0.00  0.00    -0.348 OA
ATOM     13  C4*   T A   1       8.422  -4.019  26.515  0.00  0.00    +0.175 C 
ATOM     14  C3*   T A   1       9.147  -4.788  25.407  0.00  0.00    +0.150 C 
ATOM     15  C2*   T A   1       9.471  -3.696  24.416  0.00  0.00    +0.088 C 
BRANCH  14  16
ATOM     16  O3*   T A   1      10.310  -5.457  25.869  0.00  0.00    -0.389 OA
ATOM     17  H3*   T A   1      10.798  -5.814  25.108  0.00  0.00    +0.210 HD
ENDBRANCH  14  16
BRANCH  13  18
ATOM     18  C5*   T A   1       7.300  -4.826  27.172  0.00  0.00    +0.190 C 
BRANCH  18  19
ATOM     19  O5*   T A   1       7.777  -6.104  27.591  0.00  0.00    -0.392 OA
ATOM     20  H5*   T A   1       7.921  -6.040  28.552  0.00  0.00    +0.210 HD
ENDBRANCH  18  19
ENDBRANCH  13  18
ENDBRANCH   9  11
TORSDOF 4
ENDMDL
MODEL 3
REMARK VINA RESULT:      -6.0      2.846      2.974
REMARK  Name = 
REMARK  5 active torsions:
REMARK  status: ('A' for Active; 'I' for Inactive)
REMARK    1  A    between atoms: C5M_1  and  C5_2
REMARK    2  A    between atoms: N1_4  and  C1*_5
REMARK    3  A    between atoms: C3*_8  and  O3*_10
REMARK    4  A    between atoms: C4*_11  and  C5*_13
REMARK    5  A    between atoms: C5*_13  and  O5*_14
REMARK                            x       y       z     vdW  Elec       q    Type
REMARK                         _______ _______ _______ _____ _____    ______ ____
ROOT
ATOM      1  C5M   T A   1       5.298  -4.133  28.094  0.00  0.00    +0.051 C 
ATOM      2  C5    T A   1       6.441  -4.364  27.160  0.00  0.00    +0.030 A 
ATOM      3  C4    T A   1       7.301  -5.542  27.424  0.00  0.00    +0.257 A 
ATOM      4  O4    T A   1       7.087  -6.309  28.357  0.00  0.00    -0.267 OA
ATOM      5  N3    T A   1       8.337  -5.729  26.556  0.00  0.00    -0.275 N 
ATOM      6  H3    T A   1       8.918  -6.537  26.706  0.00  0.00    +0.173 HD
ATOM      7  C2    T A   1       8.606  -4.974  25.449  0.00  0.00    +0.331 A 
ATOM      8  O2    T A   1       9.508  -5.300  24.681  0.00  0.00    -0.246 OA
ATOM      9  N1    T A   1       7.799  -3.858  25.265  0.00  0.00    -0.274 N 
ATOM     10  C6    T A   1       6.737  -3.590  26.109  0.00  0.00    +0.101 A 
ENDROOT
BRANCH   9  11
ATOM     11  C1*   T A   1       8.079  -3.036  24.097  0.00  0.00    +0.226 C 
ATOM     12  O4*   T A   1       9.138  -2.093  24.356  0.00  0.00    -0.348 OA
ATOM     13  C4*   T A   1       8.866  -0.904  23.576  0.00  0.00    +0.175 C 
ATOM     14  C3*   T A   1       7.580  -1.167  22.788  0.00  0.00    +0.150 C 
ATOM     15  C2*   T A   1       6.891  -2.211  23.634  0.00  0.00    +0.088 C 
BRANCH  14  16
ATOM     16  O3*   T A   1       6.786  -0.002  22.621  0.00  0.00    -0.389 OA
ATOM     17  H3*   T A   1       6.310   0.183  23.448  0.00  0.00    +0.210 HD
ENDBRANCH  14  16
BRANCH  13  18
ATOM     18  C5*   T A   1      10.069  -0.608  22.681  0.00  0.00    +0.190 C 
BRANCH  18  19
ATOM     19  O5*   T A   1      10.168  -1.572  21.632  0.00  0.00    -0.392 OA
ATOM     20  H5*   T A   1       9.256  -1.760  21.349  0.00  0.00    +0.210 HD
ENDBRANCH  18  19
ENDBRANCH  13  18
ENDBRANCH   9  11
TORSDOF 4
ENDMDL
MODEL 4
REMARK VINA RESULT:      -6.0      2.837      3.315
REMARK  Name = 
REMARK  5 active torsions:
REMARK  status: ('A' for Active; 'I' for Inactive)
REMARK    1  A    between atoms: C5M_1  and  C5_2
REMARK    2  A    between atoms: N1_4  and  C1*_5
REMARK    3  A    between atoms: C3*_8  and  O3*_10
REMARK    4  A    between atoms: C4*_11  and  C5*_13
REMARK    5  A    between atoms: C5*_13  and  O5*_14
REMARK                            x       y       z     vdW  Elec       q    Type
REMARK                         _______ _______ _______ _____ _____    ______ ____
ROOT
ATOM      1  C5M   T A   1       4.887  -4.047  25.713  0.00  0.00    +0.051 C 
ATOM      2  C5    T A   1       6.363  -4.250  25.587  0.00  0.00    +0.030 A 
ATOM      3  C4    T A   1       6.925  -5.495  26.162  0.00  0.00    +0.257 A 
ATOM      4  O4    T A   1       6.219  -6.337  26.709  0.00  0.00    -0.267 OA
ATOM      5  N3    T A   1       8.273  -5.654  26.033  0.00  0.00    -0.275 N 
ATOM      6  H3    T A   1       8.670  -6.505  26.397  0.00  0.00    +0.173 HD
ATOM      7  C2    T A   1       9.125  -4.811  25.375  0.00  0.00    +0.331 A 
ATOM      8  O2    T A   1      10.308  -5.111  25.234  0.00  0.00    -0.246 OA
ATOM      9  N1    T A   1       8.560  -3.639  24.888  0.00  0.00    -0.274 N 
ATOM     10  C6    T A   1       7.204  -3.395  24.992  0.00  0.00    +0.101 A 
ENDROOT
BRANCH   9  11
ATOM     11  C1*   T A   1       9.455  -2.724  24.195  0.00  0.00    +0.226 C 
ATOM     12  O4*   T A   1       9.319  -1.376  24.689  0.00  0.00    -0.348 OA
ATOM     13  C4*   T A   1       9.567  -0.477  23.581  0.00  0.00    +0.175 C 
ATOM     14  C3*   T A   1       9.893  -1.343  22.362  0.00  0.00    +0.150 C 
ATOM     15  C2*   T A   1       9.206  -2.646  22.699  0.00  0.00    +0.088 C 
BRANCH  14  16
ATOM     16  O3*   T A   1       9.419  -0.786  21.146  0.00  0.00    -0.389 OA
ATOM     17  H3*   T A   1       9.052  -1.493  20.590  0.00  0.00    +0.210 HD
ENDBRANCH  14  16
BRANCH  13  18
ATOM     18  C5*   T A   1      10.698   0.479  23.959  0.00  0.00    +0.190 C 
BRANCH  18  19
ATOM     19  O5*   T A   1      10.763   0.652  25.375  0.00  0.00    -0.392 OA
ATOM     20  H5*   T A   1      11.683   0.897  25.578  0.00  0.00    +0.210 HD
ENDBRANCH  18  19
ENDBRANCH  13  18
ENDBRANCH   9  11
TORSDOF 4
ENDMDL
MODEL 5
REMARK VINA RESULT:      -5.9      2.503      6.120
REMARK  Name = 
REMARK  5 active torsions:
REMARK  status: ('A' for Active; 'I' for Inactive)
REMARK    1  A    between atoms: C5M_1  and  C5_2
REMARK    2  A    between atoms: N1_4  and  C1*_5
REMARK    3  A    between atoms: C3*_8  and  O3*_10
REMARK    4  A    between atoms: C4*_11  and  C5*_13
REMARK    5  A    between atoms: C5*_13  and  O5*_14
REMARK                            x       y       z     vdW  Elec       q    Type
REMARK                         _______ _______ _______ _____ _____    ______ ____
ROOT
ATOM      1  C5M   T A   1      10.685   0.328  24.862  0.00  0.00    +0.051 C 
ATOM      2  C5    T A   1       9.838  -0.628  24.086  0.00  0.00    +0.030 A 
ATOM      3  C4    T A   1       9.526  -0.268  22.683  0.00  0.00    +0.257 A 
ATOM      4  O4    T A   1       9.949   0.761  22.164  0.00  0.00    -0.267 OA
ATOM      5  N3    T A   1       8.751  -1.158  21.999  0.00  0.00    -0.275 N 
ATOM      6  H3    T A   1       8.548  -0.942  21.036  0.00  0.00    +0.173 HD
ATOM      7  C2    T A   1       8.300  -2.361  22.467  0.00  0.00    +0.331 A 
ATOM      8  O2    T A   1       7.695  -3.129  21.723  0.00  0.00    -0.246 OA
ATOM      9  N1    T A   1       8.583  -2.636  23.799  0.00  0.00    -0.274 N 
ATOM     10  C6    T A   1       9.350  -1.779  24.565  0.00  0.00    +0.101 A 
ENDROOT
BRANCH   9  11
ATOM     11  C1*   T A   1       8.101  -3.908  24.319  0.00  0.00    +0.226 C 
ATOM     12  O4*   T A   1       6.736  -3.810  24.770  0.00  0.00    -0.348 OA
ATOM     13  C4*   T A   1       6.577  -4.720  25.885  0.00  0.00    +0.175 C 
ATOM     14  C3*   T A   1       7.924  -5.417  26.093  0.00  0.00    +0.150 C 
ATOM     15  C2*   T A   1       8.896  -4.421  25.506  0.00  0.00    +0.088 C 
BRANCH  14  16
ATOM     16  O3*   T A   1       8.197  -5.695  27.457  0.00  0.00    -0.389 OA
ATOM     17  H3*   T A   1       9.155  -5.811  27.575  0.00  0.00    +0.210 HD
ENDBRANCH  14  16
BRANCH  13  18
ATOM     18  C5*   T A   1       5.438  -5.693  25.577  0.00  0.00    +0.190 C 
BRANCH  18  19
ATOM     19  O5*   T A   1       5.437  -6.779  26.502  0.00  0.00    -0.392 OA
ATOM     20  H5*   T A   1       6.245  -7.293  26.320  0.00  0.00    +0.210 HD
ENDBRANCH  18  19
ENDBRANCH  13  18
ENDBRANCH   9  11
TORSDOF 4
ENDMDL
MODEL 6
REMARK VINA RESULT:      -5.9      5.180      8.817
REMARK  Name = 
REMARK  5 active torsions:
REMARK  status: ('A' for Active; 'I' for Inactive)
REMARK    1  A    between atoms: C5M_1  and  C5_2
REMARK    2  A    between atoms: N1_4  and  C1*_5
REMARK    3  A    between atoms: C3*_8  and  O3*_10
REMARK    4  A    between atoms: C4*_11  and  C5*_13
REMARK    5  A    between atoms: C5*_13  and  O5*_14
REMARK                            x       y       z     vdW  Elec       q    Type
REMARK                         _______ _______ _______ _____ _____    ______ ____
ROOT
ATOM      1  C5M   T A   1      12.616   4.972  23.145  0.00  0.00    +0.051 C 
ATOM      2  C5    T A   1      11.281   4.408  23.509  0.00  0.00    +0.030 A 
ATOM      3  C4    T A   1      10.282   5.346  24.073  0.00  0.00    +0.257 A 
ATOM      4  O4    T A   1      10.524   6.539  24.228  0.00  0.00    -0.267 OA
ATOM      5  N3    T A   1       9.073   4.804  24.396  0.00  0.00    -0.275 N 
ATOM      6  H3    T A   1       8.373   5.431  24.759  0.00  0.00    +0.173 HD
ATOM      7  C2    T A   1       8.689   3.508  24.188  0.00  0.00    +0.331 A 
ATOM      8  O2    T A   1       7.535   3.158  24.424  0.00  0.00    -0.246 OA
ATOM      9  N1    T A   1       9.671   2.658  23.695  0.00  0.00    -0.274 N 
ATOM     10  C6    T A   1      10.926   3.126  23.357  0.00  0.00    +0.101 A 
ENDROOT
BRANCH   9  11
ATOM     11  C1*   T A   1       9.283   1.271  23.479  0.00  0.00    +0.226 C 
ATOM     12  O4*   T A   1       9.873   0.398  24.461  0.00  0.00    -0.348 OA
ATOM     13  C4*   T A   1      10.118  -0.878  23.822  0.00  0.00    +0.175 C 
ATOM     14  C3*   T A   1       9.621  -0.762  22.379  0.00  0.00    +0.150 C 
ATOM     15  C2*   T A   1       9.708   0.725  22.127  0.00  0.00    +0.088 C 
BRANCH  14  16
ATOM     16  O3*   T A   1      10.405  -1.509  21.462  0.00  0.00    -0.389 OA
ATOM     17  H3*   T A   1       9.863  -1.740  20.690  0.00  0.00    +0.210 HD
ENDBRANCH  14  16
BRANCH  13  18
ATOM     18  C5*   T A   1       9.409  -1.977  24.616  0.00  0.00    +0.190 C 
BRANCH  18  19
ATOM     19  O5*   T A   1       9.728  -3.265  24.090  0.00  0.00    -0.392 OA
ATOM     20  H5*   T A   1       9.083  -3.437  23.380  0.00  0.00    +0.210 HD
ENDBRANCH  18  19
ENDBRANCH  13  18
ENDBRANCH   9  11
TORSDOF 4
ENDMDL
MODEL 7
REMARK VINA RESULT:      -5.8      2.356      3.455
REMARK  Name = 
REMARK  5 active torsions:
REMARK  status: ('A' for Active; 'I' for Inactive)
REMARK    1  A    between atoms: C5M_1  and  C5_2
REMARK    2  A    between atoms: N1_4  and  C1*_5
REMARK    3  A    between atoms: C3*_8  and  O3*_10
REMARK    4  A    between atoms: C4*_11  and  C5*_13
REMARK    5  A    between atoms: C5*_13  and  O5*_14
REMARK                            x       y       z     vdW  Elec       q    Type
REMARK                         _______ _______ _______ _____ _____    ______ ____
ROOT
ATOM      1  C5M   T A   1       4.832  -3.788  23.007  0.00  0.00    +0.051 C 
ATOM      2  C5    T A   1       6.267  -3.752  23.424  0.00  0.00    +0.030 A 
ATOM      3  C4    T A   1       6.784  -4.925  24.167  0.00  0.00    +0.257 A 
ATOM      4  O4    T A   1       6.079  -5.896  24.425  0.00  0.00    -0.267 OA
ATOM      5  N3    T A   1       8.096  -4.865  24.535  0.00  0.00    -0.275 N 
ATOM      6  H3    T A   1       8.472  -5.663  25.021  0.00  0.00    +0.173 HD
ATOM      7  C2    T A   1       8.974  -3.863  24.227  0.00  0.00    +0.331 A 
ATOM      8  O2    T A   1      10.162  -3.966  24.525  0.00  0.00    -0.246 OA
ATOM      9  N1    T A   1       8.435  -2.767  23.565  0.00  0.00    -0.274 N 
ATOM     10  C6    T A   1       7.111  -2.744  23.171  0.00  0.00    +0.101 A 
ENDROOT
BRANCH   9  11
ATOM     11  C1*   T A   1       9.353  -1.686  23.240  0.00  0.00    +0.226 C 
ATOM     12  O4*   T A   1       9.301  -0.634  24.223  0.00  0.00    -0.348 OA
ATOM     13  C4*   T A   1       9.560   0.617  23.541  0.00  0.00    +0.175 C 
ATOM     14  C3*   T A   1       9.804   0.284  22.067  0.00  0.00    +0.150 C 
ATOM     15  C2*   T A   1       9.063  -1.023  21.904  0.00  0.00    +0.088 C 
BRANCH  14  16
ATOM     16  O3*   T A   1       9.323   1.287  21.186  0.00  0.00    -0.389 OA
ATOM     17  H3*   T A   1       9.961   2.019  21.154  0.00  0.00    +0.210 HD
ENDBRANCH  14  16
BRANCH  13  18
ATOM     18  C5*   T A   1      10.750   1.311  24.206  0.00  0.00    +0.190 C 
BRANCH  18  19
ATOM     19  O5*   T A   1      10.988   2.586  23.611  0.00  0.00    -0.392 OA
ATOM     20  H5*   T A   1      10.655   3.248  24.242  0.00  0.00    +0.210 HD
ENDBRANCH  18  19
ENDBRANCH  13  18
ENDBRANCH   9  11
TORSDOF 4
ENDMDL
MODEL 8
REMARK VINA RESULT:      -5.7      2.751      6.239
REMARK  Name = 
REMARK  5 active torsions:
REMARK  status: ('A' for Active; 'I' for Inactive)
REMARK    1  A    between atoms: C5M_1  and  C5_2
REMARK    2  A    between atoms: N1_4  and  C1*_5
REMARK    3  A    between atoms: C3*_8  and  O3*_10
REMARK    4  A    between atoms: C4*_11  and  C5*_13
REMARK    5  A    between atoms: C5*_13  and  O5*_14
REMARK                            x       y       z     vdW  Elec       q    Type
REMARK                         _______ _______ _______ _____ _____    ______ ____
ROOT
ATOM      1  C5M   T A   1       9.330   1.194  21.694  0.00  0.00    +0.051 C 
ATOM      2  C5    T A   1       9.174   0.235  22.829  0.00  0.00    +0.030 A 
ATOM      3  C4    T A   1       9.766   0.625  24.130  0.00  0.00    +0.257 A 
ATOM      4  O4    T A   1      10.351   1.693  24.286  0.00  0.00    -0.267 OA
ATOM      5  N3    T A   1       9.610  -0.270  25.148  0.00  0.00    -0.275 N 
ATOM      6  H3    T A   1       9.985  -0.011  26.045  0.00  0.00    +0.173 HD
ATOM      7  C2    T A   1       8.911  -1.443  25.088  0.00  0.00    +0.331 A 
ATOM      8  O2    T A   1       8.750  -2.121  26.101  0.00  0.00    -0.246 OA
ATOM      9  N1    T A   1       8.409  -1.786  23.839  0.00  0.00    -0.274 N 
ATOM     10  C6    T A   1       8.539  -0.942  22.753  0.00  0.00    +0.101 A 
ENDROOT
BRANCH   9  11
ATOM     11  C1*   T A   1       7.672  -3.039  23.755  0.00  0.00    +0.226 C 
ATOM     12  O4*   T A   1       7.983  -3.754  22.543  0.00  0.00    -0.348 OA
ATOM     13  C4*   T A   1       6.793  -4.474  22.141  0.00  0.00    +0.175 C 
ATOM     14  C3*   T A   1       5.717  -4.187  23.192  0.00  0.00    +0.150 C 
ATOM     15  C2*   T A   1       6.164  -2.860  23.757  0.00  0.00    +0.088 C 
BRANCH  14  16
ATOM     16  O3*   T A   1       4.410  -4.124  22.642  0.00  0.00    -0.389 OA
ATOM     17  H3*   T A   1       3.944  -4.956  22.827  0.00  0.00    +0.210 HD
ENDBRANCH  14  16
BRANCH  13  18
ATOM     18  C5*   T A   1       7.128  -5.961  22.015  0.00  0.00    +0.190 C 
BRANCH  18  19
ATOM     19  O5*   T A   1       5.947  -6.756  22.116  0.00  0.00    -0.392 OA
ATOM     20  H5*   T A   1       6.036  -7.462  21.452  0.00  0.00    +0.210 HD
ENDBRANCH  18  19
ENDBRANCH  13  18
ENDBRANCH   9  11
TORSDOF 4
ENDMDL
MODEL 9
REMARK VINA RESULT:      -5.6      2.709      6.305
REMARK  Name = 
REMARK  5 active torsions:
REMARK  status: ('A' for Active; 'I' for Inactive)
REMARK    1  A    between atoms: C5M_1  and  C5_2
REMARK    2  A    between atoms: N1_4  and  C1*_5
REMARK    3  A    between atoms: C3*_8  and  O3*_10
REMARK    4  A    between atoms: C4*_11  and  C5*_13
REMARK    5  A    between atoms: C5*_13  and  O5*_14
REMARK                            x       y       z     vdW  Elec       q    Type
REMARK                         _______ _______ _______ _____ _____    ______ ____
ROOT
ATOM      1  C5M   T A   1       6.613   1.853  23.125  0.00  0.00    +0.051 C 
ATOM      2  C5    T A   1       7.661   0.822  22.857  0.00  0.00    +0.030 A 
ATOM      3  C4    T A   1       9.042   1.306  22.627  0.00  0.00    +0.257 A 
ATOM      4  O4    T A   1       9.330   2.499  22.665  0.00  0.00    -0.267 OA
ATOM      5  N3    T A   1       9.978   0.344  22.385  0.00  0.00    -0.275 N 
ATOM      6  H3    T A   1      10.927   0.653  22.250  0.00  0.00    +0.173 HD
ATOM      7  C2    T A   1       9.767  -1.007  22.400  0.00  0.00    +0.331 A 
ATOM      8  O2    T A   1      10.711  -1.783  22.270  0.00  0.00    -0.246 OA
ATOM      9  N1    T A   1       8.451  -1.412  22.580  0.00  0.00    -0.274 N 
ATOM     10  C6    T A   1       7.441  -0.498  22.816  0.00  0.00    +0.101 A 
ENDROOT
BRANCH   9  11
ATOM     11  C1*   T A   1       8.206  -2.847  22.587  0.00  0.00    +0.226 C 
ATOM     12  O4*   T A   1       7.031  -3.186  21.824  0.00  0.00    -0.348 OA
ATOM     13  C4*   T A   1       6.423  -4.343  22.448  0.00  0.00    +0.175 C 
ATOM     14  C3*   T A   1       7.304  -4.727  23.640  0.00  0.00    +0.150 C 
ATOM     15  C2*   T A   1       7.981  -3.419  23.976  0.00  0.00    +0.088 C 
BRANCH  14  16
ATOM     16  O3*   T A   1       6.560  -5.243  24.733  0.00  0.00    -0.389 OA
ATOM     17  H3*   T A   1       5.691  -5.543  24.417  0.00  0.00    +0.210 HD
ENDBRANCH  14  16
BRANCH  13  18
ATOM     18  C5*   T A   1       6.294  -5.459  21.411  0.00  0.00    +0.190 C 
BRANCH  18  19
ATOM     19  O5*   T A   1       6.005  -6.705  22.044  0.00  0.00    -0.392 OA
ATOM     20  H5*   T A   1       5.072  -6.903  21.843  0.00  0.00    +0.210 HD
ENDBRANCH  18  19
ENDBRANCH  13  18
ENDBRANCH   9  11
TORSDOF 4
ENDMDL
