MODEL 1
REMARK VINA RESULT:      -4.9      0.000      0.000
REMARK  Name = 
REMARK  0 active torsions:
REMARK  status: ('A' for Active; 'I' for Inactive)
REMARK                            x       y       z     vdW  Elec       q    Type
REMARK                         _______ _______ _______ _____ _____    ______ ____
ROOT
ATOM      1  O   UNL     1      11.328   3.712  23.330  0.00  0.00    -0.253 OA
ATOM      2  C   UNL     1      10.563   2.790  23.122  0.00  0.00    +0.303 C 
ATOM      3  N   UNL     1      10.235   2.276  21.884  0.00  0.00    -0.278 N 
ATOM      4  H   UNL     1      10.635   2.649  21.038  0.00  0.00    +0.152 HD
ATOM      5  C   UNL     1       9.232   1.266  21.994  0.00  0.00    +0.202 C 
ATOM      6  C   UNL     1       9.127   1.024  23.516  0.00  0.00    +0.202 C 
ATOM      7  N   UNL     1       9.766  -0.239  23.698  0.00  0.00    -0.278 N 
ATOM      8  H   UNL     1      10.060  -0.651  24.570  0.00  0.00    +0.152 HD
ATOM      9  C   UNL     1      10.072  -0.822  22.487  0.00  0.00    +0.303 C 
ATOM     10  O   UNL     1      10.622  -1.898  22.335  0.00  0.00    -0.253 OA
ATOM     11  N   UNL     1       9.661   0.016  21.468  0.00  0.00    -0.278 N 
ATOM     12  H   UNL     1       9.916  -0.177  20.512  0.00  0.00    +0.152 HD
ATOM     13  N   UNL     1       9.866   2.095  24.092  0.00  0.00    -0.278 N 
ATOM     14  H   UNL     1      10.008   2.277  25.074  0.00  0.00    +0.152 HD
ENDROOT
TORSDOF 0
ENDMDL
MODEL 2
REMARK VINA RESULT:      -4.9      0.378      3.755
REMARK  Name = 
REMARK  0 active torsions:
REMARK  status: ('A' for Active; 'I' for Inactive)
REMARK                            x       y       z     vdW  Elec       q    Type
REMARK                         _______ _______ _______ _____ _____    ______ ____
ROOT
ATOM      1  O   UNL     1      10.597  -2.196  22.525  0.00  0.00    -0.253 OA
ATOM      2  C   UNL     1      10.052  -1.108  22.525  0.00  0.00    +0.303 C 
ATOM      3  N   UNL     1       9.560  -0.453  23.635  0.00  0.00    -0.278 N 
ATOM      4  H   UNL     1       9.631  -0.853  24.557  0.00  0.00    +0.152 HD
ATOM      5  C   UNL     1       8.893   0.755  23.267  0.00  0.00    +0.202 C 
ATOM      6  C   UNL     1       9.235   0.915  21.768  0.00  0.00    +0.202 C 
ATOM      7  N   UNL     1      10.186   1.978  21.755  0.00  0.00    -0.278 N 
ATOM      8  H   UNL     1      10.781   2.253  20.988  0.00  0.00    +0.152 HD
ATOM      9  C   UNL     1      10.311   2.551  23.003  0.00  0.00    +0.303 C 
ATOM     10  O   UNL     1      11.051   3.476  23.290  0.00  0.00    -0.253 OA
ATOM     11  N   UNL     1       9.468   1.902  23.883  0.00  0.00    -0.278 N 
ATOM     12  H   UNL     1       9.513   2.091  24.871  0.00  0.00    +0.152 HD
ATOM     13  N   UNL     1       9.811  -0.335  21.406  0.00  0.00    -0.278 N 
ATOM     14  H   UNL     1      10.146  -0.609  20.496  0.00  0.00    +0.152 HD
ENDROOT
TORSDOF 0
ENDMDL
MODEL 3
REMARK VINA RESULT:      -4.7      1.793      2.511
REMARK  Name = 
REMARK  0 active torsions:
REMARK  status: ('A' for Active; 'I' for Inactive)
REMARK                            x       y       z     vdW  Elec       q    Type
REMARK                         _______ _______ _______ _____ _____    ______ ____
ROOT
ATOM      1  O   UNL     1       8.137   3.817  25.148  0.00  0.00    -0.253 OA
ATOM      2  C   UNL     1       8.989   3.209  24.529  0.00  0.00    +0.303 C 
ATOM      3  N   UNL     1       9.443   1.938  24.817  0.00  0.00    -0.278 N 
ATOM      4  H   UNL     1       9.072   1.411  25.591  0.00  0.00    +0.152 HD
ATOM      5  C   UNL     1      10.517   1.567  23.953  0.00  0.00    +0.202 C 
ATOM      6  C   UNL     1      10.537   2.693  22.895  0.00  0.00    +0.202 C 
ATOM      7  N   UNL     1       9.995   2.067  21.732  0.00  0.00    -0.278 N 
ATOM      8  H   UNL     1       9.677   2.522  20.890  0.00  0.00    +0.152 HD
ATOM      9  C   UNL     1       9.823   0.713  21.928  0.00  0.00    +0.303 C 
ATOM     10  O   UNL     1       9.376  -0.072  21.111  0.00  0.00    -0.253 OA
ATOM     11  N   UNL     1      10.231   0.389  23.207  0.00  0.00    -0.278 N 
ATOM     12  H   UNL     1      10.060  -0.531  23.582  0.00  0.00    +0.152 HD
ATOM     13  N   UNL     1       9.673   3.689  23.429  0.00  0.00    -0.278 N 
ATOM     14  H   UNL     1       9.449   4.583  23.019  0.00  0.00    +0.152 HD
ENDROOT
TORSDOF 0
ENDMDL
MODEL 4
REMARK VINA RESULT:      -4.7      1.771      3.628
REMARK  Name = 
REMARK  0 active torsions:
REMARK  status: ('A' for Active; 'I' for Inactive)
REMARK                            x       y       z     vdW  Elec       q    Type
REMARK                         _______ _______ _______ _____ _____    ______ ____
ROOT
ATOM      1  O   UNL     1       9.427  -0.151  21.112  0.00  0.00    -0.253 OA
ATOM      2  C   UNL     1       9.819   0.644  21.944  0.00  0.00    +0.303 C 
ATOM      3  N   UNL     1      10.001   1.997  21.745  0.00  0.00    -0.278 N 
ATOM      4  H   UNL     1       9.805   2.429  20.856  0.00  0.00    +0.152 HD
ATOM      5  C   UNL     1      10.568   2.617  22.900  0.00  0.00    +0.202 C 
ATOM      6  C   UNL     1      10.503   1.509  23.974  0.00  0.00    +0.202 C 
ATOM      7  N   UNL     1       9.445   1.936  24.831  0.00  0.00    -0.278 N 
ATOM      8  H   UNL     1       8.979   1.391  25.540  0.00  0.00    +0.152 HD
ATOM      9  C   UNL     1       9.010   3.201  24.494  0.00  0.00    +0.303 C 
ATOM     10  O   UNL     1       8.118   3.817  25.049  0.00  0.00    -0.253 OA
ATOM     11  N   UNL     1       9.744   3.656  23.417  0.00  0.00    -0.278 N 
ATOM     12  H   UNL     1       9.486   4.507  22.943  0.00  0.00    +0.152 HD
ATOM     13  N   UNL     1      10.170   0.334  23.244  0.00  0.00    -0.278 N 
ATOM     14  H   UNL     1      10.055  -0.598  23.612  0.00  0.00    +0.152 HD
ENDROOT
TORSDOF 0
ENDMDL
MODEL 5
REMARK VINA RESULT:      -4.4      2.002      2.657
REMARK  Name = 
REMARK  0 active torsions:
REMARK  status: ('A' for Active; 'I' for Inactive)
REMARK                            x       y       z     vdW  Elec       q    Type
REMARK                         _______ _______ _______ _____ _____    ______ ____
ROOT
ATOM      1  O   UNL     1       6.629   1.919  22.224  0.00  0.00    -0.253 OA
ATOM      2  C   UNL     1       7.782   1.547  22.324  0.00  0.00    +0.303 C 
ATOM      3  N   UNL     1       8.447   1.286  23.504  0.00  0.00    -0.278 N 
ATOM      4  H   UNL     1       7.992   1.388  24.397  0.00  0.00    +0.152 HD
ATOM      5  C   UNL     1       9.818   0.967  23.265  0.00  0.00    +0.202 C 
ATOM      6  C   UNL     1       9.891   0.820  21.728  0.00  0.00    +0.202 C 
ATOM      7  N   UNL     1      10.008  -0.589  21.534  0.00  0.00    -0.278 N 
ATOM      8  H   UNL     1       9.897  -1.095  20.668  0.00  0.00    +0.152 HD
ATOM      9  C   UNL     1      10.173  -1.246  22.735  0.00  0.00    +0.303 C 
ATOM     10  O   UNL     1      10.295  -2.450  22.875  0.00  0.00    -0.253 OA
ATOM     11  N   UNL     1      10.170  -0.320  23.759  0.00  0.00    -0.278 N 
ATOM     12  H   UNL     1      10.147  -0.619  24.721  0.00  0.00    +0.152 HD
ATOM     13  N   UNL     1       8.647   1.332  21.268  0.00  0.00    -0.278 N 
ATOM     14  H   UNL     1       8.338   1.411  20.311  0.00  0.00    +0.152 HD
ENDROOT
TORSDOF 0
ENDMDL
MODEL 6
REMARK VINA RESULT:      -4.4      5.310      7.094
REMARK  Name = 
REMARK  0 active torsions:
REMARK  status: ('A' for Active; 'I' for Inactive)
REMARK                            x       y       z     vdW  Elec       q    Type
REMARK                         _______ _______ _______ _____ _____    ______ ____
ROOT
ATOM      1  O   UNL     1       6.930  -5.266  28.052  0.00  0.00    -0.253 OA
ATOM      2  C   UNL     1       7.384  -5.216  26.925  0.00  0.00    +0.303 C 
ATOM      3  N   UNL     1       6.786  -4.605  25.842  0.00  0.00    -0.278 N 
ATOM      4  H   UNL     1       5.899  -4.135  25.927  0.00  0.00    +0.152 HD
ATOM      5  C   UNL     1       7.539  -4.820  24.648  0.00  0.00    +0.202 C 
ATOM      6  C   UNL     1       8.849  -5.461  25.158  0.00  0.00    +0.202 C 
ATOM      7  N   UNL     1       9.808  -4.412  25.023  0.00  0.00    -0.278 N 
ATOM      8  H   UNL     1      10.734  -4.380  25.420  0.00  0.00    +0.152 HD
ATOM      9  C   UNL     1       9.270  -3.327  24.363  0.00  0.00    +0.303 C 
ATOM     10  O   UNL     1       9.854  -2.289  24.110  0.00  0.00    -0.253 OA
ATOM     11  N   UNL     1       7.956  -3.603  24.042  0.00  0.00    -0.278 N 
ATOM     12  H   UNL     1       7.356  -2.882  23.673  0.00  0.00    +0.152 HD
ATOM     13  N   UNL     1       8.578  -5.779  26.517  0.00  0.00    -0.278 N 
ATOM     14  H   UNL     1       9.200  -6.225  27.173  0.00  0.00    +0.152 HD
ENDROOT
TORSDOF 0
ENDMDL
MODEL 7
REMARK VINA RESULT:      -4.4      2.460      4.280
REMARK  Name = 
REMARK  0 active torsions:
REMARK  status: ('A' for Active; 'I' for Inactive)
REMARK                            x       y       z     vdW  Elec       q    Type
REMARK                         _______ _______ _______ _____ _____    ______ ____
ROOT
ATOM      1  O   UNL     1       8.006   1.675  21.190  0.00  0.00    -0.253 OA
ATOM      2  C   UNL     1       8.732   2.095  22.071  0.00  0.00    +0.303 C 
ATOM      3  N   UNL     1      10.071   2.401  21.935  0.00  0.00    -0.278 N 
ATOM      4  H   UNL     1      10.548   2.294  21.054  0.00  0.00    +0.152 HD
ATOM      5  C   UNL     1      10.645   2.772  23.189  0.00  0.00    +0.202 C 
ATOM      6  C   UNL     1       9.420   2.899  24.123  0.00  0.00    +0.202 C 
ATOM      7  N   UNL     1       9.277   4.309  24.294  0.00  0.00    -0.278 N 
ATOM      8  H   UNL     1       8.485   4.796  24.685  0.00  0.00    +0.152 HD
ATOM      9  C   UNL     1      10.333   4.990  23.728  0.00  0.00    +0.303 C 
ATOM     10  O   UNL     1      10.475   6.200  23.718  0.00  0.00    -0.253 OA
ATOM     11  N   UNL     1      11.205   4.080  23.163  0.00  0.00    -0.278 N 
ATOM     12  H   UNL     1      11.971   4.392  22.587  0.00  0.00    +0.152 HD
ATOM     13  N   UNL     1       8.351   2.330  23.378  0.00  0.00    -0.278 N 
ATOM     14  H   UNL     1       7.393   2.224  23.673  0.00  0.00    +0.152 HD
ENDROOT
TORSDOF 0
ENDMDL
MODEL 8
REMARK VINA RESULT:      -4.3      1.660      2.310
REMARK  Name = 
REMARK  0 active torsions:
REMARK  status: ('A' for Active; 'I' for Inactive)
REMARK                            x       y       z     vdW  Elec       q    Type
REMARK                         _______ _______ _______ _____ _____    ______ ____
ROOT
ATOM      1  O   UNL     1      10.977   3.789  23.451  0.00  0.00    -0.253 OA
ATOM      2  C   UNL     1      10.617   2.675  23.122  0.00  0.00    +0.303 C 
ATOM      3  N   UNL     1      10.579   1.565  23.942  0.00  0.00    -0.278 N 
ATOM      4  H   UNL     1      10.854   1.616  24.909  0.00  0.00    +0.152 HD
ATOM      5  C   UNL     1      10.204   0.397  23.211  0.00  0.00    +0.202 C 
ATOM      6  C   UNL     1       9.765   0.955  21.838  0.00  0.00    +0.202 C 
ATOM      7  N   UNL     1       8.344   0.832  21.867  0.00  0.00    -0.278 N 
ATOM      8  H   UNL     1       7.684   1.256  21.233  0.00  0.00    +0.152 HD
ATOM      9  C   UNL     1       7.926   0.140  22.984  0.00  0.00    +0.303 C 
ATOM     10  O   UNL     1       6.769  -0.112  23.272  0.00  0.00    -0.253 OA
ATOM     11  N   UNL     1       9.030  -0.216  23.732  0.00  0.00    -0.278 N 
ATOM     12  H   UNL     1       8.920  -0.614  24.651  0.00  0.00    +0.152 HD
ATOM     13  N   UNL     1      10.194   2.311  21.859  0.00  0.00    -0.278 N 
ATOM     14  H   UNL     1      10.093   2.992  21.122  0.00  0.00    +0.152 HD
ENDROOT
TORSDOF 0
ENDMDL
MODEL 9
REMARK VINA RESULT:      -4.3      2.045      3.400
REMARK  Name = 
REMARK  0 active torsions:
REMARK  status: ('A' for Active; 'I' for Inactive)
REMARK                            x       y       z     vdW  Elec       q    Type
REMARK                         _______ _______ _______ _____ _____    ______ ____
ROOT
ATOM      1  O   UNL     1      10.020  -0.936  24.538  0.00  0.00    -0.253 OA
ATOM      2  C   UNL     1      10.010   0.179  24.053  0.00  0.00    +0.303 C 
ATOM      3  N   UNL     1      10.164   0.477  22.714  0.00  0.00    -0.278 N 
ATOM      4  H   UNL     1      10.294  -0.246  22.026  0.00  0.00    +0.152 HD
ATOM      5  C   UNL     1      10.202   1.889  22.501  0.00  0.00    +0.202 C 
ATOM      6  C   UNL     1       9.805   2.472  23.876  0.00  0.00    +0.202 C 
ATOM      7  N   UNL     1       8.474   2.942  23.667  0.00  0.00    -0.278 N 
ATOM      8  H   UNL     1       7.809   3.220  24.373  0.00  0.00    +0.152 HD
ATOM      9  C   UNL     1       8.118   2.857  22.337  0.00  0.00    +0.303 C 
ATOM     10  O   UNL     1       7.042   3.182  21.868  0.00  0.00    -0.253 OA
ATOM     11  N   UNL     1       9.176   2.333  21.621  0.00  0.00    -0.278 N 
ATOM     12  H   UNL     1       9.062   2.073  20.654  0.00  0.00    +0.152 HD
ATOM     13  N   UNL     1       9.857   1.357  24.757  0.00  0.00    -0.278 N 
ATOM     14  H   UNL     1       9.672   1.357  25.749  0.00  0.00    +0.152 HD
ENDROOT
TORSDOF 0
ENDMDL
