MODEL 1
REMARK VINA RESULT:      -6.8      0.000      0.000
REMARK  Name = 
REMARK  6 active torsions:
REMARK  status: ('A' for Active; 'I' for Inactive)
REMARK    1  A    between atoms: O5*_1  and  C5*_2
REMARK    2  A    between atoms: C5*_2  and  C4*_3
REMARK    3  A    between atoms: C1*_6  and  N9_14
REMARK    4  A    between atoms: C2*_8  and  O2*_10
REMARK    5  A    between atoms: C3*_11  and  O3*_13
REMARK    6  A    between atoms: C6_23  and  O6_25
REMARK                            x       y       z     vdW  Elec       q    Type
REMARK                         _______ _______ _______ _____ _____    ______ ____
ROOT
ATOM      1  N9    I A   1       9.043  -1.622  23.216  0.00  0.00    -0.244 N 
ATOM      2  C4    I A   1       9.393  -0.337  23.579  0.00  0.00    +0.214 A 
ATOM      3  N3    I A   1       9.321   0.236  24.805  0.00  0.00    -0.217 NA
ATOM      4  C2    I A   1       9.568   1.511  24.740  0.00  0.00    +0.186 C 
ATOM      5  N1    I A   1       9.857   2.285  23.631  0.00  0.00    -0.302 N 
ATOM      6  H1    I A   1      10.242   3.213  23.787  0.00  0.00    +0.150 HD
ATOM      7  C6    I A   1      10.211   1.692  22.367  0.00  0.00    +0.303 C 
ATOM      8  C5    I A   1       9.817   0.275  22.418  0.00  0.00    +0.274 A 
ATOM      9  N7    I A   1       9.746  -0.662  21.409  0.00  0.00    -0.193 N 
ATOM     10  H7    I A   1       9.982  -0.500  20.431  0.00  0.00    +0.454 HD
ATOM     11  C8    I A   1       9.288  -1.810  21.911  0.00  0.00    +0.410 A 
ENDROOT
BRANCH   1  15
ATOM     12  C4*   I A   1       9.270  -4.791  24.807  0.00  0.00    +0.177 C 
ATOM     13  C3*   I A   1       7.950  -5.034  24.070  0.00  0.00    +0.178 C 
ATOM     14  C2*   I A   1       7.539  -3.673  23.499  0.00  0.00    +0.195 C 
ATOM     15  C1*   I A   1       8.587  -2.714  24.071  0.00  0.00    +0.257 C 
ATOM     16  O4*   I A   1       9.751  -3.515  24.331  0.00  0.00    -0.346 OA
BRANCH  13  17
ATOM     17  O3*   I A   1       8.167  -5.957  22.988  0.00  0.00    -0.386 OA
ATOM     18  H3*   I A   1       7.644  -6.764  23.136  0.00  0.00    +0.210 HD
ENDBRANCH  13  17
BRANCH  14  19
ATOM     19  O2*   I A   1       6.209  -3.334  23.893  0.00  0.00    -0.385 OA
ATOM     20  H2*   I A   1       5.605  -3.663  23.201  0.00  0.00    +0.210 HD
ENDBRANCH  14  19
BRANCH  12  21
ATOM     21  C5*   I A   1       9.130  -4.736  26.335  0.00  0.00    +0.190 C 
BRANCH  21  22
ATOM     22  O5*   I A   1       8.329  -5.812  26.810  0.00  0.00    -0.392 OA
ATOM     23  H5*   I A   1       8.028  -5.574  27.708  0.00  0.00    +0.210 HD
ENDBRANCH  21  22
ENDBRANCH  12  21
ENDBRANCH   1  15
BRANCH   7  24
ATOM     24  O6    I A   1       9.485   2.348  21.356  0.00  0.00    -0.365 OA
ATOM     25  H6    I A   1       8.901   1.668  20.977  0.00  0.00    +0.212 HD
ENDBRANCH   7  24
TORSDOF 6
ENDMDL
MODEL 2
REMARK VINA RESULT:      -6.6      1.545      2.422
REMARK  Name = 
REMARK  6 active torsions:
REMARK  status: ('A' for Active; 'I' for Inactive)
REMARK    1  A    between atoms: O5*_1  and  C5*_2
REMARK    2  A    between atoms: C5*_2  and  C4*_3
REMARK    3  A    between atoms: C1*_6  and  N9_14
REMARK    4  A    between atoms: C2*_8  and  O2*_10
REMARK    5  A    between atoms: C3*_11  and  O3*_13
REMARK    6  A    between atoms: C6_23  and  O6_25
REMARK                            x       y       z     vdW  Elec       q    Type
REMARK                         _______ _______ _______ _____ _____    ______ ____
ROOT
ATOM      1  N9    I A   1       8.694  -1.223  24.938  0.00  0.00    -0.244 N 
ATOM      2  C4    I A   1       8.948  -0.546  23.764  0.00  0.00    +0.214 A 
ATOM      3  N3    I A   1       8.962  -1.035  22.499  0.00  0.00    -0.217 NA
ATOM      4  C2    I A   1       9.410  -0.150  21.660  0.00  0.00    +0.186 C 
ATOM      5  N1    I A   1       9.858   1.135  21.908  0.00  0.00    -0.302 N 
ATOM      6  H1    I A   1       9.962   1.763  21.115  0.00  0.00    +0.150 HD
ATOM      7  C6    I A   1       9.614   1.791  23.167  0.00  0.00    +0.303 C 
ATOM      8  C5    I A   1       9.218   0.755  24.135  0.00  0.00    +0.274 A 
ATOM      9  N7    I A   1       9.083   0.828  25.505  0.00  0.00    -0.193 N 
ATOM     10  H7    I A   1       9.233   1.660  26.073  0.00  0.00    +0.454 HD
ATOM     11  C8    I A   1       8.752  -0.375  25.976  0.00  0.00    +0.410 A 
ENDROOT
BRANCH   1  15
ATOM     12  C4*   I A   1       8.736  -4.427  26.475  0.00  0.00    +0.177 C 
ATOM     13  C3*   I A   1       9.107  -4.881  25.060  0.00  0.00    +0.178 C 
ATOM     14  C2*   I A   1       8.905  -3.654  24.166  0.00  0.00    +0.195 C 
ATOM     15  C1*   I A   1       8.296  -2.617  25.114  0.00  0.00    +0.257 C 
ATOM     16  O4*   I A   1       8.737  -2.983  26.431  0.00  0.00    -0.346 OA
BRANCH  13  17
ATOM     17  O3*   I A   1      10.491  -5.270  25.028  0.00  0.00    -0.386 OA
ATOM     18  H3*   I A   1      10.662  -5.811  24.238  0.00  0.00    +0.210 HD
ENDBRANCH  13  17
BRANCH  14  19
ATOM     19  O2*   I A   1       8.050  -3.961  23.063  0.00  0.00    -0.385 OA
ATOM     20  H2*   I A   1       8.531  -4.582  22.484  0.00  0.00    +0.210 HD
ENDBRANCH  14  19
BRANCH  12  21
ATOM     21  C5*   I A   1       7.358  -4.914  26.946  0.00  0.00    +0.190 C 
BRANCH  21  22
ATOM     22  O5*   I A   1       7.489  -5.976  27.884  0.00  0.00    -0.392 OA
ATOM     23  H5*   I A   1       7.407  -5.586  28.775  0.00  0.00    +0.210 HD
ENDBRANCH  21  22
ENDBRANCH  12  21
ENDBRANCH   1  15
BRANCH   7  24
ATOM     24  O6    I A   1      10.812   2.397  23.587  0.00  0.00    -0.365 OA
ATOM     25  H6    I A   1      10.808   2.326  24.557  0.00  0.00    +0.212 HD
ENDBRANCH   7  24
TORSDOF 6
ENDMDL
MODEL 3
REMARK VINA RESULT:      -6.2      2.706      6.164
REMARK  Name = 
REMARK  6 active torsions:
REMARK  status: ('A' for Active; 'I' for Inactive)
REMARK    1  A    between atoms: O5*_1  and  C5*_2
REMARK    2  A    between atoms: C5*_2  and  C4*_3
REMARK    3  A    between atoms: C1*_6  and  N9_14
REMARK    4  A    between atoms: C2*_8  and  O2*_10
REMARK    5  A    between atoms: C3*_11  and  O3*_13
REMARK    6  A    between atoms: C6_23  and  O6_25
REMARK                            x       y       z     vdW  Elec       q    Type
REMARK                         _______ _______ _______ _____ _____    ______ ____
ROOT
ATOM      1  N9    I A   1       8.718  -2.428  24.757  0.00  0.00    -0.244 N 
ATOM      2  C4    I A   1       7.721  -2.920  25.575  0.00  0.00    +0.214 A 
ATOM      3  N3    I A   1       6.703  -2.240  26.158  0.00  0.00    -0.217 NA
ATOM      4  C2    I A   1       6.060  -2.994  26.999  0.00  0.00    +0.186 C 
ATOM      5  N1    I A   1       6.299  -4.311  27.346  0.00  0.00    -0.302 N 
ATOM      6  H1    I A   1       5.568  -4.811  27.848  0.00  0.00    +0.150 HD
ATOM      7  C6    I A   1       7.177  -5.149  26.571  0.00  0.00    +0.303 C 
ATOM      8  C5    I A   1       7.980  -4.268  25.707  0.00  0.00    +0.274 A 
ATOM      9  N7    I A   1       9.093  -4.551  24.943  0.00  0.00    -0.193 N 
ATOM     10  H7    I A   1       9.534  -5.464  24.852  0.00  0.00    +0.454 HD
ATOM     11  C8    I A   1       9.520  -3.429  24.363  0.00  0.00    +0.410 A 
ENDROOT
BRANCH   1  15
ATOM     12  C4*   I A   1      10.280   0.144  22.868  0.00  0.00    +0.177 C 
ATOM     13  C3*   I A   1      10.369   0.823  24.237  0.00  0.00    +0.178 C 
ATOM     14  C2*   I A   1       9.518  -0.034  25.179  0.00  0.00    +0.195 C 
ATOM     15  C1*   I A   1       8.884  -1.071  24.247  0.00  0.00    +0.257 C 
ATOM     16  O4*   I A   1       9.776  -1.185  23.126  0.00  0.00    -0.346 OA
BRANCH  13  17
ATOM     17  O3*   I A   1      11.735   0.813  24.690  0.00  0.00    -0.386 OA
ATOM     18  H3*   I A   1      11.764   0.988  25.646  0.00  0.00    +0.210 HD
ENDBRANCH  13  17
BRANCH  14  19
ATOM     19  O2*   I A   1       8.546   0.764  25.857  0.00  0.00    -0.385 OA
ATOM     20  H2*   I A   1       8.257   1.461  25.239  0.00  0.00    +0.210 HD
ENDBRANCH  14  19
BRANCH  12  21
ATOM     21  C5*   I A   1       9.342   0.853  21.879  0.00  0.00    +0.190 C 
BRANCH  21  22
ATOM     22  O5*   I A   1       9.876   2.114  21.490  0.00  0.00    -0.392 OA
ATOM     23  H5*   I A   1       9.297   2.468  20.789  0.00  0.00    +0.210 HD
ENDBRANCH  21  22
ENDBRANCH  12  21
ENDBRANCH   1  15
BRANCH   7  24
ATOM     24  O6    I A   1       8.023  -5.840  27.459  0.00  0.00    -0.365 OA
ATOM     25  H6    I A   1       8.661  -6.308  26.892  0.00  0.00    +0.212 HD
ENDBRANCH   7  24
TORSDOF 6
ENDMDL
MODEL 4
REMARK VINA RESULT:      -6.1      2.208      2.786
REMARK  Name = 
REMARK  6 active torsions:
REMARK  status: ('A' for Active; 'I' for Inactive)
REMARK    1  A    between atoms: O5*_1  and  C5*_2
REMARK    2  A    between atoms: C5*_2  and  C4*_3
REMARK    3  A    between atoms: C1*_6  and  N9_14
REMARK    4  A    between atoms: C2*_8  and  O2*_10
REMARK    5  A    between atoms: C3*_11  and  O3*_13
REMARK    6  A    between atoms: C6_23  and  O6_25
REMARK                            x       y       z     vdW  Elec       q    Type
REMARK                         _______ _______ _______ _____ _____    ______ ____
ROOT
ATOM      1  N9    I A   1       7.905  -0.681  23.957  0.00  0.00    -0.244 N 
ATOM      2  C4    I A   1       8.524   0.187  23.080  0.00  0.00    +0.214 A 
ATOM      3  N3    I A   1       9.850   0.328  22.837  0.00  0.00    -0.217 NA
ATOM      4  C2    I A   1      10.079   1.360  22.080  0.00  0.00    +0.186 C 
ATOM      5  N1    I A   1       9.180   2.269  21.554  0.00  0.00    -0.302 N 
ATOM      6  H1    I A   1       9.502   2.878  20.806  0.00  0.00    +0.150 HD
ATOM      7  C6    I A   1       7.762   2.015  21.553  0.00  0.00    +0.303 C 
ATOM      8  C5    I A   1       7.508   0.919  22.502  0.00  0.00    +0.274 A 
ATOM      9  N7    I A   1       6.318   0.450  23.016  0.00  0.00    -0.193 N 
ATOM     10  H7    I A   1       5.392   0.806  22.788  0.00  0.00    +0.454 HD
ATOM     11  C8    I A   1       6.574  -0.529  23.886  0.00  0.00    +0.410 A 
ENDROOT
BRANCH   1  15
ATOM     12  C4*   I A   1       8.342  -3.987  25.181  0.00  0.00    +0.177 C 
ATOM     13  C3*   I A   1       8.055  -3.315  26.527  0.00  0.00    +0.178 C 
ATOM     14  C2*   I A   1       8.074  -1.809  26.248  0.00  0.00    +0.195 C 
ATOM     15  C1*   I A   1       8.511  -1.721  24.783  0.00  0.00    +0.257 C 
ATOM     16  O4*   I A   1       8.121  -2.967  24.183  0.00  0.00    -0.346 OA
BRANCH  13  17
ATOM     17  O3*   I A   1       6.746  -3.697  26.985  0.00  0.00    -0.386 OA
ATOM     18  H3*   I A   1       6.827  -4.351  27.702  0.00  0.00    +0.210 HD
ENDBRANCH  13  17
BRANCH  14  19
ATOM     19  O2*   I A   1       8.973  -1.137  27.132  0.00  0.00    -0.385 OA
ATOM     20  H2*   I A   1       8.695  -1.342  28.044  0.00  0.00    +0.210 HD
ENDBRANCH  14  19
BRANCH  12  21
ATOM     21  C5*   I A   1       9.775  -4.522  25.044  0.00  0.00    +0.190 C 
BRANCH  21  22
ATOM     22  O5*   I A   1       9.803  -5.938  25.184  0.00  0.00    -0.392 OA
ATOM     23  H5*   I A   1       8.980  -6.199  25.639  0.00  0.00    +0.210 HD
ENDBRANCH  21  22
ENDBRANCH  12  21
ENDBRANCH   1  15
BRANCH   7  24
ATOM     24  O6    I A   1       7.106   3.181  21.990  0.00  0.00    -0.365 OA
ATOM     25  H6    I A   1       7.157   3.799  21.240  0.00  0.00    +0.212 HD
ENDBRANCH   7  24
TORSDOF 6
ENDMDL
MODEL 5
REMARK VINA RESULT:      -6.1      1.840      3.029
REMARK  Name = 
REMARK  6 active torsions:
REMARK  status: ('A' for Active; 'I' for Inactive)
REMARK    1  A    between atoms: O5*_1  and  C5*_2
REMARK    2  A    between atoms: C5*_2  and  C4*_3
REMARK    3  A    between atoms: C1*_6  and  N9_14
REMARK    4  A    between atoms: C2*_8  and  O2*_10
REMARK    5  A    between atoms: C3*_11  and  O3*_13
REMARK    6  A    between atoms: C6_23  and  O6_25
REMARK                            x       y       z     vdW  Elec       q    Type
REMARK                         _______ _______ _______ _____ _____    ______ ____
ROOT
ATOM      1  N9    I A   1       7.532  -1.509  23.118  0.00  0.00    -0.244 N 
ATOM      2  C4    I A   1       8.157  -0.448  22.497  0.00  0.00    +0.214 A 
ATOM      3  N3    I A   1       9.323  -0.450  21.804  0.00  0.00    -0.217 NA
ATOM      4  C2    I A   1       9.694   0.760  21.510  0.00  0.00    +0.186 C 
ATOM      5  N1    I A   1       9.079   1.958  21.822  0.00  0.00    -0.302 N 
ATOM      6  H1    I A   1       9.383   2.792  21.325  0.00  0.00    +0.150 HD
ATOM      7  C6    I A   1       7.724   2.009  22.307  0.00  0.00    +0.303 C 
ATOM      8  C5    I A   1       7.360   0.650  22.744  0.00  0.00    +0.274 A 
ATOM      9  N7    I A   1       6.271   0.214  23.467  0.00  0.00    -0.193 N 
ATOM     10  H7    I A   1       5.513   0.801  23.810  0.00  0.00    +0.454 HD
ATOM     11  C8    I A   1       6.382  -1.099  23.674  0.00  0.00    +0.410 A 
ENDROOT
BRANCH   1  15
ATOM     12  C4*   I A   1       7.022  -5.000  23.537  0.00  0.00    +0.177 C 
ATOM     13  C3*   I A   1       8.180  -4.850  24.527  0.00  0.00    +0.178 C 
ATOM     14  C2*   I A   1       8.721  -3.432  24.317  0.00  0.00    +0.195 C 
ATOM     15  C1*   I A   1       7.919  -2.916  23.118  0.00  0.00    +0.257 C 
ATOM     16  O4*   I A   1       6.688  -3.658  23.123  0.00  0.00    -0.346 OA
BRANCH  13  17
ATOM     17  O3*   I A   1       7.683  -4.974  25.871  0.00  0.00    -0.386 OA
ATOM     18  H3*   I A   1       8.413  -5.211  26.470  0.00  0.00    +0.210 HD
ENDBRANCH  13  17
BRANCH  14  19
ATOM     19  O2*   I A   1      10.128  -3.452  24.071  0.00  0.00    -0.385 OA
ATOM     20  H2*   I A   1      10.424  -4.380  24.139  0.00  0.00    +0.210 HD
ENDBRANCH  14  19
BRANCH  12  21
ATOM     21  C5*   I A   1       7.366  -5.837  22.296  0.00  0.00    +0.190 C 
BRANCH  21  22
ATOM     22  O5*   I A   1       6.295  -6.714  21.963  0.00  0.00    -0.392 OA
ATOM     23  H5*   I A   1       6.333  -7.465  22.586  0.00  0.00    +0.210 HD
ENDBRANCH  21  22
ENDBRANCH  12  21
ENDBRANCH   1  15
BRANCH   7  24
ATOM     24  O6    I A   1       7.683   2.885  23.407  0.00  0.00    -0.365 OA
ATOM     25  H6    I A   1       7.828   3.772  23.033  0.00  0.00    +0.212 HD
ENDBRANCH   7  24
TORSDOF 6
ENDMDL
MODEL 6
REMARK VINA RESULT:      -5.9      2.617      6.173
REMARK  Name = 
REMARK  6 active torsions:
REMARK  status: ('A' for Active; 'I' for Inactive)
REMARK    1  A    between atoms: O5*_1  and  C5*_2
REMARK    2  A    between atoms: C5*_2  and  C4*_3
REMARK    3  A    between atoms: C1*_6  and  N9_14
REMARK    4  A    between atoms: C2*_8  and  O2*_10
REMARK    5  A    between atoms: C3*_11  and  O3*_13
REMARK    6  A    between atoms: C6_23  and  O6_25
REMARK                            x       y       z     vdW  Elec       q    Type
REMARK                         _______ _______ _______ _____ _____    ______ ____
ROOT
ATOM      1  N9    I A   1       7.880  -2.059  25.333  0.00  0.00    -0.244 N 
ATOM      2  C4    I A   1       8.387  -3.322  25.566  0.00  0.00    +0.214 A 
ATOM      3  N3    I A   1       9.440  -3.927  24.963  0.00  0.00    -0.217 NA
ATOM      4  C2    I A   1       9.521  -5.177  25.310  0.00  0.00    +0.186 C 
ATOM      5  N1    I A   1       8.697  -5.901  26.150  0.00  0.00    -0.302 N 
ATOM      6  H1    I A   1       9.032  -6.802  26.485  0.00  0.00    +0.150 HD
ATOM      7  C6    I A   1       7.744  -5.255  27.016  0.00  0.00    +0.303 C 
ATOM      8  C5    I A   1       7.578  -3.873  26.537  0.00  0.00    +0.274 A 
ATOM      9  N7    I A   1       6.642  -2.922  26.883  0.00  0.00    -0.193 N 
ATOM     10  H7    I A   1       5.898  -3.043  27.567  0.00  0.00    +0.454 HD
ATOM     11  C8    I A   1       6.846  -1.824  26.154  0.00  0.00    +0.410 A 
ENDROOT
BRANCH   1  15
ATOM     12  C4*   I A   1       8.572  -0.555  22.189  0.00  0.00    +0.177 C 
ATOM     13  C3*   I A   1      10.012  -0.595  22.710  0.00  0.00    +0.178 C 
ATOM     14  C2*   I A   1       9.906  -0.999  24.184  0.00  0.00    +0.195 C 
ATOM     15  C1*   I A   1       8.397  -1.025  24.441  0.00  0.00    +0.257 C 
ATOM     16  O4*   I A   1       7.787  -1.274  23.164  0.00  0.00    -0.346 OA
BRANCH  13  17
ATOM     17  O3*   I A   1      10.754  -1.598  21.994  0.00  0.00    -0.386 OA
ATOM     18  H3*   I A   1      10.866  -2.385  22.555  0.00  0.00    +0.210 HD
ENDBRANCH  13  17
BRANCH  14  19
ATOM     19  O2*   I A   1      10.591  -0.064  25.020  0.00  0.00    -0.385 OA
ATOM     20  H2*   I A   1      11.548  -0.216  24.907  0.00  0.00    +0.210 HD
ENDBRANCH  14  19
BRANCH  12  21
ATOM     21  C5*   I A   1       8.004   0.863  22.035  0.00  0.00    +0.190 C 
BRANCH  21  22
ATOM     22  O5*   I A   1       8.696   1.579  21.017  0.00  0.00    -0.392 OA
ATOM     23  H5*   I A   1       8.031   2.099  20.528  0.00  0.00    +0.210 HD
ENDBRANCH  21  22
ENDBRANCH  12  21
ENDBRANCH   1  15
BRANCH   7  24
ATOM     24  O6    I A   1       6.520  -5.942  26.913  0.00  0.00    -0.365 OA
ATOM     25  H6    I A   1       6.740  -6.797  26.505  0.00  0.00    +0.212 HD
ENDBRANCH   7  24
TORSDOF 6
ENDMDL
MODEL 7
REMARK VINA RESULT:      -5.9      2.203      6.318
REMARK  Name = 
REMARK  6 active torsions:
REMARK  status: ('A' for Active; 'I' for Inactive)
REMARK    1  A    between atoms: O5*_1  and  C5*_2
REMARK    2  A    between atoms: C5*_2  and  C4*_3
REMARK    3  A    between atoms: C1*_6  and  N9_14
REMARK    4  A    between atoms: C2*_8  and  O2*_10
REMARK    5  A    between atoms: C3*_11  and  O3*_13
REMARK    6  A    between atoms: C6_23  and  O6_25
REMARK                            x       y       z     vdW  Elec       q    Type
REMARK                         _______ _______ _______ _____ _____    ______ ____
ROOT
ATOM      1  N9    I A   1       8.597  -1.155  23.780  0.00  0.00    -0.244 N 
ATOM      2  C4    I A   1       7.715  -2.217  23.785  0.00  0.00    +0.214 A 
ATOM      3  N3    I A   1       6.364  -2.185  23.678  0.00  0.00    -0.217 NA
ATOM      4  C2    I A   1       5.851  -3.359  23.897  0.00  0.00    +0.186 C 
ATOM      5  N1    I A   1       6.491  -4.541  24.221  0.00  0.00    -0.302 N 
ATOM      6  H1    I A   1       5.962  -5.406  24.137  0.00  0.00    +0.150 HD
ATOM      7  C6    I A   1       7.916  -4.692  24.081  0.00  0.00    +0.303 C 
ATOM      8  C5    I A   1       8.493  -3.344  23.950  0.00  0.00    +0.274 A 
ATOM      9  N7    I A   1       9.808  -2.934  24.002  0.00  0.00    -0.193 N 
ATOM     10  H7    I A   1      10.614  -3.542  24.132  0.00  0.00    +0.454 HD
ATOM     11  C8    I A   1       9.855  -1.606  23.883  0.00  0.00    +0.410 A 
ENDROOT
BRANCH   1  15
ATOM     12  C4*   I A   1       7.906   1.758  21.867  0.00  0.00    +0.177 C 
ATOM     13  C3*   I A   1       9.155   2.283  22.581  0.00  0.00    +0.178 C 
ATOM     14  C2*   I A   1       9.481   1.244  23.658  0.00  0.00    +0.195 C 
ATOM     15  C1*   I A   1       8.309   0.262  23.576  0.00  0.00    +0.257 C 
ATOM     16  O4*   I A   1       7.805   0.365  22.234  0.00  0.00    -0.346 OA
BRANCH  13  17
ATOM     17  O3*   I A   1      10.246   2.358  21.648  0.00  0.00    -0.386 OA
ATOM     18  H3*   I A   1      10.993   1.826  21.972  0.00  0.00    +0.210 HD
ENDBRANCH  13  17
BRANCH  14  19
ATOM     19  O2*   I A   1       9.596   1.858  24.943  0.00  0.00    -0.385 OA
ATOM     20  H2*   I A   1       8.773   1.669  25.433  0.00  0.00    +0.210 HD
ENDBRANCH  14  19
BRANCH  12  21
ATOM     21  C5*   I A   1       6.610   2.478  22.267  0.00  0.00    +0.190 C 
BRANCH  21  22
ATOM     22  O5*   I A   1       6.592   3.808  21.761  0.00  0.00    -0.392 OA
ATOM     23  H5*   I A   1       7.516   4.058  21.573  0.00  0.00    +0.210 HD
ENDBRANCH  21  22
ENDBRANCH  12  21
ENDBRANCH   1  15
BRANCH   7  24
ATOM     24  O6    I A   1       8.410  -5.306  25.247  0.00  0.00    -0.365 OA
ATOM     25  H6    I A   1       7.971  -4.846  25.984  0.00  0.00    +0.212 HD
ENDBRANCH   7  24
TORSDOF 6
ENDMDL
MODEL 8
REMARK VINA RESULT:      -5.9      1.758      1.969
REMARK  Name = 
REMARK  6 active torsions:
REMARK  status: ('A' for Active; 'I' for Inactive)
REMARK    1  A    between atoms: O5*_1  and  C5*_2
REMARK    2  A    between atoms: C5*_2  and  C4*_3
REMARK    3  A    between atoms: C1*_6  and  N9_14
REMARK    4  A    between atoms: C2*_8  and  O2*_10
REMARK    5  A    between atoms: C3*_11  and  O3*_13
REMARK    6  A    between atoms: C6_23  and  O6_25
REMARK                            x       y       z     vdW  Elec       q    Type
REMARK                         _______ _______ _______ _____ _____    ______ ____
ROOT
ATOM      1  N9    I A   1       8.280  -2.115  23.095  0.00  0.00    -0.244 N 
ATOM      2  C4    I A   1       8.900  -1.336  24.050  0.00  0.00    +0.214 A 
ATOM      3  N3    I A   1       8.648  -1.282  25.381  0.00  0.00    -0.217 NA
ATOM      4  C2    I A   1       9.305  -0.310  25.941  0.00  0.00    +0.186 C 
ATOM      5  N1    I A   1      10.153   0.614  25.361  0.00  0.00    -0.302 N 
ATOM      6  H1    I A   1      10.752   1.161  25.976  0.00  0.00    +0.150 HD
ATOM      7  C6    I A   1      10.663   0.439  24.026  0.00  0.00    +0.303 C 
ATOM      8  C5    I A   1       9.834  -0.584  23.367  0.00  0.00    +0.274 A 
ATOM      9  N7    I A   1       9.773  -0.956  22.041  0.00  0.00    -0.193 N 
ATOM     10  H7    I A   1      10.335  -0.564  21.288  0.00  0.00    +0.454 HD
ATOM     11  C8    I A   1       8.837  -1.895  21.894  0.00  0.00    +0.410 A 
ENDROOT
BRANCH   1  15
ATOM     12  C4*   I A   1       7.063  -5.381  23.784  0.00  0.00    +0.177 C 
ATOM     13  C3*   I A   1       6.410  -5.213  22.409  0.00  0.00    +0.178 C 
ATOM     14  C2*   I A   1       6.617  -3.743  22.031  0.00  0.00    +0.195 C 
ATOM     15  C1*   I A   1       7.255  -3.137  23.284  0.00  0.00    +0.257 C 
ATOM     16  O4*   I A   1       7.912  -4.225  23.954  0.00  0.00    -0.346 OA
BRANCH  13  17
ATOM     17  O3*   I A   1       7.083  -6.050  21.451  0.00  0.00    -0.386 OA
ATOM     18  H3*   I A   1       7.503  -5.496  20.770  0.00  0.00    +0.210 HD
ENDBRANCH  13  17
BRANCH  14  19
ATOM     19  O2*   I A   1       5.375  -3.124  21.690  0.00  0.00    -0.385 OA
ATOM     20  H2*   I A   1       4.947  -2.849  22.523  0.00  0.00    +0.210 HD
ENDBRANCH  14  19
BRANCH  12  21
ATOM     21  C5*   I A   1       6.063  -5.445  24.947  0.00  0.00    +0.190 C 
BRANCH  21  22
ATOM     22  O5*   I A   1       6.691  -5.926  26.130  0.00  0.00    -0.392 OA
ATOM     23  H5*   I A   1       6.813  -6.888  26.021  0.00  0.00    +0.210 HD
ENDBRANCH  21  22
ENDBRANCH  12  21
ENDBRANCH   1  15
BRANCH   7  24
ATOM     24  O6    I A   1      10.536   1.663  23.342  0.00  0.00    -0.365 OA
ATOM     25  H6    I A   1      10.291   2.312  24.024  0.00  0.00    +0.212 HD
ENDBRANCH   7  24
TORSDOF 6
ENDMDL
MODEL 9
REMARK VINA RESULT:      -5.9      3.022      6.167
REMARK  Name = 
REMARK  6 active torsions:
REMARK  status: ('A' for Active; 'I' for Inactive)
REMARK    1  A    between atoms: O5*_1  and  C5*_2
REMARK    2  A    between atoms: C5*_2  and  C4*_3
REMARK    3  A    between atoms: C1*_6  and  N9_14
REMARK    4  A    between atoms: C2*_8  and  O2*_10
REMARK    5  A    between atoms: C3*_11  and  O3*_13
REMARK    6  A    between atoms: C6_23  and  O6_25
REMARK                            x       y       z     vdW  Elec       q    Type
REMARK                         _______ _______ _______ _____ _____    ______ ____
ROOT
ATOM      1  N9    I A   1       7.154  -1.945  23.556  0.00  0.00    -0.244 N 
ATOM      2  C4    I A   1       6.966  -3.258  23.177  0.00  0.00    +0.214 A 
ATOM      3  N3    I A   1       7.811  -4.061  22.485  0.00  0.00    -0.217 NA
ATOM      4  C2    I A   1       7.232  -5.178  22.158  0.00  0.00    +0.186 C 
ATOM      5  N1    I A   1       5.938  -5.592  22.409  0.00  0.00    -0.302 N 
ATOM      6  H1    I A   1       5.721  -6.578  22.280  0.00  0.00    +0.150 HD
ATOM      7  C6    I A   1       5.097  -4.911  23.360  0.00  0.00    +0.303 C 
ATOM      8  C5    I A   1       5.708  -3.599  23.630  0.00  0.00    +0.274 A 
ATOM      9  N7    I A   1       5.198  -2.503  24.292  0.00  0.00    -0.193 N 
ATOM     10  H7    I A   1       4.278  -2.447  24.725  0.00  0.00    +0.454 HD
ATOM     11  C8    I A   1       6.090  -1.514  24.251  0.00  0.00    +0.410 A 
ENDROOT
BRANCH   1  15
ATOM     12  C4*   I A   1       8.951   1.113  23.351  0.00  0.00    +0.177 C 
ATOM     13  C3*   I A   1       9.330   0.569  21.971  0.00  0.00    +0.178 C 
ATOM     14  C2*   I A   1       8.842  -0.883  21.952  0.00  0.00    +0.195 C 
ATOM     15  C1*   I A   1       8.339  -1.111  23.380  0.00  0.00    +0.257 C 
ATOM     16  O4*   I A   1       7.978   0.186  23.880  0.00  0.00    -0.346 OA
BRANCH  13  17
ATOM     17  O3*   I A   1       8.640   1.316  20.954  0.00  0.00    -0.386 OA
ATOM     18  H3*   I A   1       7.948   1.864  21.363  0.00  0.00    +0.210 HD
ENDBRANCH  13  17
BRANCH  14  19
ATOM     19  O2*   I A   1       9.899  -1.773  21.591  0.00  0.00    -0.385 OA
ATOM     20  H2*   I A   1      10.731  -1.265  21.615  0.00  0.00    +0.210 HD
ENDBRANCH  14  19
BRANCH  12  21
ATOM     21  C5*   I A   1      10.132   1.212  24.329  0.00  0.00    +0.190 C 
BRANCH  21  22
ATOM     22  O5*   I A   1      11.069   2.191  23.893  0.00  0.00    -0.392 OA
ATOM     23  H5*   I A   1      11.625   1.773  23.208  0.00  0.00    +0.210 HD
ENDBRANCH  21  22
ENDBRANCH  12  21
ENDBRANCH   1  15
BRANCH   7  24
ATOM     24  O6    I A   1       3.830  -4.731  22.775  0.00  0.00    -0.365 OA
ATOM     25  H6    I A   1       3.982  -4.155  22.006  0.00  0.00    +0.212 HD
ENDBRANCH   7  24
TORSDOF 6
ENDMDL
