MODEL 1
REMARK VINA RESULT:      -6.7      0.000      0.000
REMARK  Name = 
REMARK  3 active torsions:
REMARK  status: ('A' for Active; 'I' for Inactive)
REMARK    1  A    between atoms: O_1  and  C_2
REMARK    2  A    between atoms: C_2  and  CA_4
REMARK    3  A    between atoms: C_6  and  C_7
REMARK                            x       y       z     vdW  Elec       q    Type
REMARK                         _______ _______ _______ _____ _____    ______ ____
ROOT
ATOM      1  CA  UNL     1       8.963  -3.569  25.160  0.00  0.00    +0.299 C 
ATOM      2  C   UNL     1       8.334  -3.959  23.833  0.00  0.00    +0.253 C 
ATOM      3  O   UNL     1       7.880  -5.073  23.578  0.00  0.00    -0.273 OA
ATOM      4  N   UNL     1       8.335  -3.016  22.834  0.00  0.00    -0.283 N 
ATOM      5  H   UNL     1       8.114  -3.412  21.926  0.00  0.00    +0.155 HD
ATOM      6  C   UNL     1       8.764  -1.686  22.919  0.00  0.00    +0.043 A 
ATOM      7  C   UNL     1       9.217  -1.108  21.724  0.00  0.00    +0.025 A 
ATOM      8  C   UNL     1       9.735   0.189  21.713  0.00  0.00    +0.022 A 
ATOM      9  C   UNL     1       9.800   0.914  22.898  0.00  0.00    +0.042 A 
ATOM     10  C   UNL     1       9.316   0.371  24.087  0.00  0.00    +0.032 A 
ATOM     11 CL   UNL     1      10.440   2.510  22.885  0.00  0.00    -0.084 Cl
ATOM     12  C   UNL     1       8.754  -0.916  24.095  0.00  0.00    +0.023 A 
ATOM     13  C   UNL     1       8.032  -1.370  25.329  0.00  0.00    +0.076 C 
ATOM     14  N   UNL     1       8.107  -2.558  25.836  0.00  0.00    -0.259 NA
ENDROOT
BRANCH  13  15
ATOM     15  C   UNL     1       7.113  -0.400  26.027  0.00  0.00    +0.001 A 
ATOM     16  C   UNL     1       7.438   0.148  27.276  0.00  0.00    +0.010 A 
ATOM     17  C   UNL     1       6.589   1.080  27.878  0.00  0.00    +0.001 A 
ATOM     18  C   UNL     1       5.426   1.489  27.229  0.00  0.00    +0.000 A 
ATOM     19  C   UNL     1       5.102   0.958  25.981  0.00  0.00    +0.001 A 
ATOM     20  C   UNL     1       5.941   0.016  25.382  0.00  0.00    +0.010 A 
ENDBRANCH  13  15
BRANCH   1  21
ATOM     21  C   UNL     1       9.099  -4.756  26.110  0.00  0.00    +0.339 C 
ATOM     22  OXT UNL     1       8.418  -4.951  27.105  0.00  0.00    -0.248 OA
BRANCH  21  23
ATOM     23  O   UNL     1      10.039  -5.646  25.679  0.00  0.00    -0.479 OA
ATOM     24  H   UNL     1      10.442  -6.033  26.495  0.00  0.00    +0.295 HD
ENDBRANCH  21  23
ENDBRANCH   1  21
TORSDOF 3
ENDMDL
MODEL 2
REMARK VINA RESULT:      -6.6      0.651      1.213
REMARK  Name = 
REMARK  3 active torsions:
REMARK  status: ('A' for Active; 'I' for Inactive)
REMARK    1  A    between atoms: O_1  and  C_2
REMARK    2  A    between atoms: C_2  and  CA_4
REMARK    3  A    between atoms: C_6  and  C_7
REMARK                            x       y       z     vdW  Elec       q    Type
REMARK                         _______ _______ _______ _____ _____    ______ ____
ROOT
ATOM      1  CA  UNL     1       8.925  -3.346  24.587  0.00  0.00    +0.299 C 
ATOM      2  C   UNL     1       8.258  -3.451  23.226  0.00  0.00    +0.253 C 
ATOM      3  O   UNL     1       7.728  -4.470  22.787  0.00  0.00    -0.273 OA
ATOM      4  N   UNL     1       8.312  -2.347  22.411  0.00  0.00    -0.283 N 
ATOM      5  H   UNL     1       8.056  -2.559  21.452  0.00  0.00    +0.155 HD
ATOM      6  C   UNL     1       8.829  -1.083  22.721  0.00  0.00    +0.043 A 
ATOM      7  C   UNL     1       9.307  -0.331  21.638  0.00  0.00    +0.025 A 
ATOM      8  C   UNL     1       9.910   0.911  21.846  0.00  0.00    +0.022 A 
ATOM      9  C   UNL     1      10.036   1.407  23.139  0.00  0.00    +0.042 A 
ATOM     10  C   UNL     1       9.529   0.692  24.223  0.00  0.00    +0.032 A 
ATOM     11 CL   UNL     1      10.780   2.935  23.396  0.00  0.00    -0.084 Cl
ATOM     12  C   UNL     1       8.883  -0.537  24.015  0.00  0.00    +0.023 A 
ATOM     13  C   UNL     1       8.145  -1.157  25.165  0.00  0.00    +0.076 C 
ATOM     14  N   UNL     1       8.145  -2.419  25.450  0.00  0.00    -0.259 NA
ENDROOT
BRANCH  13  15
ATOM     15  C   UNL     1       7.300  -0.271  26.044  0.00  0.00    +0.001 A 
ATOM     16  C   UNL     1       6.080   0.256  25.597  0.00  0.00    +0.010 A 
ATOM     17  C   UNL     1       5.296   1.037  26.449  0.00  0.00    +0.001 A 
ATOM     18  C   UNL     1       5.710   1.275  27.758  0.00  0.00    +0.000 A 
ATOM     19  C   UNL     1       6.915   0.744  28.215  0.00  0.00    +0.001 A 
ATOM     20  C   UNL     1       7.709  -0.025  27.362  0.00  0.00    +0.010 A 
ENDBRANCH  13  15
BRANCH   1  21
ATOM     21  C   UNL     1       8.992  -4.689  25.308  0.00  0.00    +0.339 C 
ATOM     22  OXT UNL     1       8.340  -5.000  26.293  0.00  0.00    -0.248 OA
BRANCH  21  23
ATOM     23  O   UNL     1       9.825  -5.565  24.674  0.00  0.00    -0.479 OA
ATOM     24  H   UNL     1       9.535  -5.584  23.730  0.00  0.00    +0.295 HD
ENDBRANCH  21  23
ENDBRANCH   1  21
TORSDOF 3
ENDMDL
MODEL 3
REMARK VINA RESULT:      -6.1      5.602      7.529
REMARK  Name = 
REMARK  3 active torsions:
REMARK  status: ('A' for Active; 'I' for Inactive)
REMARK    1  A    between atoms: O_1  and  C_2
REMARK    2  A    between atoms: C_2  and  CA_4
REMARK    3  A    between atoms: C_6  and  C_7
REMARK                            x       y       z     vdW  Elec       q    Type
REMARK                         _______ _______ _______ _____ _____    ______ ____
ROOT
ATOM      1  CA  UNL     1       6.977   4.749  23.208  0.00  0.00    +0.299 C 
ATOM      2  C   UNL     1       6.957   5.286  24.629  0.00  0.00    +0.253 C 
ATOM      3  O   UNL     1       5.936   5.484  25.284  0.00  0.00    -0.273 OA
ATOM      4  N   UNL     1       8.163   5.630  25.190  0.00  0.00    -0.283 N 
ATOM      5  H   UNL     1       8.055   6.184  26.033  0.00  0.00    +0.155 HD
ATOM      6  C   UNL     1       9.439   5.454  24.641  0.00  0.00    +0.043 A 
ATOM      7  C   UNL     1      10.424   6.355  25.072  0.00  0.00    +0.025 A 
ATOM      8  C   UNL     1      11.711   6.314  24.532  0.00  0.00    +0.022 A 
ATOM      9  C   UNL     1      12.018   5.370  23.558  0.00  0.00    +0.042 A 
ATOM     10  C   UNL     1      11.065   4.440  23.148  0.00  0.00    +0.032 A 
ATOM     11 CL   UNL     1      13.602   5.320  22.891  0.00  0.00    -0.084 Cl
ATOM     12  C   UNL     1       9.782   4.449  23.720  0.00  0.00    +0.023 A 
ATOM     13  C   UNL     1       8.867   3.296  23.433  0.00  0.00    +0.076 C 
ATOM     14  N   UNL     1       7.599   3.398  23.197  0.00  0.00    -0.259 NA
ENDROOT
BRANCH  13  15
ATOM     15  C   UNL     1       9.434   1.899  23.457  0.00  0.00    +0.001 A 
ATOM     16  C   UNL     1       9.765   1.263  24.662  0.00  0.00    +0.010 A 
ATOM     17  C   UNL     1      10.245  -0.048  24.657  0.00  0.00    +0.001 A 
ATOM     18  C   UNL     1      10.375  -0.741  23.455  0.00  0.00    +0.000 A 
ATOM     19  C   UNL     1      10.036  -0.121  22.253  0.00  0.00    +0.001 A 
ATOM     20  C   UNL     1       9.568   1.195  22.253  0.00  0.00    +0.010 A 
ENDBRANCH  13  15
BRANCH   1  21
ATOM     21  C   UNL     1       5.577   4.610  22.618  0.00  0.00    +0.339 C 
ATOM     22  OXT UNL     1       4.962   3.562  22.488  0.00  0.00    -0.248 OA
BRANCH  21  23
ATOM     23  O   UNL     1       5.031   5.822  22.311  0.00  0.00    -0.479 OA
ATOM     24  H   UNL     1       4.515   5.686  21.480  0.00  0.00    +0.295 HD
ENDBRANCH  21  23
ENDBRANCH   1  21
TORSDOF 3
ENDMDL
MODEL 4
REMARK VINA RESULT:      -6.0      3.846      6.282
REMARK  Name = 
REMARK  3 active torsions:
REMARK  status: ('A' for Active; 'I' for Inactive)
REMARK    1  A    between atoms: O_1  and  C_2
REMARK    2  A    between atoms: C_2  and  CA_4
REMARK    3  A    between atoms: C_6  and  C_7
REMARK                            x       y       z     vdW  Elec       q    Type
REMARK                         _______ _______ _______ _____ _____    ______ ____
ROOT
ATOM      1  CA  UNL     1       8.258   0.006  23.205  0.00  0.00    +0.299 C 
ATOM      2  C   UNL     1       6.952   0.778  23.110  0.00  0.00    +0.253 C 
ATOM      3  O   UNL     1       6.774   1.760  22.392  0.00  0.00    -0.273 OA
ATOM      4  N   UNL     1       5.925   0.383  23.932  0.00  0.00    -0.283 N 
ATOM      5  H   UNL     1       5.181   1.070  23.981  0.00  0.00    +0.155 HD
ATOM      6  C   UNL     1       5.900  -0.721  24.793  0.00  0.00    +0.043 A 
ATOM      7  C   UNL     1       5.059  -0.611  25.910  0.00  0.00    +0.025 A 
ATOM      8  C   UNL     1       5.016  -1.624  26.870  0.00  0.00    +0.022 A 
ATOM      9  C   UNL     1       5.813  -2.753  26.715  0.00  0.00    +0.042 A 
ATOM     10  C   UNL     1       6.622  -2.899  25.590  0.00  0.00    +0.032 A 
ATOM     11 CL   UNL     1       5.761  -4.001  27.897  0.00  0.00    -0.084 Cl
ATOM     12  C   UNL     1       6.637  -1.902  24.601  0.00  0.00    +0.023 A 
ATOM     13  C   UNL     1       7.329  -2.198  23.303  0.00  0.00    +0.076 C 
ATOM     14  N   UNL     1       8.067  -1.361  22.650  0.00  0.00    -0.259 NA
ENDROOT
BRANCH  13  15
ATOM     15  C   UNL     1       7.132  -3.552  22.670  0.00  0.00    +0.001 A 
ATOM     16  C   UNL     1       7.851  -4.675  23.104  0.00  0.00    +0.010 A 
ATOM     17  C   UNL     1       7.614  -5.927  22.530  0.00  0.00    +0.001 A 
ATOM     18  C   UNL     1       6.644  -6.071  21.541  0.00  0.00    +0.000 A 
ATOM     19  C   UNL     1       5.915  -4.962  21.113  0.00  0.00    +0.001 A 
ATOM     20  C   UNL     1       6.159  -3.706  21.673  0.00  0.00    +0.010 A 
ENDBRANCH  13  15
BRANCH   1  21
ATOM     21  C   UNL     1       9.383   0.666  22.412  0.00  0.00    +0.339 C 
ATOM     22  OXT UNL     1      10.428   1.090  22.881  0.00  0.00    -0.248 OA
BRANCH  21  23
ATOM     23  O   UNL     1       9.129   0.664  21.071  0.00  0.00    -0.479 OA
ATOM     24  H   UNL     1       8.935   1.602  20.830  0.00  0.00    +0.295 HD
ENDBRANCH  21  23
ENDBRANCH   1  21
TORSDOF 3
ENDMDL
MODEL 5
REMARK VINA RESULT:      -5.9      2.576      4.863
REMARK  Name = 
REMARK  3 active torsions:
REMARK  status: ('A' for Active; 'I' for Inactive)
REMARK    1  A    between atoms: O_1  and  C_2
REMARK    2  A    between atoms: C_2  and  CA_4
REMARK    3  A    between atoms: C_6  and  C_7
REMARK                            x       y       z     vdW  Elec       q    Type
REMARK                         _______ _______ _______ _____ _____    ______ ____
ROOT
ATOM      1  CA  UNL     1       6.165  -2.629  23.023  0.00  0.00    +0.299 C 
ATOM      2  C   UNL     1       6.232  -3.249  24.409  0.00  0.00    +0.253 C 
ATOM      3  O   UNL     1       6.472  -4.435  24.630  0.00  0.00    -0.273 OA
ATOM      4  N   UNL     1       5.942  -2.438  25.478  0.00  0.00    -0.283 N 
ATOM      5  H   UNL     1       5.783  -2.962  26.332  0.00  0.00    +0.155 HD
ATOM      6  C   UNL     1       5.681  -1.062  25.457  0.00  0.00    +0.043 A 
ATOM      7  C   UNL     1       4.871  -0.573  26.492  0.00  0.00    +0.025 A 
ATOM      8  C   UNL     1       4.489   0.769  26.523  0.00  0.00    +0.022 A 
ATOM      9  C   UNL     1       4.919   1.630  25.519  0.00  0.00    +0.042 A 
ATOM     10  C   UNL     1       5.759   1.171  24.506  0.00  0.00    +0.032 A 
ATOM     11 CL   UNL     1       4.448   3.283  25.556  0.00  0.00    -0.084 Cl
ATOM     12  C   UNL     1       6.180  -0.168  24.494  0.00  0.00    +0.023 A 
ATOM     13  C   UNL     1       7.264  -0.565  23.536  0.00  0.00    +0.076 C 
ATOM     14  N   UNL     1       7.286  -1.666  22.857  0.00  0.00    -0.259 NA
ENDROOT
BRANCH  13  15
ATOM     15  C   UNL     1       8.449   0.352  23.364  0.00  0.00    +0.001 A 
ATOM     16  C   UNL     1       8.716   0.983  22.141  0.00  0.00    +0.010 A 
ATOM     17  C   UNL     1       9.794   1.864  22.025  0.00  0.00    +0.001 A 
ATOM     18  C   UNL     1      10.596   2.138  23.130  0.00  0.00    +0.000 A 
ATOM     19  C   UNL     1      10.331   1.524  24.353  0.00  0.00    +0.001 A 
ATOM     20  C   UNL     1       9.262   0.633  24.471  0.00  0.00    +0.010 A 
ENDBRANCH  13  15
BRANCH   1  21
ATOM     21  C   UNL     1       6.290  -3.668  21.913  0.00  0.00    +0.339 C 
ATOM     22  OXT UNL     1       5.554  -3.763  20.943  0.00  0.00    -0.248 OA
BRANCH  21  23
ATOM     23  O   UNL     1       7.390  -4.459  22.078  0.00  0.00    -0.479 OA
ATOM     24  H   UNL     1       7.482  -4.976  21.242  0.00  0.00    +0.295 HD
ENDBRANCH  21  23
ENDBRANCH   1  21
TORSDOF 3
ENDMDL
MODEL 6
REMARK VINA RESULT:      -5.9      4.152      5.571
REMARK  Name = 
REMARK  3 active torsions:
REMARK  status: ('A' for Active; 'I' for Inactive)
REMARK    1  A    between atoms: O_1  and  C_2
REMARK    2  A    between atoms: C_2  and  CA_4
REMARK    3  A    between atoms: C_6  and  C_7
REMARK                            x       y       z     vdW  Elec       q    Type
REMARK                         _______ _______ _______ _____ _____    ______ ____
ROOT
ATOM      1  CA  UNL     1       8.107  -2.390  24.872  0.00  0.00    +0.299 C 
ATOM      2  C   UNL     1       8.970  -3.456  24.218  0.00  0.00    +0.253 C 
ATOM      3  O   UNL     1      10.193  -3.392  24.110  0.00  0.00    -0.273 OA
ATOM      4  N   UNL     1       8.326  -4.531  23.656  0.00  0.00    -0.283 N 
ATOM      5  H   UNL     1       8.932  -5.073  23.049  0.00  0.00    +0.155 HD
ATOM      6  C   UNL     1       6.956  -4.819  23.694  0.00  0.00    +0.043 A 
ATOM      7  C   UNL     1       6.456  -5.578  22.627  0.00  0.00    +0.025 A 
ATOM      8  C   UNL     1       5.092  -5.858  22.531  0.00  0.00    +0.022 A 
ATOM      9  C   UNL     1       4.221  -5.382  23.505  0.00  0.00    +0.042 A 
ATOM     10  C   UNL     1       4.706  -4.662  24.596  0.00  0.00    +0.032 A 
ATOM     11 CL   UNL     1       2.541  -5.725  23.387  0.00  0.00    -0.084 Cl
ATOM     12  C   UNL     1       6.083  -4.414  24.719  0.00  0.00    +0.023 A 
ATOM     13  C   UNL     1       6.591  -3.851  26.013  0.00  0.00    +0.076 C 
ATOM     14  N   UNL     1       7.501  -2.937  26.116  0.00  0.00    -0.259 NA
ENDROOT
BRANCH  13  15
ATOM     15  C   UNL     1       6.047  -4.403  27.306  0.00  0.00    +0.001 A 
ATOM     16  C   UNL     1       5.039  -3.740  28.019  0.00  0.00    +0.010 A 
ATOM     17  C   UNL     1       4.521  -4.298  29.190  0.00  0.00    +0.001 A 
ATOM     18  C   UNL     1       4.987  -5.531  29.643  0.00  0.00    +0.000 A 
ATOM     19  C   UNL     1       5.981  -6.203  28.933  0.00  0.00    +0.001 A 
ATOM     20  C   UNL     1       6.511  -5.642  27.769  0.00  0.00    +0.010 A 
ENDBRANCH  13  15
BRANCH   1  21
ATOM     21  C   UNL     1       8.908  -1.152  25.264  0.00  0.00    +0.339 C 
ATOM     22  OXT UNL     1       9.068  -0.741  26.403  0.00  0.00    -0.248 OA
BRANCH  21  23
ATOM     23  O   UNL     1       9.512  -0.574  24.185  0.00  0.00    -0.479 OA
ATOM     24  H   UNL     1       8.937  -0.780  23.409  0.00  0.00    +0.295 HD
ENDBRANCH  21  23
ENDBRANCH   1  21
TORSDOF 3
ENDMDL
MODEL 7
REMARK VINA RESULT:      -5.9      3.988      5.825
REMARK  Name = 
REMARK  3 active torsions:
REMARK  status: ('A' for Active; 'I' for Inactive)
REMARK    1  A    between atoms: O_1  and  C_2
REMARK    2  A    between atoms: C_2  and  CA_4
REMARK    3  A    between atoms: C_6  and  C_7
REMARK                            x       y       z     vdW  Elec       q    Type
REMARK                         _______ _______ _______ _____ _____    ______ ____
ROOT
ATOM      1  CA  UNL     1       5.816  -6.006  27.687  0.00  0.00    +0.299 C 
ATOM      2  C   UNL     1       4.423  -5.399  27.696  0.00  0.00    +0.253 C 
ATOM      3  O   UNL     1       3.762  -5.186  28.711  0.00  0.00    -0.273 OA
ATOM      4  N   UNL     1       3.844  -5.131  26.479  0.00  0.00    -0.283 N 
ATOM      5  H   UNL     1       2.849  -4.949  26.554  0.00  0.00    +0.155 HD
ATOM      6  C   UNL     1       4.426  -5.261  25.212  0.00  0.00    +0.043 A 
ATOM      7  C   UNL     1       3.543  -5.502  24.150  0.00  0.00    +0.025 A 
ATOM      8  C   UNL     1       4.025  -5.720  22.859  0.00  0.00    +0.022 A 
ATOM      9  C   UNL     1       5.395  -5.697  22.623  0.00  0.00    +0.042 A 
ATOM     10  C   UNL     1       6.286  -5.417  23.658  0.00  0.00    +0.032 A 
ATOM     11 CL   UNL     1       5.991  -5.967  21.033  0.00  0.00    -0.084 Cl
ATOM     12  C   UNL     1       5.803  -5.154  24.950  0.00  0.00    +0.023 A 
ATOM     13  C   UNL     1       6.763  -4.626  25.975  0.00  0.00    +0.076 C 
ATOM     14  N   UNL     1       6.796  -4.991  27.215  0.00  0.00    -0.259 NA
ENDROOT
BRANCH  13  15
ATOM     15  C   UNL     1       7.747  -3.561  25.563  0.00  0.00    +0.001 A 
ATOM     16  C   UNL     1       8.771  -3.824  24.643  0.00  0.00    +0.010 A 
ATOM     17  C   UNL     1       9.640  -2.805  24.245  0.00  0.00    +0.001 A 
ATOM     18  C   UNL     1       9.477  -1.514  24.743  0.00  0.00    +0.000 A 
ATOM     19  C   UNL     1       8.454  -1.240  25.649  0.00  0.00    +0.001 A 
ATOM     20  C   UNL     1       7.592  -2.259  26.060  0.00  0.00    +0.010 A 
ENDBRANCH  13  15
BRANCH   1  21
ATOM     21  C   UNL     1       6.262  -6.458  29.074  0.00  0.00    +0.339 C 
ATOM     22  OXT UNL     1       6.723  -7.556  29.349  0.00  0.00    -0.248 OA
BRANCH  21  23
ATOM     23  O   UNL     1       6.164  -5.454  29.993  0.00  0.00    -0.479 OA
ATOM     24  H   UNL     1       6.618  -4.673  29.593  0.00  0.00    +0.295 HD
ENDBRANCH  21  23
ENDBRANCH   1  21
TORSDOF 3
ENDMDL
MODEL 8
REMARK VINA RESULT:      -5.8      5.548      7.602
REMARK  Name = 
REMARK  3 active torsions:
REMARK  status: ('A' for Active; 'I' for Inactive)
REMARK    1  A    between atoms: O_1  and  C_2
REMARK    2  A    between atoms: C_2  and  CA_4
REMARK    3  A    between atoms: C_6  and  C_7
REMARK                            x       y       z     vdW  Elec       q    Type
REMARK                         _______ _______ _______ _____ _____    ______ ____
ROOT
ATOM      1  CA  UNL     1      10.681   4.654  24.126  0.00  0.00    +0.299 C 
ATOM      2  C   UNL     1       9.493   5.503  23.706  0.00  0.00    +0.253 C 
ATOM      3  O   UNL     1       9.576   6.542  23.053  0.00  0.00    -0.273 OA
ATOM      4  N   UNL     1       8.252   5.112  24.144  0.00  0.00    -0.283 N 
ATOM      5  H   UNL     1       7.551   5.835  24.023  0.00  0.00    +0.155 HD
ATOM      6  C   UNL     1       7.927   3.954  24.862  0.00  0.00    +0.043 A 
ATOM      7  C   UNL     1       6.790   4.033  25.678  0.00  0.00    +0.025 A 
ATOM      8  C   UNL     1       6.421   2.960  26.491  0.00  0.00    +0.022 A 
ATOM      9  C   UNL     1       7.189   1.801  26.490  0.00  0.00    +0.042 A 
ATOM     10  C   UNL     1       8.299   1.688  25.654  0.00  0.00    +0.032 A 
ATOM     11 CL   UNL     1       6.737   0.479  27.493  0.00  0.00    -0.084 Cl
ATOM     12  C   UNL     1       8.649   2.749  24.802  0.00  0.00    +0.023 A 
ATOM     13  C   UNL     1       9.694   2.505  23.754  0.00  0.00    +0.076 C 
ATOM     14  N   UNL     1      10.624   3.342  23.427  0.00  0.00    -0.259 NA
ENDROOT
BRANCH  13  15
ATOM     15  C   UNL     1       9.654   1.211  22.981  0.00  0.00    +0.001 A 
ATOM     16  C   UNL     1       9.015   1.121  21.736  0.00  0.00    +0.010 A 
ATOM     17  C   UNL     1       9.034  -0.079  21.021  0.00  0.00    +0.001 A 
ATOM     18  C   UNL     1       9.710  -1.186  21.529  0.00  0.00    +0.000 A 
ATOM     19  C   UNL     1      10.360  -1.101  22.759  0.00  0.00    +0.001 A 
ATOM     20  C   UNL     1      10.331   0.092  23.485  0.00  0.00    +0.010 A 
ENDBRANCH  13  15
BRANCH   1  21
ATOM     21  C   UNL     1      12.016   5.301  23.768  0.00  0.00    +0.339 C 
ATOM     22  OXT UNL     1      12.760   4.943  22.868  0.00  0.00    -0.248 OA
BRANCH  21  23
ATOM     23  O   UNL     1      12.266   6.405  24.531  0.00  0.00    -0.479 OA
ATOM     24  H   UNL     1      13.238   6.569  24.463  0.00  0.00    +0.295 HD
ENDBRANCH  21  23
ENDBRANCH   1  21
TORSDOF 3
ENDMDL
MODEL 9
REMARK VINA RESULT:      -5.8      5.604      7.511
REMARK  Name = 
REMARK  3 active torsions:
REMARK  status: ('A' for Active; 'I' for Inactive)
REMARK    1  A    between atoms: O_1  and  C_2
REMARK    2  A    between atoms: C_2  and  CA_4
REMARK    3  A    between atoms: C_6  and  C_7
REMARK                            x       y       z     vdW  Elec       q    Type
REMARK                         _______ _______ _______ _____ _____    ______ ____
ROOT
ATOM      1  CA  UNL     1       8.967   5.015  23.995  0.00  0.00    +0.299 C 
ATOM      2  C   UNL     1       7.925   5.512  23.008  0.00  0.00    +0.253 C 
ATOM      3  O   UNL     1       8.066   6.493  22.281  0.00  0.00    -0.273 OA
ATOM      4  N   UNL     1       6.720   4.853  22.978  0.00  0.00    -0.283 N 
ATOM      5  H   UNL     1       6.007   5.370  22.475  0.00  0.00    +0.155 HD
ATOM      6  C   UNL     1       6.361   3.700  23.688  0.00  0.00    +0.043 A 
ATOM      7  C   UNL     1       4.995   3.547  23.965  0.00  0.00    +0.025 A 
ATOM      8  C   UNL     1       4.540   2.472  24.730  0.00  0.00    +0.022 A 
ATOM      9  C   UNL     1       5.451   1.543  25.221  0.00  0.00    +0.042 A 
ATOM     10  C   UNL     1       6.808   1.656  24.921  0.00  0.00    +0.032 A 
ATOM     11 CL   UNL     1       4.892   0.219  26.165  0.00  0.00    -0.084 Cl
ATOM     12  C   UNL     1       7.265   2.712  24.115  0.00  0.00    +0.023 A 
ATOM     13  C   UNL     1       8.680   2.668  23.620  0.00  0.00    +0.076 C 
ATOM     14  N   UNL     1       9.473   3.687  23.554  0.00  0.00    -0.259 NA
ENDROOT
BRANCH  13  15
ATOM     15  C   UNL     1       9.229   1.357  23.115  0.00  0.00    +0.001 A 
ATOM     16  C   UNL     1      10.008   0.526  23.933  0.00  0.00    +0.010 A 
ATOM     17  C   UNL     1      10.465  -0.704  23.454  0.00  0.00    +0.001 A 
ATOM     18  C   UNL     1      10.129  -1.123  22.168  0.00  0.00    +0.000 A 
ATOM     19  C   UNL     1       9.344  -0.308  21.353  0.00  0.00    +0.001 A 
ATOM     20  C   UNL     1       8.896   0.928  21.823  0.00  0.00    +0.010 A 
ENDBRANCH  13  15
BRANCH   1  21
ATOM     21  C   UNL     1      10.170   5.949  24.092  0.00  0.00    +0.339 C 
ATOM     22  OXT UNL     1      10.465   6.627  25.065  0.00  0.00    -0.248 OA
BRANCH  21  23
ATOM     23  O   UNL     1      10.951   5.892  22.975  0.00  0.00    -0.479 OA
ATOM     24  H   UNL     1      11.771   5.410  23.241  0.00  0.00    +0.295 HD
ENDBRANCH  21  23
ENDBRANCH   1  21
TORSDOF 3
ENDMDL
