MODEL 1
REMARK VINA RESULT:      -3.1      0.000      0.000
REMARK  Name = 
REMARK  3 active torsions:
REMARK  status: ('A' for Active; 'I' for Inactive)
REMARK    1  A    between atoms: C_1  and  C_2
REMARK    2  A    between atoms: C_2  and  C_3
REMARK    3  A    between atoms: C_3  and  C_4
REMARK                            x       y       z     vdW  Elec       q    Type
REMARK                         _______ _______ _______ _____ _____    ______ ____
ROOT
ATOM      1  C   UNL     1      10.006   1.025  22.245  0.00  0.00    +0.210 C 
ATOM      2  O   UNL     1      10.454   0.895  23.377  0.00  0.00    -0.276 OA
ATOM      3  N   UNL     1       9.993   2.246  21.634  0.00  0.00    -0.329 N 
ATOM      4  H   UNL     1      10.365   3.033  22.148  0.00  0.00    +0.145 HD
ATOM      5  H   UNL     1       9.633   2.395  20.702  0.00  0.00    +0.145 HD
ENDROOT
BRANCH   1   6
ATOM      6  C   UNL     1       9.431  -0.093  21.403  0.00  0.00    +0.095 C 
BRANCH   6   8
ATOM      7  C   UNL     1       8.397  -2.178  22.366  0.00  0.00    +0.004 C 
ATOM      8  C   UNL     1       9.693  -1.467  22.015  0.00  0.00    +0.006 C 
ENDBRANCH   6   8
ENDBRANCH   1   6
TORSDOF 2
ENDMDL
MODEL 2
REMARK VINA RESULT:      -3.1      2.157      2.572
REMARK  Name = 
REMARK  3 active torsions:
REMARK  status: ('A' for Active; 'I' for Inactive)
REMARK    1  A    between atoms: C_1  and  C_2
REMARK    2  A    between atoms: C_2  and  C_3
REMARK    3  A    between atoms: C_3  and  C_4
REMARK                            x       y       z     vdW  Elec       q    Type
REMARK                         _______ _______ _______ _____ _____    ______ ____
ROOT
ATOM      1  C   UNL     1       9.919   1.238  22.227  0.00  0.00    +0.210 C 
ATOM      2  O   UNL     1      10.067   0.094  21.817  0.00  0.00    -0.276 OA
ATOM      3  N   UNL     1       9.294   2.180  21.461  0.00  0.00    -0.329 N 
ATOM      4  H   UNL     1       8.961   1.898  20.549  0.00  0.00    +0.145 HD
ATOM      5  H   UNL     1       9.151   3.133  21.763  0.00  0.00    +0.145 HD
ENDROOT
BRANCH   1   6
ATOM      6  C   UNL     1      10.384   1.747  23.574  0.00  0.00    +0.095 C 
BRANCH   6   8
ATOM      7  C   UNL     1       9.783  -0.012  25.273  0.00  0.00    +0.004 C 
ATOM      8  C   UNL     1      10.903   0.622  24.466  0.00  0.00    +0.006 C 
ENDBRANCH   6   8
ENDBRANCH   1   6
TORSDOF 2
ENDMDL
MODEL 3
REMARK VINA RESULT:      -3.1      1.699      1.711
REMARK  Name = 
REMARK  3 active torsions:
REMARK  status: ('A' for Active; 'I' for Inactive)
REMARK    1  A    between atoms: C_1  and  C_2
REMARK    2  A    between atoms: C_2  and  C_3
REMARK    3  A    between atoms: C_3  and  C_4
REMARK                            x       y       z     vdW  Elec       q    Type
REMARK                         _______ _______ _______ _____ _____    ______ ____
ROOT
ATOM      1  C   UNL     1       9.087   1.363  21.555  0.00  0.00    +0.210 C 
ATOM      2  O   UNL     1       7.930   1.752  21.457  0.00  0.00    -0.276 OA
ATOM      3  N   UNL     1      10.114   2.251  21.696  0.00  0.00    -0.329 N 
ATOM      4  H   UNL     1       9.884   3.235  21.717  0.00  0.00    +0.145 HD
ATOM      5  H   UNL     1      11.081   1.971  21.781  0.00  0.00    +0.145 HD
ENDROOT
BRANCH   1   6
ATOM      6  C   UNL     1       9.522  -0.086  21.534  0.00  0.00    +0.095 C 
BRANCH   6   8
ATOM      7  C   UNL     1      10.007  -1.915  23.196  0.00  0.00    +0.004 C 
ATOM      8  C   UNL     1      10.288  -0.477  22.795  0.00  0.00    +0.006 C 
ENDBRANCH   6   8
ENDBRANCH   1   6
TORSDOF 2
ENDMDL
MODEL 4
REMARK VINA RESULT:      -3.0      6.196      6.533
REMARK  Name = 
REMARK  3 active torsions:
REMARK  status: ('A' for Active; 'I' for Inactive)
REMARK    1  A    between atoms: C_1  and  C_2
REMARK    2  A    between atoms: C_2  and  C_3
REMARK    3  A    between atoms: C_3  and  C_4
REMARK                            x       y       z     vdW  Elec       q    Type
REMARK                         _______ _______ _______ _____ _____    ______ ____
ROOT
ATOM      1  C   UNL     1       8.759  -5.361  25.482  0.00  0.00    +0.210 C 
ATOM      2  O   UNL     1       7.968  -5.747  26.333  0.00  0.00    -0.276 OA
ATOM      3  N   UNL     1      10.101  -5.556  25.634  0.00  0.00    -0.329 N 
ATOM      4  H   UNL     1      10.416  -6.029  26.470  0.00  0.00    +0.145 HD
ATOM      5  H   UNL     1      10.785  -5.253  24.955  0.00  0.00    +0.145 HD
ENDROOT
BRANCH   1   6
ATOM      6  C   UNL     1       8.380  -4.646  24.204  0.00  0.00    +0.095 C 
BRANCH   6   8
ATOM      7  C   UNL     1       7.283  -5.818  22.263  0.00  0.00    +0.004 C 
ATOM      8  C   UNL     1       7.069  -5.167  23.619  0.00  0.00    +0.006 C 
ENDBRANCH   6   8
ENDBRANCH   1   6
TORSDOF 2
ENDMDL
MODEL 5
REMARK VINA RESULT:      -3.0      6.038      6.434
REMARK  Name = 
REMARK  3 active torsions:
REMARK  status: ('A' for Active; 'I' for Inactive)
REMARK    1  A    between atoms: C_1  and  C_2
REMARK    2  A    between atoms: C_2  and  C_3
REMARK    3  A    between atoms: C_3  and  C_4
REMARK                            x       y       z     vdW  Elec       q    Type
REMARK                         _______ _______ _______ _____ _____    ______ ____
ROOT
ATOM      1  C   UNL     1       8.663  -5.263  25.273  0.00  0.00    +0.210 C 
ATOM      2  O   UNL     1       9.779  -5.063  24.810  0.00  0.00    -0.276 OA
ATOM      3  N   UNL     1       8.507  -5.745  26.540  0.00  0.00    -0.329 N 
ATOM      4  H   UNL     1       9.343  -5.927  27.080  0.00  0.00    +0.145 HD
ATOM      5  H   UNL     1       7.605  -5.922  26.958  0.00  0.00    +0.145 HD
ENDROOT
BRANCH   1   6
ATOM      6  C   UNL     1       7.362  -5.019  24.540  0.00  0.00    +0.095 C 
BRANCH   6   8
ATOM      7  C   UNL     1       7.224  -5.901  22.185  0.00  0.00    +0.004 C 
ATOM      8  C   UNL     1       7.582  -4.712  23.061  0.00  0.00    +0.006 C 
ENDBRANCH   6   8
ENDBRANCH   1   6
TORSDOF 2
ENDMDL
MODEL 6
REMARK VINA RESULT:      -3.0      2.481      3.396
REMARK  Name = 
REMARK  3 active torsions:
REMARK  status: ('A' for Active; 'I' for Inactive)
REMARK    1  A    between atoms: C_1  and  C_2
REMARK    2  A    between atoms: C_2  and  C_3
REMARK    3  A    between atoms: C_3  and  C_4
REMARK                            x       y       z     vdW  Elec       q    Type
REMARK                         _______ _______ _______ _____ _____    ______ ____
ROOT
ATOM      1  C   UNL     1      10.063  -1.482  22.789  0.00  0.00    +0.210 C 
ATOM      2  O   UNL     1      10.518  -2.575  23.101  0.00  0.00    -0.276 OA
ATOM      3  N   UNL     1       9.928  -1.128  21.478  0.00  0.00    -0.329 N 
ATOM      4  H   UNL     1      10.217  -1.799  20.778  0.00  0.00    +0.145 HD
ATOM      5  H   UNL     1       9.557  -0.237  21.180  0.00  0.00    +0.145 HD
ENDROOT
BRANCH   1   6
ATOM      6  C   UNL     1       9.608  -0.420  23.766  0.00  0.00    +0.095 C 
BRANCH   6   8
ATOM      7  C   UNL     1      10.523   1.925  23.859  0.00  0.00    +0.004 C 
ATOM      8  C   UNL     1      10.759   0.470  24.227  0.00  0.00    +0.006 C 
ENDBRANCH   6   8
ENDBRANCH   1   6
TORSDOF 2
ENDMDL
MODEL 7
REMARK VINA RESULT:      -3.0      2.025      2.628
REMARK  Name = 
REMARK  3 active torsions:
REMARK  status: ('A' for Active; 'I' for Inactive)
REMARK    1  A    between atoms: C_1  and  C_2
REMARK    2  A    between atoms: C_2  and  C_3
REMARK    3  A    between atoms: C_3  and  C_4
REMARK                            x       y       z     vdW  Elec       q    Type
REMARK                         _______ _______ _______ _____ _____    ______ ____
ROOT
ATOM      1  C   UNL     1      10.371   1.508  24.112  0.00  0.00    +0.210 C 
ATOM      2  O   UNL     1      11.285   0.791  24.500  0.00  0.00    -0.276 OA
ATOM      3  N   UNL     1       9.312   1.791  24.925  0.00  0.00    -0.329 N 
ATOM      4  H   UNL     1       9.311   1.390  25.853  0.00  0.00    +0.145 HD
ATOM      5  H   UNL     1       8.540   2.379  24.643  0.00  0.00    +0.145 HD
ENDROOT
BRANCH   1   6
ATOM      6  C   UNL     1      10.290   2.149  22.744  0.00  0.00    +0.095 C 
BRANCH   6   8
ATOM      7  C   UNL     1       9.488   0.114  21.497  0.00  0.00    +0.004 C 
ATOM      8  C   UNL     1       9.176   1.548  21.891  0.00  0.00    +0.006 C 
ENDBRANCH   6   8
ENDBRANCH   1   6
TORSDOF 2
ENDMDL
MODEL 8
REMARK VINA RESULT:      -2.9      2.407      3.044
REMARK  Name = 
REMARK  3 active torsions:
REMARK  status: ('A' for Active; 'I' for Inactive)
REMARK    1  A    between atoms: C_1  and  C_2
REMARK    2  A    between atoms: C_2  and  C_3
REMARK    3  A    between atoms: C_3  and  C_4
REMARK                            x       y       z     vdW  Elec       q    Type
REMARK                         _______ _______ _______ _____ _____    ______ ____
ROOT
ATOM      1  C   UNL     1      10.037  -1.618  23.358  0.00  0.00    +0.210 C 
ATOM      2  O   UNL     1      10.226  -2.806  23.589  0.00  0.00    -0.276 OA
ATOM      3  N   UNL     1      10.056  -0.698  24.365  0.00  0.00    -0.329 N 
ATOM      4  H   UNL     1      10.231  -1.031  25.303  0.00  0.00    +0.145 HD
ATOM      5  H   UNL     1       9.905   0.290  24.216  0.00  0.00    +0.145 HD
ENDROOT
BRANCH   1   6
ATOM      6  C   UNL     1       9.767  -1.032  21.990  0.00  0.00    +0.095 C 
BRANCH   6   8
ATOM      7  C   UNL     1       8.700   1.199  21.509  0.00  0.00    +0.004 C 
ATOM      8  C   UNL     1       9.961   0.482  21.963  0.00  0.00    +0.006 C 
ENDBRANCH   6   8
ENDBRANCH   1   6
TORSDOF 2
ENDMDL
MODEL 9
REMARK VINA RESULT:      -2.9      5.911      6.571
REMARK  Name = 
REMARK  3 active torsions:
REMARK  status: ('A' for Active; 'I' for Inactive)
REMARK    1  A    between atoms: C_1  and  C_2
REMARK    2  A    between atoms: C_2  and  C_3
REMARK    3  A    between atoms: C_3  and  C_4
REMARK                            x       y       z     vdW  Elec       q    Type
REMARK                         _______ _______ _______ _____ _____    ______ ____
ROOT
ATOM      1  C   UNL     1       9.422  -4.646  25.091  0.00  0.00    +0.210 C 
ATOM      2  O   UNL     1       9.874  -3.775  24.359  0.00  0.00    -0.276 OA
ATOM      3  N   UNL     1      10.246  -5.556  25.687  0.00  0.00    -0.329 N 
ATOM      4  H   UNL     1      11.237  -5.482  25.504  0.00  0.00    +0.145 HD
ATOM      5  H   UNL     1       9.912  -6.289  26.297  0.00  0.00    +0.145 HD
ENDROOT
BRANCH   1   6
ATOM      6  C   UNL     1       7.956  -4.831  25.420  0.00  0.00    +0.095 C 
BRANCH   6   8
ATOM      7  C   UNL     1       6.475  -4.631  27.447  0.00  0.00    +0.004 C 
ATOM      8  C   UNL     1       7.740  -5.246  26.873  0.00  0.00    +0.006 C 
ENDBRANCH   6   8
ENDBRANCH   1   6
TORSDOF 2
ENDMDL
