MODEL 1
REMARK VINA RESULT:      -5.9      0.000      0.000
REMARK  Name = 
REMARK  19 active torsions:
REMARK  status: ('A' for Active; 'I' for Inactive)
REMARK    1  A    between atoms: C_1  and  C_2
REMARK    2  A    between atoms: C_2  and  C_3
REMARK    3  A    between atoms: C_3  and  C_4
REMARK    4  A    between atoms: C_4  and  C_5
REMARK    5  A    between atoms: C_5  and  C_6
REMARK    6  A    between atoms: C_5  and  O_7
REMARK    7  A    between atoms: C_5  and  C_8
REMARK    8  A    between atoms: C_8  and  C_9
REMARK    9  A    between atoms: C_10  and  C_11
REMARK   10  A    between atoms: C_13  and  O_15
REMARK   11  A    between atoms: C_19  and  C_21
REMARK   12  A    between atoms: C_21  and  C_22
REMARK   13  A    between atoms: C_22  and  C_23
REMARK   14  A    between atoms: C_23  and  C_24
REMARK   15  A    between atoms: C_24  and  C_25
REMARK   16  A    between atoms: C_25  and  C_26
REMARK   17  A    between atoms: C_26  and  C_27
REMARK   18  A    between atoms: C_27  and  O_29
REMARK   19  A    between atoms: O_29  and  C_30
REMARK                            x       y       z     vdW  Elec       q    Type
REMARK                         _______ _______ _______ _____ _____    ______ ____
ROOT
ATOM      1  C   UNL     1       9.194   0.879  23.289  0.00  0.00    +0.050 C 
ATOM      2  C   UNL     1       9.989  -0.274  23.941  0.00  0.00    +0.065 C 
ATOM      3  C   UNL     1      10.239  -1.189  22.759  0.00  0.00    +0.140 C 
ATOM      4  O   UNL     1      10.844  -2.252  22.824  0.00  0.00    -0.297 OA
ATOM      5  C   UNL     1       9.682  -0.658  21.476  0.00  0.00    +0.106 C 
ATOM      6  C   UNL     1       9.539   0.819  21.790  0.00  0.00    +0.129 C 
ENDROOT
BRANCH   6   7
ATOM      7  O   UNL     1       8.521   1.400  20.983  0.00  0.00    -0.391 OA
ATOM      8  H   UNL     1       8.363   2.313  21.278  0.00  0.00    +0.210 HD
ENDBRANCH   6   7
BRANCH   1  10
ATOM      9  C   UNL     1       8.531   3.131  24.277  0.00  0.00    -0.028 C 
ATOM     10  C   UNL     1       9.454   2.257  23.844  0.00  0.00    -0.024 C 
BRANCH   9  11
ATOM     11  C   UNL     1       8.856   4.495  24.822  0.00  0.00    +0.061 C 
BRANCH  11  12
ATOM     12  C   UNL     1       8.593   5.693  23.873  0.00  0.00    +0.067 C 
ATOM     13  C   UNL     1       7.621   6.705  24.497  0.00  0.00    +0.041 C 
BRANCH  12  14
ATOM     14  O   UNL     1       8.013   5.208  22.655  0.00  0.00    -0.389 OA
ATOM     15  H   UNL     1       8.707   5.191  21.975  0.00  0.00    +0.210 HD
ENDBRANCH  12  14
BRANCH  12  16
ATOM     16  C   UNL     1       9.924   6.399  23.511  0.00  0.00    +0.035 C 
BRANCH  16  17
ATOM     17  C   UNL     1      10.918   6.451  24.679  0.00  0.00    +0.003 C 
BRANCH  17  19
ATOM     18  C   UNL     1      12.278   4.893  23.271  0.00  0.00    +0.004 C 
ATOM     19  C   UNL     1      12.329   6.047  24.262  0.00  0.00    -0.003 C 
ENDBRANCH  17  19
ENDBRANCH  16  17
ENDBRANCH  12  16
ENDBRANCH  11  12
ENDBRANCH   9  11
ENDBRANCH   1  10
BRANCH   2  20
ATOM     20  C   UNL     1       9.192  -0.921  25.079  0.00  0.00    +0.012 C 
BRANCH  20  21
ATOM     21  C   UNL     1       7.713  -0.538  25.041  0.00  0.00    +0.001 C 
BRANCH  21  22
ATOM     22  C   UNL     1       6.822  -1.729  24.703  0.00  0.00    +0.000 C 
BRANCH  22  23
ATOM     23  C   UNL     1       7.624  -3.027  24.785  0.00  0.00    +0.001 C 
BRANCH  23  24
ATOM     24  C   UNL     1       7.661  -3.727  23.433  0.00  0.00    +0.011 C 
BRANCH  24  25
ATOM     25  C   UNL     1       6.789  -3.013  22.404  0.00  0.00    +0.120 C 
BRANCH  25  26
ATOM     26  C   UNL     1       5.629  -3.884  21.990  0.00  0.00    +0.307 C 
ATOM     27  O   UNL     1       4.599  -4.051  22.637  0.00  0.00    -0.251 OA
BRANCH  26  28
ATOM     28  O   UNL     1       5.891  -4.463  20.785  0.00  0.00    -0.468 OA
ATOM     29  C   UNL     1       6.185  -5.857  20.878  0.00  0.00    +0.280 C 
ENDBRANCH  26  28
ENDBRANCH  25  26
ENDBRANCH  24  25
ENDBRANCH  23  24
ENDBRANCH  22  23
ENDBRANCH  21  22
ENDBRANCH  20  21
ENDBRANCH   2  20
TORSDOF 16
ENDMDL
MODEL 2
REMARK VINA RESULT:      -5.9      2.337      7.796
REMARK  Name = 
REMARK  19 active torsions:
REMARK  status: ('A' for Active; 'I' for Inactive)
REMARK    1  A    between atoms: C_1  and  C_2
REMARK    2  A    between atoms: C_2  and  C_3
REMARK    3  A    between atoms: C_3  and  C_4
REMARK    4  A    between atoms: C_4  and  C_5
REMARK    5  A    between atoms: C_5  and  C_6
REMARK    6  A    between atoms: C_5  and  O_7
REMARK    7  A    between atoms: C_5  and  C_8
REMARK    8  A    between atoms: C_8  and  C_9
REMARK    9  A    between atoms: C_10  and  C_11
REMARK   10  A    between atoms: C_13  and  O_15
REMARK   11  A    between atoms: C_19  and  C_21
REMARK   12  A    between atoms: C_21  and  C_22
REMARK   13  A    between atoms: C_22  and  C_23
REMARK   14  A    between atoms: C_23  and  C_24
REMARK   15  A    between atoms: C_24  and  C_25
REMARK   16  A    between atoms: C_25  and  C_26
REMARK   17  A    between atoms: C_26  and  C_27
REMARK   18  A    between atoms: C_27  and  O_29
REMARK   19  A    between atoms: O_29  and  C_30
REMARK                            x       y       z     vdW  Elec       q    Type
REMARK                         _______ _______ _______ _____ _____    ______ ____
ROOT
ATOM      1  C   UNL     1       6.899  -0.637  24.230  0.00  0.00    +0.050 C 
ATOM      2  C   UNL     1       7.736  -1.258  25.371  0.00  0.00    +0.065 C 
ATOM      3  C   UNL     1       7.472  -0.296  26.511  0.00  0.00    +0.140 C 
ATOM      4  O   UNL     1       7.954  -0.405  27.633  0.00  0.00    -0.297 OA
ATOM      5  C   UNL     1       6.539   0.813  26.142  0.00  0.00    +0.106 C 
ATOM      6  C   UNL     1       5.839   0.235  24.927  0.00  0.00    +0.129 C 
ENDROOT
BRANCH   6   7
ATOM      7  O   UNL     1       5.367   1.279  24.083  0.00  0.00    -0.391 OA
ATOM      8  H   UNL     1       4.395   1.289  24.102  0.00  0.00    +0.210 HD
ENDBRANCH   6   7
BRANCH   1  10
ATOM      9  C   UNL     1       6.876  -2.548  22.546  0.00  0.00    -0.028 C 
ATOM     10  C   UNL     1       6.251  -1.612  23.279  0.00  0.00    -0.024 C 
BRANCH   9  11
ATOM     11  C   UNL     1       6.171  -3.495  21.614  0.00  0.00    +0.061 C 
BRANCH  11  12
ATOM     12  C   UNL     1       5.932  -4.931  22.149  0.00  0.00    +0.067 C 
ATOM     13  C   UNL     1       6.186  -5.986  21.062  0.00  0.00    +0.041 C 
BRANCH  12  14
ATOM     14  O   UNL     1       4.569  -5.051  22.579  0.00  0.00    -0.389 OA
ATOM     15  H   UNL     1       4.106  -5.634  21.955  0.00  0.00    +0.210 HD
ENDBRANCH  12  14
BRANCH  12  16
ATOM     16  C   UNL     1       6.838  -5.211  23.373  0.00  0.00    +0.035 C 
BRANCH  16  17
ATOM     17  C   UNL     1       6.065  -5.271  24.697  0.00  0.00    +0.003 C 
BRANCH  17  19
ATOM     18  C   UNL     1       8.413  -4.990  25.513  0.00  0.00    +0.004 C 
ATOM     19  C   UNL     1       6.943  -4.939  25.901  0.00  0.00    -0.003 C 
ENDBRANCH  17  19
ENDBRANCH  16  17
ENDBRANCH  12  16
ENDBRANCH  11  12
ENDBRANCH   9  11
ENDBRANCH   1  10
BRANCH   2  20
ATOM     20  C   UNL     1       9.212  -1.374  24.974  0.00  0.00    +0.012 C 
BRANCH  20  21
ATOM     21  C   UNL     1       9.927  -0.023  25.007  0.00  0.00    +0.001 C 
BRANCH  21  22
ATOM     22  C   UNL     1      10.706   0.244  23.724  0.00  0.00    +0.000 C 
BRANCH  22  23
ATOM     23  C   UNL     1      10.172  -0.633  22.591  0.00  0.00    +0.001 C 
BRANCH  23  24
ATOM     24  C   UNL     1       9.445   0.210  21.551  0.00  0.00    +0.011 C 
BRANCH  24  25
ATOM     25  C   UNL     1       9.562   1.701  21.850  0.00  0.00    +0.120 C 
BRANCH  25  26
ATOM     26  C   UNL     1       8.204   2.303  22.113  0.00  0.00    +0.307 C 
ATOM     27  O   UNL     1       7.131   1.811  21.775  0.00  0.00    -0.251 OA
BRANCH  26  28
ATOM     28  O   UNL     1       8.341   3.479  22.786  0.00  0.00    -0.468 OA
ATOM     29  C   UNL     1       8.538   3.309  24.190  0.00  0.00    +0.280 C 
ENDBRANCH  26  28
ENDBRANCH  25  26
ENDBRANCH  24  25
ENDBRANCH  23  24
ENDBRANCH  22  23
ENDBRANCH  21  22
ENDBRANCH  20  21
ENDBRANCH   2  20
TORSDOF 16
ENDMDL
MODEL 3
REMARK VINA RESULT:      -5.8      2.774      4.728
REMARK  Name = 
REMARK  19 active torsions:
REMARK  status: ('A' for Active; 'I' for Inactive)
REMARK    1  A    between atoms: C_1  and  C_2
REMARK    2  A    between atoms: C_2  and  C_3
REMARK    3  A    between atoms: C_3  and  C_4
REMARK    4  A    between atoms: C_4  and  C_5
REMARK    5  A    between atoms: C_5  and  C_6
REMARK    6  A    between atoms: C_5  and  O_7
REMARK    7  A    between atoms: C_5  and  C_8
REMARK    8  A    between atoms: C_8  and  C_9
REMARK    9  A    between atoms: C_10  and  C_11
REMARK   10  A    between atoms: C_13  and  O_15
REMARK   11  A    between atoms: C_19  and  C_21
REMARK   12  A    between atoms: C_21  and  C_22
REMARK   13  A    between atoms: C_22  and  C_23
REMARK   14  A    between atoms: C_23  and  C_24
REMARK   15  A    between atoms: C_24  and  C_25
REMARK   16  A    between atoms: C_25  and  C_26
REMARK   17  A    between atoms: C_26  and  C_27
REMARK   18  A    between atoms: C_27  and  O_29
REMARK   19  A    between atoms: O_29  and  C_30
REMARK                            x       y       z     vdW  Elec       q    Type
REMARK                         _______ _______ _______ _____ _____    ______ ____
ROOT
ATOM      1  C   UNL     1       7.497  -2.687  23.158  0.00  0.00    +0.050 C 
ATOM      2  C   UNL     1       8.645  -3.260  24.019  0.00  0.00    +0.065 C 
ATOM      3  C   UNL     1       8.410  -4.753  23.899  0.00  0.00    +0.140 C 
ATOM      4  O   UNL     1       9.101  -5.606  24.443  0.00  0.00    -0.297 OA
ATOM      5  C   UNL     1       7.245  -5.097  23.026  0.00  0.00    +0.106 C 
ATOM      6  C   UNL     1       7.087  -3.828  22.210  0.00  0.00    +0.129 C 
ENDROOT
BRANCH   6   7
ATOM      7  O   UNL     1       5.743  -3.693  21.761  0.00  0.00    -0.391 OA
ATOM      8  H   UNL     1       5.532  -2.749  21.666  0.00  0.00    +0.210 HD
ENDBRANCH   6   7
BRANCH   1  10
ATOM      9  C   UNL     1       9.039  -0.938  22.134  0.00  0.00    -0.028 C 
ATOM     10  C   UNL     1       7.816  -1.434  22.382  0.00  0.00    -0.024 C 
BRANCH   9  11
ATOM     11  C   UNL     1       9.292   0.321  21.350  0.00  0.00    +0.061 C 
BRANCH  11  12
ATOM     12  C   UNL     1       9.418   1.628  22.175  0.00  0.00    +0.067 C 
ATOM     13  C   UNL     1       8.116   2.442  22.144  0.00  0.00    +0.041 C 
BRANCH  12  14
ATOM     14  O   UNL     1      10.465   2.435  21.619  0.00  0.00    -0.389 OA
ATOM     15  H   UNL     1      10.102   3.320  21.443  0.00  0.00    +0.210 HD
ENDBRANCH  12  14
BRANCH  12  16
ATOM     16  C   UNL     1       9.800   1.308  23.642  0.00  0.00    +0.035 C 
BRANCH  16  17
ATOM     17  C   UNL     1       8.875   1.977  24.668  0.00  0.00    +0.003 C 
BRANCH  17  19
ATOM     18  C   UNL     1       6.645   0.948  25.146  0.00  0.00    +0.004 C 
ATOM     19  C   UNL     1       8.120   0.962  25.521  0.00  0.00    -0.003 C 
ENDBRANCH  17  19
ENDBRANCH  16  17
ENDBRANCH  12  16
ENDBRANCH  11  12
ENDBRANCH   9  11
ENDBRANCH   1  10
BRANCH   2  20
ATOM     20  C   UNL     1       8.578  -2.727  25.455  0.00  0.00    +0.012 C 
BRANCH  20  21
ATOM     21  C   UNL     1       7.143  -2.635  25.972  0.00  0.00    +0.001 C 
BRANCH  21  22
ATOM     22  C   UNL     1       6.764  -3.837  26.830  0.00  0.00    +0.000 C 
BRANCH  22  23
ATOM     23  C   UNL     1       5.517  -4.516  26.265  0.00  0.00    +0.001 C 
BRANCH  23  24
ATOM     24  C   UNL     1       5.712  -6.025  26.186  0.00  0.00    +0.011 C 
BRANCH  24  25
ATOM     25  C   UNL     1       4.380  -6.768  26.196  0.00  0.00    +0.120 C 
BRANCH  25  26
ATOM     26  C   UNL     1       3.953  -7.119  24.792  0.00  0.00    +0.307 C 
ATOM     27  O   UNL     1       4.169  -6.440  23.792  0.00  0.00    -0.251 OA
BRANCH  26  28
ATOM     28  O   UNL     1       3.288  -8.308  24.794  0.00  0.00    -0.468 OA
ATOM     29  C   UNL     1       1.992  -8.233  24.200  0.00  0.00    +0.280 C 
ENDBRANCH  26  28
ENDBRANCH  25  26
ENDBRANCH  24  25
ENDBRANCH  23  24
ENDBRANCH  22  23
ENDBRANCH  21  22
ENDBRANCH  20  21
ENDBRANCH   2  20
TORSDOF 16
ENDMDL
MODEL 4
REMARK VINA RESULT:      -5.7      1.472      2.376
REMARK  Name = 
REMARK  19 active torsions:
REMARK  status: ('A' for Active; 'I' for Inactive)
REMARK    1  A    between atoms: C_1  and  C_2
REMARK    2  A    between atoms: C_2  and  C_3
REMARK    3  A    between atoms: C_3  and  C_4
REMARK    4  A    between atoms: C_4  and  C_5
REMARK    5  A    between atoms: C_5  and  C_6
REMARK    6  A    between atoms: C_5  and  O_7
REMARK    7  A    between atoms: C_5  and  C_8
REMARK    8  A    between atoms: C_8  and  C_9
REMARK    9  A    between atoms: C_10  and  C_11
REMARK   10  A    between atoms: C_13  and  O_15
REMARK   11  A    between atoms: C_19  and  C_21
REMARK   12  A    between atoms: C_21  and  C_22
REMARK   13  A    between atoms: C_22  and  C_23
REMARK   14  A    between atoms: C_23  and  C_24
REMARK   15  A    between atoms: C_24  and  C_25
REMARK   16  A    between atoms: C_25  and  C_26
REMARK   17  A    between atoms: C_26  and  C_27
REMARK   18  A    between atoms: C_27  and  O_29
REMARK   19  A    between atoms: O_29  and  C_30
REMARK                            x       y       z     vdW  Elec       q    Type
REMARK                         _______ _______ _______ _____ _____    ______ ____
ROOT
ATOM      1  C   UNL     1       9.728   1.070  23.060  0.00  0.00    +0.050 C 
ATOM      2  C   UNL     1      10.403  -0.136  23.751  0.00  0.00    +0.065 C 
ATOM      3  C   UNL     1      10.133  -1.253  22.763  0.00  0.00    +0.140 C 
ATOM      4  O   UNL     1      10.493  -2.414  22.917  0.00  0.00    -0.297 OA
ATOM      5  C   UNL     1       9.384  -0.798  21.550  0.00  0.00    +0.106 C 
ATOM      6  C   UNL     1       9.647   0.696  21.570  0.00  0.00    +0.129 C 
ENDROOT
BRANCH   6   7
ATOM      7  O   UNL     1       8.600   1.391  20.900  0.00  0.00    -0.391 OA
ATOM      8  H   UNL     1       7.756   1.198  21.343  0.00  0.00    +0.210 HD
ENDBRANCH   6   7
BRANCH   1  10
ATOM      9  C   UNL     1       9.906   3.482  23.857  0.00  0.00    -0.028 C 
ATOM     10  C   UNL     1      10.413   2.402  23.242  0.00  0.00    -0.024 C 
BRANCH   9  11
ATOM     11  C   UNL     1      10.642   4.786  24.007  0.00  0.00    +0.061 C 
BRANCH  11  12
ATOM     12  C   UNL     1       9.828   5.967  24.596  0.00  0.00    +0.067 C 
ATOM     13  C   UNL     1      10.724   6.926  25.396  0.00  0.00    +0.041 C 
BRANCH  12  14
ATOM     14  O   UNL     1       8.825   5.452  25.481  0.00  0.00    -0.389 OA
ATOM     15  H   UNL     1       8.152   6.141  25.609  0.00  0.00    +0.210 HD
ENDBRANCH  12  14
BRANCH  12  16
ATOM     16  C   UNL     1       9.106   6.745  23.468  0.00  0.00    +0.035 C 
BRANCH  16  17
ATOM     17  C   UNL     1       7.579   6.599  23.515  0.00  0.00    +0.003 C 
BRANCH  17  19
ATOM     18  C   UNL     1       7.067   4.545  22.181  0.00  0.00    +0.004 C 
ATOM     19  C   UNL     1       7.004   6.065  22.206  0.00  0.00    -0.003 C 
ENDBRANCH  17  19
ENDBRANCH  16  17
ENDBRANCH  12  16
ENDBRANCH  11  12
ENDBRANCH   9  11
ENDBRANCH   1  10
BRANCH   2  20
ATOM     20  C   UNL     1       9.815  -0.375  25.146  0.00  0.00    +0.012 C 
BRANCH  20  21
ATOM     21  C   UNL     1       8.342   0.027  25.229  0.00  0.00    +0.001 C 
BRANCH  21  22
ATOM     22  C   UNL     1       7.416  -1.184  25.224  0.00  0.00    +0.000 C 
BRANCH  22  23
ATOM     23  C   UNL     1       6.519  -1.156  23.986  0.00  0.00    +0.001 C 
BRANCH  23  24
ATOM     24  C   UNL     1       6.555  -2.496  23.262  0.00  0.00    +0.011 C 
BRANCH  24  25
ATOM     25  C   UNL     1       6.925  -3.638  24.204  0.00  0.00    +0.120 C 
BRANCH  25  26
ATOM     26  C   UNL     1       7.807  -4.643  23.505  0.00  0.00    +0.307 C 
ATOM     27  O   UNL     1       8.750  -5.239  24.017  0.00  0.00    -0.251 OA
BRANCH  26  28
ATOM     28  O   UNL     1       7.402  -4.795  22.213  0.00  0.00    -0.468 OA
ATOM     29  C   UNL     1       6.768  -6.050  21.963  0.00  0.00    +0.280 C 
ENDBRANCH  26  28
ENDBRANCH  25  26
ENDBRANCH  24  25
ENDBRANCH  23  24
ENDBRANCH  22  23
ENDBRANCH  21  22
ENDBRANCH  20  21
ENDBRANCH   2  20
TORSDOF 16
ENDMDL
MODEL 5
REMARK VINA RESULT:      -5.7      2.935      7.719
REMARK  Name = 
REMARK  19 active torsions:
REMARK  status: ('A' for Active; 'I' for Inactive)
REMARK    1  A    between atoms: C_1  and  C_2
REMARK    2  A    between atoms: C_2  and  C_3
REMARK    3  A    between atoms: C_3  and  C_4
REMARK    4  A    between atoms: C_4  and  C_5
REMARK    5  A    between atoms: C_5  and  C_6
REMARK    6  A    between atoms: C_5  and  O_7
REMARK    7  A    between atoms: C_5  and  C_8
REMARK    8  A    between atoms: C_8  and  C_9
REMARK    9  A    between atoms: C_10  and  C_11
REMARK   10  A    between atoms: C_13  and  O_15
REMARK   11  A    between atoms: C_19  and  C_21
REMARK   12  A    between atoms: C_21  and  C_22
REMARK   13  A    between atoms: C_22  and  C_23
REMARK   14  A    between atoms: C_23  and  C_24
REMARK   15  A    between atoms: C_24  and  C_25
REMARK   16  A    between atoms: C_25  and  C_26
REMARK   17  A    between atoms: C_26  and  C_27
REMARK   18  A    between atoms: C_27  and  O_29
REMARK   19  A    between atoms: O_29  and  C_30
REMARK                            x       y       z     vdW  Elec       q    Type
REMARK                         _______ _______ _______ _____ _____    ______ ____
ROOT
ATOM      1  C   UNL     1       8.434  -0.862  23.063  0.00  0.00    +0.050 C 
ATOM      2  C   UNL     1       8.119   0.426  23.855  0.00  0.00    +0.065 C 
ATOM      3  C   UNL     1       9.252   1.339  23.431  0.00  0.00    +0.140 C 
ATOM      4  O   UNL     1       9.402   2.487  23.833  0.00  0.00    -0.297 OA
ATOM      5  C   UNL     1      10.182   0.704  22.447  0.00  0.00    +0.106 C 
ATOM      6  C   UNL     1       9.323  -0.415  21.889  0.00  0.00    +0.129 C 
ENDROOT
BRANCH   6   7
ATOM      7  O   UNL     1      10.142  -1.473  21.404  0.00  0.00    -0.391 OA
ATOM      8  H   UNL     1       9.619  -2.031  20.803  0.00  0.00    +0.210 HD
ENDBRANCH   6   7
BRANCH   1  10
ATOM      9  C   UNL     1       7.166  -2.972  22.410  0.00  0.00    -0.028 C 
ATOM     10  C   UNL     1       7.242  -1.641  22.566  0.00  0.00    -0.024 C 
BRANCH   9  11
ATOM     11  C   UNL     1       5.943  -3.692  21.910  0.00  0.00    +0.061 C 
BRANCH  11  12
ATOM     12  C   UNL     1       6.000  -5.241  21.940  0.00  0.00    +0.067 C 
ATOM     13  C   UNL     1       7.361  -5.746  22.442  0.00  0.00    +0.041 C 
BRANCH  12  14
ATOM     14  O   UNL     1       5.799  -5.744  20.612  0.00  0.00    -0.389 OA
ATOM     15  H   UNL     1       6.512  -6.376  20.418  0.00  0.00    +0.210 HD
ENDBRANCH  12  14
BRANCH  12  16
ATOM     16  C   UNL     1       4.869  -5.808  22.833  0.00  0.00    +0.035 C 
BRANCH  16  17
ATOM     17  C   UNL     1       3.950  -4.721  23.408  0.00  0.00    +0.003 C 
BRANCH  17  19
ATOM     18  C   UNL     1       2.334  -6.575  22.944  0.00  0.00    +0.004 C 
ATOM     19  C   UNL     1       2.513  -5.205  23.583  0.00  0.00    -0.003 C 
ENDBRANCH  17  19
ENDBRANCH  16  17
ENDBRANCH  12  16
ENDBRANCH  11  12
ENDBRANCH   9  11
ENDBRANCH   1  10
BRANCH   2  20
ATOM     20  C   UNL     1       8.063   0.150  25.361  0.00  0.00    +0.012 C 
BRANCH  20  21
ATOM     21  C   UNL     1       9.014  -0.972  25.779  0.00  0.00    +0.001 C 
BRANCH  21  22
ATOM     22  C   UNL     1       8.268  -2.171  26.354  0.00  0.00    +0.000 C 
BRANCH  22  23
ATOM     23  C   UNL     1       6.765  -1.892  26.381  0.00  0.00    +0.001 C 
BRANCH  23  24
ATOM     24  C   UNL     1       5.975  -3.153  26.056  0.00  0.00    +0.011 C 
BRANCH  24  25
ATOM     25  C   UNL     1       6.877  -4.380  25.972  0.00  0.00    +0.120 C 
BRANCH  25  26
ATOM     26  C   UNL     1       6.555  -5.358  27.075  0.00  0.00    +0.307 C 
ATOM     27  O   UNL     1       7.375  -5.885  27.821  0.00  0.00    -0.251 OA
BRANCH  26  28
ATOM     28  O   UNL     1       5.211  -5.574  27.124  0.00  0.00    -0.468 OA
ATOM     29  C   UNL     1       4.804  -6.765  26.449  0.00  0.00    +0.280 C 
ENDBRANCH  26  28
ENDBRANCH  25  26
ENDBRANCH  24  25
ENDBRANCH  23  24
ENDBRANCH  22  23
ENDBRANCH  21  22
ENDBRANCH  20  21
ENDBRANCH   2  20
TORSDOF 16
ENDMDL
MODEL 6
REMARK VINA RESULT:      -5.7      2.731      7.418
REMARK  Name = 
REMARK  19 active torsions:
REMARK  status: ('A' for Active; 'I' for Inactive)
REMARK    1  A    between atoms: C_1  and  C_2
REMARK    2  A    between atoms: C_2  and  C_3
REMARK    3  A    between atoms: C_3  and  C_4
REMARK    4  A    between atoms: C_4  and  C_5
REMARK    5  A    between atoms: C_5  and  C_6
REMARK    6  A    between atoms: C_5  and  O_7
REMARK    7  A    between atoms: C_5  and  C_8
REMARK    8  A    between atoms: C_8  and  C_9
REMARK    9  A    between atoms: C_10  and  C_11
REMARK   10  A    between atoms: C_13  and  O_15
REMARK   11  A    between atoms: C_19  and  C_21
REMARK   12  A    between atoms: C_21  and  C_22
REMARK   13  A    between atoms: C_22  and  C_23
REMARK   14  A    between atoms: C_23  and  C_24
REMARK   15  A    between atoms: C_24  and  C_25
REMARK   16  A    between atoms: C_25  and  C_26
REMARK   17  A    between atoms: C_26  and  C_27
REMARK   18  A    between atoms: C_27  and  O_29
REMARK   19  A    between atoms: O_29  and  C_30
REMARK                            x       y       z     vdW  Elec       q    Type
REMARK                         _______ _______ _______ _____ _____    ______ ____
ROOT
ATOM      1  C   UNL     1       8.375  -0.354  23.011  0.00  0.00    +0.050 C 
ATOM      2  C   UNL     1       8.123   0.969  23.768  0.00  0.00    +0.065 C 
ATOM      3  C   UNL     1       9.147   1.890  23.137  0.00  0.00    +0.140 C 
ATOM      4  O   UNL     1       9.305   3.064  23.449  0.00  0.00    -0.297 OA
ATOM      5  C   UNL     1       9.953   1.228  22.064  0.00  0.00    +0.106 C 
ATOM      6  C   UNL     1       9.069   0.051  21.698  0.00  0.00    +0.129 C 
ENDROOT
BRANCH   6   7
ATOM      7  O   UNL     1       9.852  -1.007  21.158  0.00  0.00    -0.391 OA
ATOM      8  H   UNL     1       9.457  -1.301  20.319  0.00  0.00    +0.210 HD
ENDBRANCH   6   7
BRANCH   1  10
ATOM      9  C   UNL     1       7.123  -2.536  22.612  0.00  0.00    -0.028 C 
ATOM     10  C   UNL     1       7.156  -1.199  22.734  0.00  0.00    -0.024 C 
BRANCH   9  11
ATOM     11  C   UNL     1       5.871  -3.323  22.336  0.00  0.00    +0.061 C 
BRANCH  11  12
ATOM     12  C   UNL     1       6.003  -4.867  22.405  0.00  0.00    +0.067 C 
ATOM     13  C   UNL     1       7.470  -5.301  22.545  0.00  0.00    +0.041 C 
BRANCH  12  14
ATOM     14  O   UNL     1       5.482  -5.437  21.197  0.00  0.00    -0.389 OA
ATOM     15  H   UNL     1       6.005  -5.096  20.452  0.00  0.00    +0.210 HD
ENDBRANCH  12  14
BRANCH  12  16
ATOM     16  C   UNL     1       5.176  -5.430  23.586  0.00  0.00    +0.035 C 
BRANCH  16  17
ATOM     17  C   UNL     1       4.100  -4.457  24.090  0.00  0.00    +0.003 C 
BRANCH  17  19
ATOM     18  C   UNL     1       4.011  -6.207  25.876  0.00  0.00    +0.004 C 
ATOM     19  C   UNL     1       3.645  -4.776  25.511  0.00  0.00    -0.003 C 
ENDBRANCH  17  19
ENDBRANCH  16  17
ENDBRANCH  12  16
ENDBRANCH  11  12
ENDBRANCH   9  11
ENDBRANCH   1  10
BRANCH   2  20
ATOM     20  C   UNL     1       8.294   0.781  25.280  0.00  0.00    +0.012 C 
BRANCH  20  21
ATOM     21  C   UNL     1       9.307  -0.312  25.616  0.00  0.00    +0.001 C 
BRANCH  21  22
ATOM     22  C   UNL     1       8.713  -1.386  26.522  0.00  0.00    +0.000 C 
BRANCH  22  23
ATOM     23  C   UNL     1       7.214  -1.148  26.706  0.00  0.00    +0.001 C 
BRANCH  23  24
ATOM     24  C   UNL     1       6.419  -2.394  26.337  0.00  0.00    +0.011 C 
BRANCH  24  25
ATOM     25  C   UNL     1       7.333  -3.576  26.029  0.00  0.00    +0.120 C 
BRANCH  25  26
ATOM     26  C   UNL     1       7.166  -4.665  27.060  0.00  0.00    +0.307 C 
ATOM     27  O   UNL     1       6.405  -4.622  28.022  0.00  0.00    -0.251 OA
BRANCH  26  28
ATOM     28  O   UNL     1       7.987  -5.711  26.766  0.00  0.00    -0.468 OA
ATOM     29  C   UNL     1       8.981  -5.394  25.790  0.00  0.00    +0.280 C 
ENDBRANCH  26  28
ENDBRANCH  25  26
ENDBRANCH  24  25
ENDBRANCH  23  24
ENDBRANCH  22  23
ENDBRANCH  21  22
ENDBRANCH  20  21
ENDBRANCH   2  20
TORSDOF 16
ENDMDL
MODEL 7
REMARK VINA RESULT:      -5.7      3.118      8.642
REMARK  Name = 
REMARK  19 active torsions:
REMARK  status: ('A' for Active; 'I' for Inactive)
REMARK    1  A    between atoms: C_1  and  C_2
REMARK    2  A    between atoms: C_2  and  C_3
REMARK    3  A    between atoms: C_3  and  C_4
REMARK    4  A    between atoms: C_4  and  C_5
REMARK    5  A    between atoms: C_5  and  C_6
REMARK    6  A    between atoms: C_5  and  O_7
REMARK    7  A    between atoms: C_5  and  C_8
REMARK    8  A    between atoms: C_8  and  C_9
REMARK    9  A    between atoms: C_10  and  C_11
REMARK   10  A    between atoms: C_13  and  O_15
REMARK   11  A    between atoms: C_19  and  C_21
REMARK   12  A    between atoms: C_21  and  C_22
REMARK   13  A    between atoms: C_22  and  C_23
REMARK   14  A    between atoms: C_23  and  C_24
REMARK   15  A    between atoms: C_24  and  C_25
REMARK   16  A    between atoms: C_25  and  C_26
REMARK   17  A    between atoms: C_26  and  C_27
REMARK   18  A    between atoms: C_27  and  O_29
REMARK   19  A    between atoms: O_29  and  C_30
REMARK                            x       y       z     vdW  Elec       q    Type
REMARK                         _______ _______ _______ _____ _____    ______ ____
ROOT
ATOM      1  C   UNL     1       7.154  -4.426  25.881  0.00  0.00    +0.050 C 
ATOM      2  C   UNL     1       7.736  -3.584  24.723  0.00  0.00    +0.065 C 
ATOM      3  C   UNL     1       9.226  -3.807  24.894  0.00  0.00    +0.140 C 
ATOM      4  O   UNL     1      10.085  -3.309  24.177  0.00  0.00    -0.297 OA
ATOM      5  C   UNL     1       9.558  -4.722  26.030  0.00  0.00    +0.106 C 
ATOM      6  C   UNL     1       8.245  -5.454  26.229  0.00  0.00    +0.129 C 
ENDROOT
BRANCH   6   7
ATOM      7  O   UNL     1       8.135  -5.917  27.570  0.00  0.00    -0.391 OA
ATOM      8  H   UNL     1       7.659  -6.765  27.577  0.00  0.00    +0.210 HD
ENDBRANCH   6   7
BRANCH   1  10
ATOM      9  C   UNL     1       4.720  -4.534  25.137  0.00  0.00    -0.028 C 
ATOM     10  C   UNL     1       5.840  -5.111  25.602  0.00  0.00    -0.024 C 
BRANCH   9  11
ATOM     11  C   UNL     1       3.437  -5.275  24.878  0.00  0.00    +0.061 C 
BRANCH  11  12
ATOM     12  C   UNL     1       3.405  -6.165  23.609  0.00  0.00    +0.067 C 
ATOM     13  C   UNL     1       1.978  -6.315  23.061  0.00  0.00    +0.041 C 
BRANCH  12  14
ATOM     14  O   UNL     1       3.896  -7.471  23.940  0.00  0.00    -0.389 OA
ATOM     15  H   UNL     1       3.255  -8.126  23.616  0.00  0.00    +0.210 HD
ENDBRANCH  12  14
BRANCH  12  16
ATOM     16  C   UNL     1       4.328  -5.580  22.512  0.00  0.00    +0.035 C 
BRANCH  16  17
ATOM     17  C   UNL     1       5.589  -6.420  22.270  0.00  0.00    +0.003 C 
BRANCH  17  19
ATOM     18  C   UNL     1       6.317  -4.154  21.499  0.00  0.00    +0.004 C 
ATOM     19  C   UNL     1       6.766  -5.580  21.783  0.00  0.00    -0.003 C 
ENDBRANCH  17  19
ENDBRANCH  16  17
ENDBRANCH  12  16
ENDBRANCH  11  12
ENDBRANCH   9  11
ENDBRANCH   1  10
BRANCH   2  20
ATOM     20  C   UNL     1       7.304  -2.118  24.833  0.00  0.00    +0.012 C 
BRANCH  20  21
ATOM     21  C   UNL     1       7.276  -1.630  26.282  0.00  0.00    +0.001 C 
BRANCH  21  22
ATOM     22  C   UNL     1       8.465  -0.732  26.606  0.00  0.00    +0.000 C 
BRANCH  22  23
ATOM     23  C   UNL     1       8.766   0.191  25.426  0.00  0.00    +0.001 C 
BRANCH  23  24
ATOM     24  C   UNL     1      10.237   0.115  25.040  0.00  0.00    +0.011 C 
BRANCH  24  25
ATOM     25  C   UNL     1      10.623   1.218  24.060  0.00  0.00    +0.120 C 
BRANCH  25  26
ATOM     26  C   UNL     1      10.165   0.877  22.663  0.00  0.00    +0.307 C 
ATOM     27  O   UNL     1       9.734   1.680  21.841  0.00  0.00    -0.251 OA
BRANCH  26  28
ATOM     28  O   UNL     1      10.299  -0.461  22.445  0.00  0.00    -0.468 OA
ATOM     29  C   UNL     1       9.236  -1.018  21.673  0.00  0.00    +0.280 C 
ENDBRANCH  26  28
ENDBRANCH  25  26
ENDBRANCH  24  25
ENDBRANCH  23  24
ENDBRANCH  22  23
ENDBRANCH  21  22
ENDBRANCH  20  21
ENDBRANCH   2  20
TORSDOF 16
ENDMDL
MODEL 8
REMARK VINA RESULT:      -5.5      2.215      8.564
REMARK  Name = 
REMARK  19 active torsions:
REMARK  status: ('A' for Active; 'I' for Inactive)
REMARK    1  A    between atoms: C_1  and  C_2
REMARK    2  A    between atoms: C_2  and  C_3
REMARK    3  A    between atoms: C_3  and  C_4
REMARK    4  A    between atoms: C_4  and  C_5
REMARK    5  A    between atoms: C_5  and  C_6
REMARK    6  A    between atoms: C_5  and  O_7
REMARK    7  A    between atoms: C_5  and  C_8
REMARK    8  A    between atoms: C_8  and  C_9
REMARK    9  A    between atoms: C_10  and  C_11
REMARK   10  A    between atoms: C_13  and  O_15
REMARK   11  A    between atoms: C_19  and  C_21
REMARK   12  A    between atoms: C_21  and  C_22
REMARK   13  A    between atoms: C_22  and  C_23
REMARK   14  A    between atoms: C_23  and  C_24
REMARK   15  A    between atoms: C_24  and  C_25
REMARK   16  A    between atoms: C_25  and  C_26
REMARK   17  A    between atoms: C_26  and  C_27
REMARK   18  A    between atoms: C_27  and  O_29
REMARK   19  A    between atoms: O_29  and  C_30
REMARK                            x       y       z     vdW  Elec       q    Type
REMARK                         _______ _______ _______ _____ _____    ______ ____
ROOT
ATOM      1  C   UNL     1       9.348  -0.730  23.613  0.00  0.00    +0.050 C 
ATOM      2  C   UNL     1       8.175   0.271  23.702  0.00  0.00    +0.065 C 
ATOM      3  C   UNL     1       8.056   0.743  22.267  0.00  0.00    +0.140 C 
ATOM      4  O   UNL     1       7.238   1.566  21.875  0.00  0.00    -0.297 OA
ATOM      5  C   UNL     1       9.038   0.086  21.348  0.00  0.00    +0.106 C 
ATOM      6  C   UNL     1       9.411  -1.156  22.135  0.00  0.00    +0.129 C 
ENDROOT
BRANCH   6   7
ATOM      7  O   UNL     1      10.709  -1.605  21.763  0.00  0.00    -0.391 OA
ATOM      8  H   UNL     1      11.133  -2.027  22.530  0.00  0.00    +0.210 HD
ENDBRANCH   6   7
BRANCH   1  10
ATOM      9  C   UNL     1       8.569  -2.022  25.665  0.00  0.00    -0.028 C 
ATOM     10  C   UNL     1       9.257  -1.935  24.515  0.00  0.00    -0.024 C 
BRANCH   9  11
ATOM     11  C   UNL     1       8.517  -3.257  26.522  0.00  0.00    +0.061 C 
BRANCH  11  12
ATOM     12  C   UNL     1       7.146  -3.976  26.605  0.00  0.00    +0.067 C 
ATOM     13  C   UNL     1       6.000  -2.980  26.835  0.00  0.00    +0.041 C 
BRANCH  12  14
ATOM     14  O   UNL     1       7.164  -4.898  27.703  0.00  0.00    -0.389 OA
ATOM     15  H   UNL     1       7.981  -4.749  28.208  0.00  0.00    +0.210 HD
ENDBRANCH  12  14
BRANCH  12  16
ATOM     16  C   UNL     1       6.881  -4.789  25.313  0.00  0.00    +0.035 C 
BRANCH  16  17
ATOM     17  C   UNL     1       5.751  -4.206  24.453  0.00  0.00    +0.003 C 
BRANCH  17  19
ATOM     18  C   UNL     1       6.057  -2.604  22.556  0.00  0.00    +0.004 C 
ATOM     19  C   UNL     1       6.149  -4.060  22.987  0.00  0.00    -0.003 C 
ENDBRANCH  17  19
ENDBRANCH  16  17
ENDBRANCH  12  16
ENDBRANCH  11  12
ENDBRANCH   9  11
ENDBRANCH   1  10
BRANCH   2  20
ATOM     20  C   UNL     1       8.477   1.388  24.707  0.00  0.00    +0.012 C 
BRANCH  20  21
ATOM     21  C   UNL     1       9.723   2.188  24.327  0.00  0.00    +0.001 C 
BRANCH  21  22
ATOM     22  C   UNL     1       9.374   3.569  23.783  0.00  0.00    +0.000 C 
BRANCH  22  23
ATOM     23  C   UNL     1       8.983   4.502  24.928  0.00  0.00    +0.001 C 
BRANCH  23  24
ATOM     24  C   UNL     1       9.558   5.896  24.711  0.00  0.00    +0.011 C 
BRANCH  24  25
ATOM     25  C   UNL     1      10.611   5.907  23.607  0.00  0.00    +0.120 C 
BRANCH  25  26
ATOM     26  C   UNL     1      11.999   5.985  24.192  0.00  0.00    +0.307 C 
ATOM     27  O   UNL     1      12.348   6.739  25.096  0.00  0.00    -0.251 OA
BRANCH  26  28
ATOM     28  O   UNL     1      12.816   5.092  23.567  0.00  0.00    -0.468 OA
ATOM     29  C   UNL     1      13.233   5.517  22.269  0.00  0.00    +0.280 C 
ENDBRANCH  26  28
ENDBRANCH  25  26
ENDBRANCH  24  25
ENDBRANCH  23  24
ENDBRANCH  22  23
ENDBRANCH  21  22
ENDBRANCH  20  21
ENDBRANCH   2  20
TORSDOF 16
ENDMDL
MODEL 9
REMARK VINA RESULT:      -5.5      2.642      4.641
REMARK  Name = 
REMARK  19 active torsions:
REMARK  status: ('A' for Active; 'I' for Inactive)
REMARK    1  A    between atoms: C_1  and  C_2
REMARK    2  A    between atoms: C_2  and  C_3
REMARK    3  A    between atoms: C_3  and  C_4
REMARK    4  A    between atoms: C_4  and  C_5
REMARK    5  A    between atoms: C_5  and  C_6
REMARK    6  A    between atoms: C_5  and  O_7
REMARK    7  A    between atoms: C_5  and  C_8
REMARK    8  A    between atoms: C_8  and  C_9
REMARK    9  A    between atoms: C_10  and  C_11
REMARK   10  A    between atoms: C_13  and  O_15
REMARK   11  A    between atoms: C_19  and  C_21
REMARK   12  A    between atoms: C_21  and  C_22
REMARK   13  A    between atoms: C_22  and  C_23
REMARK   14  A    between atoms: C_23  and  C_24
REMARK   15  A    between atoms: C_24  and  C_25
REMARK   16  A    between atoms: C_25  and  C_26
REMARK   17  A    between atoms: C_26  and  C_27
REMARK   18  A    between atoms: C_27  and  O_29
REMARK   19  A    between atoms: O_29  and  C_30
REMARK                            x       y       z     vdW  Elec       q    Type
REMARK                         _______ _______ _______ _____ _____    ______ ____
ROOT
ATOM      1  C   UNL     1       6.657  -2.514  23.812  0.00  0.00    +0.050 C 
ATOM      2  C   UNL     1       7.917  -2.936  24.600  0.00  0.00    +0.065 C 
ATOM      3  C   UNL     1       8.253  -4.269  23.961  0.00  0.00    +0.140 C 
ATOM      4  O   UNL     1       9.199  -4.974  24.292  0.00  0.00    -0.297 OA
ATOM      5  C   UNL     1       7.316  -4.646  22.857  0.00  0.00    +0.106 C 
ATOM      6  C   UNL     1       6.717  -3.302  22.491  0.00  0.00    +0.129 C 
ENDROOT
BRANCH   6   7
ATOM      7  O   UNL     1       5.428  -3.476  21.912  0.00  0.00    -0.391 OA
ATOM      8  H   UNL     1       5.038  -2.603  21.735  0.00  0.00    +0.210 HD
ENDBRANCH   6   7
BRANCH   1  10
ATOM      9  C   UNL     1       7.136  -0.043  24.195  0.00  0.00    -0.028 C 
ATOM     10  C   UNL     1       6.506  -1.037  23.549  0.00  0.00    -0.024 C 
BRANCH   9  11
ATOM     11  C   UNL     1       6.944   1.417  23.885  0.00  0.00    +0.061 C 
BRANCH  11  12
ATOM     12  C   UNL     1       8.211   2.198  23.451  0.00  0.00    +0.067 C 
ATOM     13  C   UNL     1       9.412   1.867  24.349  0.00  0.00    +0.041 C 
BRANCH  12  14
ATOM     14  O   UNL     1       7.953   3.604  23.549  0.00  0.00    -0.389 OA
ATOM     15  H   UNL     1       6.998   3.728  23.679  0.00  0.00    +0.210 HD
ENDBRANCH  12  14
BRANCH  12  16
ATOM     16  C   UNL     1       8.560   1.886  21.974  0.00  0.00    +0.035 C 
BRANCH  16  17
ATOM     17  C   UNL     1       9.821   1.024  21.819  0.00  0.00    +0.003 C 
BRANCH  17  19
ATOM     18  C   UNL     1      10.169  -1.403  22.313  0.00  0.00    +0.004 C 
ATOM     19  C   UNL     1       9.502  -0.402  21.382  0.00  0.00    -0.003 C 
ENDBRANCH  17  19
ENDBRANCH  16  17
ENDBRANCH  12  16
ENDBRANCH  11  12
ENDBRANCH   9  11
ENDBRANCH   1  10
BRANCH   2  20
ATOM     20  C   UNL     1       7.628  -3.015  26.103  0.00  0.00    +0.012 C 
BRANCH  20  21
ATOM     21  C   UNL     1       6.131  -3.094  26.402  0.00  0.00    +0.001 C 
BRANCH  21  22
ATOM     22  C   UNL     1       5.807  -4.183  27.419  0.00  0.00    +0.000 C 
BRANCH  22  23
ATOM     23  C   UNL     1       6.306  -5.538  26.918  0.00  0.00    +0.001 C 
BRANCH  23  24
ATOM     24  C   UNL     1       5.489  -6.006  25.721  0.00  0.00    +0.011 C 
BRANCH  24  25
ATOM     25  C   UNL     1       4.397  -6.989  26.132  0.00  0.00    +0.120 C 
BRANCH  25  26
ATOM     26  C   UNL     1       3.464  -7.267  24.979  0.00  0.00    +0.307 C 
ATOM     27  O   UNL     1       3.086  -8.379  24.622  0.00  0.00    -0.251 OA
BRANCH  26  28
ATOM     28  O   UNL     1       3.100  -6.096  24.386  0.00  0.00    -0.468 OA
ATOM     29  C   UNL     1       2.681  -6.254  23.030  0.00  0.00    +0.280 C 
ENDBRANCH  26  28
ENDBRANCH  25  26
ENDBRANCH  24  25
ENDBRANCH  23  24
ENDBRANCH  22  23
ENDBRANCH  21  22
ENDBRANCH  20  21
ENDBRANCH   2  20
TORSDOF 16
ENDMDL
