MODEL 1
REMARK VINA RESULT:      -3.9      0.000      0.000
REMARK  Name = 
REMARK  7 active torsions:
REMARK  status: ('A' for Active; 'I' for Inactive)
REMARK    1  A    between atoms: C_1  and  C_2
REMARK    2  A    between atoms: C_2  and  O_4
REMARK    3  A    between atoms: C_2  and  C_5
REMARK    4  A    between atoms: C_5  and  C_6
REMARK    5  A    between atoms: C_6  and  C_7
REMARK    6  A    between atoms: C_6  and  C_8
REMARK    7  A    between atoms: C_6  and  O_9
REMARK                            x       y       z     vdW  Elec       q    Type
REMARK                         _______ _______ _______ _____ _____    ______ ____
ROOT
ATOM      1  C   UNL     1       9.336   0.124  21.462  0.00  0.00    +0.065 C 
ENDROOT
BRANCH   1   2
ATOM      2  C   UNL     1       9.555  -1.094  22.387  0.00  0.00    +0.063 C 
ATOM      3  C   UNL     1       8.432  -2.127  22.306  0.00  0.00    +0.041 C 
ATOM      4  C   UNL     1       9.836  -0.734  23.845  0.00  0.00    +0.041 C 
BRANCH   2   5
ATOM      5  O   UNL     1      10.734  -1.760  21.890  0.00  0.00    -0.389 OA
ATOM      6  H   UNL     1      11.406  -1.082  21.703  0.00  0.00    +0.210 HD
ENDBRANCH   2   5
ENDBRANCH   1   2
BRANCH   1   8
ATOM      7  C   UNL     1       7.941   2.269  21.774  0.00  0.00    +0.037 C 
ATOM      8  C   UNL     1       9.253   1.545  22.036  0.00  0.00    +0.114 C 
BRANCH   8   9
ATOM      9  O   UNL     1      10.322   2.361  21.583  0.00  0.00    -0.392 OA
ATOM     10  H   UNL     1      10.435   3.084  22.225  0.00  0.00    +0.210 HD
ENDBRANCH   8   9
ENDBRANCH   1   8
TORSDOF 4
ENDMDL
MODEL 2
REMARK VINA RESULT:      -3.7      1.121      3.757
REMARK  Name = 
REMARK  7 active torsions:
REMARK  status: ('A' for Active; 'I' for Inactive)
REMARK    1  A    between atoms: C_1  and  C_2
REMARK    2  A    between atoms: C_2  and  O_4
REMARK    3  A    between atoms: C_2  and  C_5
REMARK    4  A    between atoms: C_5  and  C_6
REMARK    5  A    between atoms: C_6  and  C_7
REMARK    6  A    between atoms: C_6  and  C_8
REMARK    7  A    between atoms: C_6  and  O_9
REMARK                            x       y       z     vdW  Elec       q    Type
REMARK                         _______ _______ _______ _____ _____    ______ ____
ROOT
ATOM      1  C   UNL     1      10.261   0.332  22.986  0.00  0.00    +0.065 C 
ENDROOT
BRANCH   1   2
ATOM      2  C   UNL     1       9.516   1.627  22.591  0.00  0.00    +0.063 C 
ATOM      3  C   UNL     1       9.396   2.632  23.735  0.00  0.00    +0.041 C 
ATOM      4  C   UNL     1       8.148   1.394  21.949  0.00  0.00    +0.041 C 
BRANCH   2   5
ATOM      5  O   UNL     1      10.339   2.267  21.594  0.00  0.00    -0.389 OA
ATOM      6  H   UNL     1       9.812   2.970  21.176  0.00  0.00    +0.210 HD
ENDBRANCH   2   5
ENDBRANCH   1   2
BRANCH   1   8
ATOM      7  C   UNL     1       9.916  -2.125  23.683  0.00  0.00    +0.037 C 
ATOM      8  C   UNL     1       9.686  -1.046  22.636  0.00  0.00    +0.114 C 
BRANCH   8   9
ATOM      9  O   UNL     1      10.165  -1.517  21.385  0.00  0.00    -0.392 OA
ATOM     10  H   UNL     1      11.050  -1.895  21.531  0.00  0.00    +0.210 HD
ENDBRANCH   8   9
ENDBRANCH   1   8
TORSDOF 4
ENDMDL
MODEL 3
REMARK VINA RESULT:      -3.6      1.964      3.503
REMARK  Name = 
REMARK  7 active torsions:
REMARK  status: ('A' for Active; 'I' for Inactive)
REMARK    1  A    between atoms: C_1  and  C_2
REMARK    2  A    between atoms: C_2  and  O_4
REMARK    3  A    between atoms: C_2  and  C_5
REMARK    4  A    between atoms: C_5  and  C_6
REMARK    5  A    between atoms: C_6  and  C_7
REMARK    6  A    between atoms: C_6  and  C_8
REMARK    7  A    between atoms: C_6  and  O_9
REMARK                            x       y       z     vdW  Elec       q    Type
REMARK                         _______ _______ _______ _____ _____    ______ ____
ROOT
ATOM      1  C   UNL     1       9.559   1.713  23.676  0.00  0.00    +0.065 C 
ENDROOT
BRANCH   1   2
ATOM      2  C   UNL     1       9.378   1.495  22.157  0.00  0.00    +0.063 C 
ATOM      3  C   UNL     1       8.011   1.939  21.639  0.00  0.00    +0.041 C 
ATOM      4  C   UNL     1       9.686   0.075  21.684  0.00  0.00    +0.041 C 
BRANCH   2   5
ATOM      5  O   UNL     1      10.337   2.363  21.517  0.00  0.00    -0.389 OA
ATOM      6  H   UNL     1      10.764   2.899  22.207  0.00  0.00    +0.210 HD
ENDBRANCH   2   5
ENDBRANCH   1   2
BRANCH   1   8
ATOM      7  C   UNL     1       8.172   0.553  25.512  0.00  0.00    +0.037 C 
ATOM      8  C   UNL     1       9.432   0.543  24.660  0.00  0.00    +0.114 C 
BRANCH   8   9
ATOM      9  O   UNL     1      10.560   0.447  25.517  0.00  0.00    -0.392 OA
ATOM     10  H   UNL     1      10.263   0.648  26.421  0.00  0.00    +0.210 HD
ENDBRANCH   8   9
ENDBRANCH   1   8
TORSDOF 4
ENDMDL
MODEL 4
REMARK VINA RESULT:      -3.5      1.849      2.615
REMARK  Name = 
REMARK  7 active torsions:
REMARK  status: ('A' for Active; 'I' for Inactive)
REMARK    1  A    between atoms: C_1  and  C_2
REMARK    2  A    between atoms: C_2  and  O_4
REMARK    3  A    between atoms: C_2  and  C_5
REMARK    4  A    between atoms: C_5  and  C_6
REMARK    5  A    between atoms: C_6  and  C_7
REMARK    6  A    between atoms: C_6  and  C_8
REMARK    7  A    between atoms: C_6  and  O_9
REMARK                            x       y       z     vdW  Elec       q    Type
REMARK                         _______ _______ _______ _____ _____    ______ ____
ROOT
ATOM      1  C   UNL     1       8.765  -1.173  23.342  0.00  0.00    +0.065 C 
ENDROOT
BRANCH   1   2
ATOM      2  C   UNL     1       8.839  -2.549  24.042  0.00  0.00    +0.063 C 
ATOM      3  C   UNL     1       7.964  -3.614  23.381  0.00  0.00    +0.041 C 
ATOM      4  C   UNL     1       8.571  -2.505  25.546  0.00  0.00    +0.041 C 
BRANCH   2   5
ATOM      5  O   UNL     1      10.198  -3.003  23.876  0.00  0.00    -0.389 OA
ATOM      6  H   UNL     1      10.389  -3.645  24.581  0.00  0.00    +0.210 HD
ENDBRANCH   2   5
ENDBRANCH   1   2
BRANCH   1   8
ATOM      7  C   UNL     1       9.714   0.705  21.855  0.00  0.00    +0.037 C 
ATOM      8  C   UNL     1       9.918  -0.674  22.462  0.00  0.00    +0.114 C 
BRANCH   8   9
ATOM      9  O   UNL     1      10.222  -1.589  21.420  0.00  0.00    -0.392 OA
ATOM     10  H   UNL     1      10.488  -1.072  20.640  0.00  0.00    +0.210 HD
ENDBRANCH   8   9
ENDBRANCH   1   8
TORSDOF 4
ENDMDL
MODEL 5
REMARK VINA RESULT:      -3.4      1.733      3.763
REMARK  Name = 
REMARK  7 active torsions:
REMARK  status: ('A' for Active; 'I' for Inactive)
REMARK    1  A    between atoms: C_1  and  C_2
REMARK    2  A    between atoms: C_2  and  O_4
REMARK    3  A    between atoms: C_2  and  C_5
REMARK    4  A    between atoms: C_5  and  C_6
REMARK    5  A    between atoms: C_6  and  C_7
REMARK    6  A    between atoms: C_6  and  C_8
REMARK    7  A    between atoms: C_6  and  O_9
REMARK                            x       y       z     vdW  Elec       q    Type
REMARK                         _______ _______ _______ _____ _____    ______ ____
ROOT
ATOM      1  C   UNL     1       8.061  -1.168  22.723  0.00  0.00    +0.065 C 
ENDROOT
BRANCH   1   2
ATOM      2  C   UNL     1       9.455  -0.599  22.378  0.00  0.00    +0.063 C 
ATOM      3  C   UNL     1      10.342  -0.383  23.604  0.00  0.00    +0.041 C 
ATOM      4  C   UNL     1       9.425   0.666  21.522  0.00  0.00    +0.041 C 
BRANCH   2   5
ATOM      5  O   UNL     1      10.114  -1.615  21.595  0.00  0.00    -0.389 OA
ATOM      6  H   UNL     1      10.766  -1.177  21.022  0.00  0.00    +0.210 HD
ENDBRANCH   2   5
ENDBRANCH   1   2
BRANCH   1   8
ATOM      7  C   UNL     1       6.205  -2.911  22.325  0.00  0.00    +0.037 C 
ATOM      8  C   UNL     1       7.696  -2.619  22.381  0.00  0.00    +0.114 C 
BRANCH   8   9
ATOM      9  O   UNL     1       8.307  -3.541  23.271  0.00  0.00    -0.392 OA
ATOM     10  H   UNL     1       8.877  -4.128  22.744  0.00  0.00    +0.210 HD
ENDBRANCH   8   9
ENDBRANCH   1   8
TORSDOF 4
ENDMDL
MODEL 6
REMARK VINA RESULT:      -3.4      3.135      5.302
REMARK  Name = 
REMARK  7 active torsions:
REMARK  status: ('A' for Active; 'I' for Inactive)
REMARK    1  A    between atoms: C_1  and  C_2
REMARK    2  A    between atoms: C_2  and  O_4
REMARK    3  A    between atoms: C_2  and  C_5
REMARK    4  A    between atoms: C_5  and  C_6
REMARK    5  A    between atoms: C_6  and  C_7
REMARK    6  A    between atoms: C_6  and  C_8
REMARK    7  A    between atoms: C_6  and  O_9
REMARK                            x       y       z     vdW  Elec       q    Type
REMARK                         _______ _______ _______ _____ _____    ______ ____
ROOT
ATOM      1  C   UNL     1      10.388   3.625  23.717  0.00  0.00    +0.065 C 
ENDROOT
BRANCH   1   2
ATOM      2  C   UNL     1       9.421   4.826  23.826  0.00  0.00    +0.063 C 
ATOM      3  C   UNL     1      10.117   6.179  23.688  0.00  0.00    +0.041 C 
ATOM      4  C   UNL     1       8.540   4.813  25.075  0.00  0.00    +0.041 C 
BRANCH   2   5
ATOM      5  O   UNL     1       8.536   4.725  22.692  0.00  0.00    -0.389 OA
ATOM      6  H   UNL     1       8.945   4.126  22.044  0.00  0.00    +0.210 HD
ENDBRANCH   2   5
ENDBRANCH   1   2
BRANCH   1   8
ATOM      7  C   UNL     1      10.514   1.051  23.725  0.00  0.00    +0.037 C 
ATOM      8  C   UNL     1       9.932   2.302  23.086  0.00  0.00    +0.114 C 
BRANCH   8   9
ATOM      9  O   UNL     1      10.194   2.264  21.691  0.00  0.00    -0.392 OA
ATOM     10  H   UNL     1      10.482   3.153  21.420  0.00  0.00    +0.210 HD
ENDBRANCH   8   9
ENDBRANCH   1   8
TORSDOF 4
ENDMDL
MODEL 7
REMARK VINA RESULT:      -3.3      1.954      3.040
REMARK  Name = 
REMARK  7 active torsions:
REMARK  status: ('A' for Active; 'I' for Inactive)
REMARK    1  A    between atoms: C_1  and  C_2
REMARK    2  A    between atoms: C_2  and  O_4
REMARK    3  A    between atoms: C_2  and  C_5
REMARK    4  A    between atoms: C_5  and  C_6
REMARK    5  A    between atoms: C_6  and  C_7
REMARK    6  A    between atoms: C_6  and  C_8
REMARK    7  A    between atoms: C_6  and  O_9
REMARK                            x       y       z     vdW  Elec       q    Type
REMARK                         _______ _______ _______ _____ _____    ______ ____
ROOT
ATOM      1  C   UNL     1       9.612   1.961  23.613  0.00  0.00    +0.065 C 
ENDROOT
BRANCH   1   2
ATOM      2  C   UNL     1       9.437   1.499  22.148  0.00  0.00    +0.063 C 
ATOM      3  C   UNL     1       8.044   1.782  21.586  0.00  0.00    +0.041 C 
ATOM      4  C   UNL     1       9.820   0.041  21.899  0.00  0.00    +0.041 C 
BRANCH   2   5
ATOM      5  O   UNL     1      10.343   2.306  21.369  0.00  0.00    -0.389 OA
ATOM      6  H   UNL     1       9.960   2.417  20.482  0.00  0.00    +0.210 HD
ENDBRANCH   2   5
ENDBRANCH   1   2
BRANCH   1   8
ATOM      7  C   UNL     1       8.545   4.306  23.676  0.00  0.00    +0.037 C 
ATOM      8  C   UNL     1       9.770   3.449  23.955  0.00  0.00    +0.114 C 
BRANCH   8   9
ATOM      9  O   UNL     1      10.889   4.026  23.300  0.00  0.00    -0.392 OA
ATOM     10  H   UNL     1      10.685   4.069  22.350  0.00  0.00    +0.210 HD
ENDBRANCH   8   9
ENDBRANCH   1   8
TORSDOF 4
ENDMDL
MODEL 8
REMARK VINA RESULT:      -3.3      1.578      3.464
REMARK  Name = 
REMARK  7 active torsions:
REMARK  status: ('A' for Active; 'I' for Inactive)
REMARK    1  A    between atoms: C_1  and  C_2
REMARK    2  A    between atoms: C_2  and  O_4
REMARK    3  A    between atoms: C_2  and  C_5
REMARK    4  A    between atoms: C_5  and  C_6
REMARK    5  A    between atoms: C_6  and  C_7
REMARK    6  A    between atoms: C_6  and  C_8
REMARK    7  A    between atoms: C_6  and  O_9
REMARK                            x       y       z     vdW  Elec       q    Type
REMARK                         _______ _______ _______ _____ _____    ______ ____
ROOT
ATOM      1  C   UNL     1       8.809  -0.316  23.289  0.00  0.00    +0.065 C 
ENDROOT
BRANCH   1   2
ATOM      2  C   UNL     1       9.743   0.912  23.379  0.00  0.00    +0.063 C 
ATOM      3  C   UNL     1       9.340   1.903  24.470  0.00  0.00    +0.041 C 
ATOM      4  C   UNL     1       9.950   1.644  22.053  0.00  0.00    +0.041 C 
BRANCH   2   5
ATOM      5  O   UNL     1      11.032   0.399  23.775  0.00  0.00    -0.389 OA
ATOM      6  H   UNL     1      10.892  -0.246  24.489  0.00  0.00    +0.210 HD
ENDBRANCH   2   5
ENDBRANCH   1   2
BRANCH   1   8
ATOM      7  C   UNL     1       8.076  -2.563  22.261  0.00  0.00    +0.037 C 
ATOM      8  C   UNL     1       8.916  -1.303  22.119  0.00  0.00    +0.114 C 
BRANCH   8   9
ATOM      9  O   UNL     1      10.261  -1.679  21.866  0.00  0.00    -0.392 OA
ATOM     10  H   UNL     1      10.298  -2.651  21.844  0.00  0.00    +0.210 HD
ENDBRANCH   8   9
ENDBRANCH   1   8
TORSDOF 4
ENDMDL
MODEL 9
REMARK VINA RESULT:      -3.3      2.201      2.661
REMARK  Name = 
REMARK  7 active torsions:
REMARK  status: ('A' for Active; 'I' for Inactive)
REMARK    1  A    between atoms: C_1  and  C_2
REMARK    2  A    between atoms: C_2  and  O_4
REMARK    3  A    between atoms: C_2  and  C_5
REMARK    4  A    between atoms: C_5  and  C_6
REMARK    5  A    between atoms: C_6  and  C_7
REMARK    6  A    between atoms: C_6  and  C_8
REMARK    7  A    between atoms: C_6  and  O_9
REMARK                            x       y       z     vdW  Elec       q    Type
REMARK                         _______ _______ _______ _____ _____    ______ ____
ROOT
ATOM      1  C   UNL     1       9.183   1.377  23.735  0.00  0.00    +0.065 C 
ENDROOT
BRANCH   1   2
ATOM      2  C   UNL     1       9.457   0.141  24.622  0.00  0.00    +0.063 C 
ATOM      3  C   UNL     1       9.922  -1.081  23.832  0.00  0.00    +0.041 C 
ATOM      4  C   UNL     1       8.302  -0.238  25.548  0.00  0.00    +0.041 C 
BRANCH   2   5
ATOM      5  O   UNL     1      10.567   0.503  25.469  0.00  0.00    -0.389 OA
ATOM      6  H   UNL     1      10.295   1.260  26.015  0.00  0.00    +0.210 HD
ENDBRANCH   2   5
ENDBRANCH   1   2
BRANCH   1   8
ATOM      7  C   UNL     1      10.850   3.304  23.356  0.00  0.00    +0.037 C 
ATOM      8  C   UNL     1      10.290   1.980  22.861  0.00  0.00    +0.114 C 
BRANCH   8   9
ATOM      9  O   UNL     1       9.873   2.138  21.513  0.00  0.00    -0.392 OA
ATOM     10  H   UNL     1       9.877   1.259  21.098  0.00  0.00    +0.210 HD
ENDBRANCH   8   9
ENDBRANCH   1   8
TORSDOF 4
ENDMDL
