MODEL 1
REMARK VINA RESULT:      -4.7      0.000      0.000
REMARK  Name = 
REMARK  2 active torsions:
REMARK  status: ('A' for Active; 'I' for Inactive)
REMARK    1  A    between atoms: O_1  and  C_2
REMARK    2  A    between atoms: C_2  and  C_3
REMARK                            x       y       z     vdW  Elec       q    Type
REMARK                         _______ _______ _______ _____ _____    ______ ____
ROOT
ATOM      1  C   UNL     1       9.990  -0.524  22.895  0.00  0.00    +0.013 A 
ATOM      2  C   UNL     1       9.743   0.406  21.878  0.00  0.00    +0.131 A 
ATOM      3  F   UNL     1       9.276  -0.014  20.693  0.00  0.00    -0.205 F 
ATOM      4  C   UNL     1       9.962   1.766  22.065  0.00  0.00    +0.077 A 
ATOM      5  C   UNL     1      10.427   2.207  23.296  0.00  0.00    +0.126 A 
ATOM      6  F   UNL     1      10.636   3.514  23.492  0.00  0.00    -0.205 F 
ATOM      7  C   UNL     1      10.672   1.312  24.332  0.00  0.00    +0.039 A 
ATOM      8  C   UNL     1      10.450  -0.052  24.134  0.00  0.00    +0.011 A 
ENDROOT
BRANCH   1   9
ATOM      9  C   UNL     1       9.687  -1.978  22.657  0.00  0.00    +0.194 C 
BRANCH   9  10
ATOM     10  O   UNL     1      10.223  -2.785  23.699  0.00  0.00    -0.390 OA
ATOM     11  H   UNL     1      10.642  -2.179  24.332  0.00  0.00    +0.210 HD
ENDBRANCH   9  10
ENDBRANCH   1   9
TORSDOF 2
ENDMDL
MODEL 2
REMARK VINA RESULT:      -4.7      2.572      4.256
REMARK  Name = 
REMARK  2 active torsions:
REMARK  status: ('A' for Active; 'I' for Inactive)
REMARK    1  A    between atoms: O_1  and  C_2
REMARK    2  A    between atoms: C_2  and  C_3
REMARK                            x       y       z     vdW  Elec       q    Type
REMARK                         _______ _______ _______ _____ _____    ______ ____
ROOT
ATOM      1  C   UNL     1      10.287   1.710  23.097  0.00  0.00    +0.013 A 
ATOM      2  C   UNL     1      10.552   0.556  23.843  0.00  0.00    +0.131 A 
ATOM      3  F   UNL     1      11.122   0.664  25.053  0.00  0.00    -0.205 F 
ATOM      4  C   UNL     1      10.232  -0.710  23.368  0.00  0.00    +0.077 A 
ATOM      5  C   UNL     1       9.625  -0.825  22.125  0.00  0.00    +0.126 A 
ATOM      6  F   UNL     1       9.305  -2.038  21.657  0.00  0.00    -0.205 F 
ATOM      7  C   UNL     1       9.336   0.301  21.361  0.00  0.00    +0.039 A 
ATOM      8  C   UNL     1       9.663   1.568  21.848  0.00  0.00    +0.011 A 
ENDROOT
BRANCH   1   9
ATOM      9  C   UNL     1      10.606   3.058  23.681  0.00  0.00    +0.194 C 
BRANCH   9  10
ATOM     10  O   UNL     1      11.346   3.849  22.758  0.00  0.00    -0.390 OA
ATOM     11  H   UNL     1      12.286   3.677  22.937  0.00  0.00    +0.210 HD
ENDBRANCH   9  10
ENDBRANCH   1   9
TORSDOF 2
ENDMDL
MODEL 3
REMARK VINA RESULT:      -4.5      2.641      4.345
REMARK  Name = 
REMARK  2 active torsions:
REMARK  status: ('A' for Active; 'I' for Inactive)
REMARK    1  A    between atoms: O_1  and  C_2
REMARK    2  A    between atoms: C_2  and  C_3
REMARK                            x       y       z     vdW  Elec       q    Type
REMARK                         _______ _______ _______ _____ _____    ______ ____
ROOT
ATOM      1  C   UNL     1       9.977   0.427  22.922  0.00  0.00    +0.013 A 
ATOM      2  C   UNL     1      10.079  -0.220  24.159  0.00  0.00    +0.131 A 
ATOM      3  F   UNL     1      10.541   0.452  25.224  0.00  0.00    -0.205 F 
ATOM      4  C   UNL     1       9.703  -1.548  24.321  0.00  0.00    +0.077 A 
ATOM      5  C   UNL     1       9.206  -2.242  23.227  0.00  0.00    +0.126 A 
ATOM      6  F   UNL     1       8.834  -3.520  23.369  0.00  0.00    -0.205 F 
ATOM      7  C   UNL     1       9.080  -1.628  21.985  0.00  0.00    +0.039 A 
ATOM      8  C   UNL     1       9.462  -0.293  21.833  0.00  0.00    +0.011 A 
ENDROOT
BRANCH   1   9
ATOM      9  C   UNL     1      10.349   1.879  22.814  0.00  0.00    +0.194 C 
BRANCH   9  10
ATOM     10  O   UNL     1      10.159   2.355  21.487  0.00  0.00    -0.390 OA
ATOM     11  H   UNL     1      10.916   2.930  21.288  0.00  0.00    +0.210 HD
ENDBRANCH   9  10
ENDBRANCH   1   9
TORSDOF 2
ENDMDL
MODEL 4
REMARK VINA RESULT:      -4.5      1.857      2.580
REMARK  Name = 
REMARK  2 active torsions:
REMARK  status: ('A' for Active; 'I' for Inactive)
REMARK    1  A    between atoms: O_1  and  C_2
REMARK    2  A    between atoms: C_2  and  C_3
REMARK                            x       y       z     vdW  Elec       q    Type
REMARK                         _______ _______ _______ _____ _____    ______ ____
ROOT
ATOM      1  C   UNL     1       9.331  -1.356  23.589  0.00  0.00    +0.013 A 
ATOM      2  C   UNL     1       9.853  -0.264  24.292  0.00  0.00    +0.131 A 
ATOM      3  F   UNL     1      10.015  -0.345  25.621  0.00  0.00    -0.205 F 
ATOM      4  C   UNL     1      10.221   0.911  23.647  0.00  0.00    +0.077 A 
ATOM      5  C   UNL     1      10.074   0.993  22.269  0.00  0.00    +0.126 A 
ATOM      6  F   UNL     1      10.430   2.115  21.633  0.00  0.00    -0.205 F 
ATOM      7  C   UNL     1       9.569  -0.077  21.537  0.00  0.00    +0.039 A 
ATOM      8  C   UNL     1       9.201  -1.252  22.196  0.00  0.00    +0.011 A 
ENDROOT
BRANCH   1   9
ATOM      9  C   UNL     1       8.998  -2.621  24.330  0.00  0.00    +0.194 C 
BRANCH   9  10
ATOM     10  O   UNL     1      10.060  -3.562  24.232  0.00  0.00    -0.390 OA
ATOM     11  H   UNL     1      10.867  -3.051  24.053  0.00  0.00    +0.210 HD
ENDBRANCH   9  10
ENDBRANCH   1   9
TORSDOF 2
ENDMDL
MODEL 5
REMARK VINA RESULT:      -4.4      1.530      2.150
REMARK  Name = 
REMARK  2 active torsions:
REMARK  status: ('A' for Active; 'I' for Inactive)
REMARK    1  A    between atoms: O_1  and  C_2
REMARK    2  A    between atoms: C_2  and  C_3
REMARK                            x       y       z     vdW  Elec       q    Type
REMARK                         _______ _______ _______ _____ _____    ______ ____
ROOT
ATOM      1  C   UNL     1       9.671  -0.342  22.961  0.00  0.00    +0.013 A 
ATOM      2  C   UNL     1       9.974   0.188  24.221  0.00  0.00    +0.131 A 
ATOM      3  F   UNL     1       9.949  -0.609  25.300  0.00  0.00    -0.205 F 
ATOM      4  C   UNL     1      10.313   1.525  24.388  0.00  0.00    +0.077 A 
ATOM      5  C   UNL     1      10.360   2.349  23.272  0.00  0.00    +0.126 A 
ATOM      6  F   UNL     1      10.690   3.638  23.416  0.00  0.00    -0.205 F 
ATOM      7  C   UNL     1      10.076   1.854  22.003  0.00  0.00    +0.039 A 
ATOM      8  C   UNL     1       9.735   0.509  21.847  0.00  0.00    +0.011 A 
ENDROOT
BRANCH   1   9
ATOM      9  C   UNL     1       9.362  -1.807  22.830  0.00  0.00    +0.194 C 
BRANCH   9  10
ATOM     10  O   UNL     1      10.522  -2.595  23.068  0.00  0.00    -0.390 OA
ATOM     11  H   UNL     1      11.026  -2.143  23.765  0.00  0.00    +0.210 HD
ENDBRANCH   9  10
ENDBRANCH   1   9
TORSDOF 2
ENDMDL
MODEL 6
REMARK VINA RESULT:      -4.4      2.524      3.640
REMARK  Name = 
REMARK  2 active torsions:
REMARK  status: ('A' for Active; 'I' for Inactive)
REMARK    1  A    between atoms: O_1  and  C_2
REMARK    2  A    between atoms: C_2  and  C_3
REMARK                            x       y       z     vdW  Elec       q    Type
REMARK                         _______ _______ _______ _____ _____    ______ ____
ROOT
ATOM      1  C   UNL     1       9.950   0.687  22.739  0.00  0.00    +0.013 A 
ATOM      2  C   UNL     1       9.620  -0.454  22.000  0.00  0.00    +0.131 A 
ATOM      3  F   UNL     1       9.413  -0.354  20.679  0.00  0.00    -0.205 F 
ATOM      4  C   UNL     1       9.508  -1.704  22.599  0.00  0.00    +0.077 A 
ATOM      5  C   UNL     1       9.741  -1.817  23.963  0.00  0.00    +0.126 A 
ATOM      6  F   UNL     1       9.643  -3.014  24.552  0.00  0.00    -0.205 F 
ATOM      7  C   UNL     1      10.082  -0.705  24.727  0.00  0.00    +0.039 A 
ATOM      8  C   UNL     1      10.190   0.546  24.115  0.00  0.00    +0.011 A 
ENDROOT
BRANCH   1   9
ATOM      9  C   UNL     1      10.108   2.005  22.033  0.00  0.00    +0.194 C 
BRANCH   9  10
ATOM     10  O   UNL     1       8.848   2.509  21.609  0.00  0.00    -0.390 OA
ATOM     11  H   UNL     1       8.921   2.669  20.653  0.00  0.00    +0.210 HD
ENDBRANCH   9  10
ENDBRANCH   1   9
TORSDOF 2
ENDMDL
MODEL 7
REMARK VINA RESULT:      -4.4      2.555      3.706
REMARK  Name = 
REMARK  2 active torsions:
REMARK  status: ('A' for Active; 'I' for Inactive)
REMARK    1  A    between atoms: O_1  and  C_2
REMARK    2  A    between atoms: C_2  and  C_3
REMARK                            x       y       z     vdW  Elec       q    Type
REMARK                         _______ _______ _______ _____ _____    ______ ____
ROOT
ATOM      1  C   UNL     1      10.054   1.755  23.520  0.00  0.00    +0.013 A 
ATOM      2  C   UNL     1       9.904   1.105  22.290  0.00  0.00    +0.131 A 
ATOM      3  F   UNL     1       9.736   1.827  21.172  0.00  0.00    -0.205 F 
ATOM      4  C   UNL     1       9.933  -0.281  22.189  0.00  0.00    +0.077 A 
ATOM      5  C   UNL     1      10.126  -1.033  23.340  0.00  0.00    +0.126 A 
ATOM      6  F   UNL     1      10.163  -2.368  23.258  0.00  0.00    -0.205 F 
ATOM      7  C   UNL     1      10.290  -0.419  24.578  0.00  0.00    +0.039 A 
ATOM      8  C   UNL     1      10.258   0.974  24.668  0.00  0.00    +0.011 A 
ENDROOT
BRANCH   1   9
ATOM      9  C   UNL     1      10.066   3.258  23.565  0.00  0.00    +0.194 C 
BRANCH   9  10
ATOM     10  O   UNL     1      11.276   3.773  23.021  0.00  0.00    -0.390 OA
ATOM     11  H   UNL     1      11.985   3.525  23.637  0.00  0.00    +0.210 HD
ENDBRANCH   9  10
ENDBRANCH   1   9
TORSDOF 2
ENDMDL
MODEL 8
REMARK VINA RESULT:      -4.2      1.613      1.851
REMARK  Name = 
REMARK  2 active torsions:
REMARK  status: ('A' for Active; 'I' for Inactive)
REMARK    1  A    between atoms: O_1  and  C_2
REMARK    2  A    between atoms: C_2  and  C_3
REMARK                            x       y       z     vdW  Elec       q    Type
REMARK                         _______ _______ _______ _____ _____    ______ ____
ROOT
ATOM      1  C   UNL     1       9.648  -1.439  23.712  0.00  0.00    +0.013 A 
ATOM      2  C   UNL     1       9.333  -1.301  22.356  0.00  0.00    +0.131 A 
ATOM      3  F   UNL     1       8.771  -2.325  21.696  0.00  0.00    -0.205 F 
ATOM      4  C   UNL     1       9.579  -0.119  21.667  0.00  0.00    +0.077 A 
ATOM      5  C   UNL     1      10.142   0.950  22.350  0.00  0.00    +0.126 A 
ATOM      6  F   UNL     1      10.378   2.096  21.700  0.00  0.00    -0.205 F 
ATOM      7  C   UNL     1      10.457   0.852  23.701  0.00  0.00    +0.039 A 
ATOM      8  C   UNL     1      10.207  -0.341  24.384  0.00  0.00    +0.011 A 
ENDROOT
BRANCH   1   9
ATOM      9  C   UNL     1       9.314  -2.722  24.422  0.00  0.00    +0.194 C 
BRANCH   9  10
ATOM     10  O   UNL     1       7.928  -2.782  24.737  0.00  0.00    -0.390 OA
ATOM     11  H   UNL     1       7.471  -2.228  24.083  0.00  0.00    +0.210 HD
ENDBRANCH   9  10
ENDBRANCH   1   9
TORSDOF 2
ENDMDL
MODEL 9
REMARK VINA RESULT:      -4.2      1.419      1.485
REMARK  Name = 
REMARK  2 active torsions:
REMARK  status: ('A' for Active; 'I' for Inactive)
REMARK    1  A    between atoms: O_1  and  C_2
REMARK    2  A    between atoms: C_2  and  C_3
REMARK                            x       y       z     vdW  Elec       q    Type
REMARK                         _______ _______ _______ _____ _____    ______ ____
ROOT
ATOM      1  C   UNL     1       9.464   0.310  22.403  0.00  0.00    +0.013 A 
ATOM      2  C   UNL     1       8.874   1.490  21.934  0.00  0.00    +0.131 A 
ATOM      3  F   UNL     1       8.300   1.510  20.722  0.00  0.00    -0.205 F 
ATOM      4  C   UNL     1       8.857   2.650  22.699  0.00  0.00    +0.077 A 
ATOM      5  C   UNL     1       9.432   2.629  23.962  0.00  0.00    +0.126 A 
ATOM      6  F   UNL     1       9.418   3.738  24.712  0.00  0.00    -0.205 F 
ATOM      7  C   UNL     1      10.018   1.471  24.464  0.00  0.00    +0.039 A 
ATOM      8  C   UNL     1      10.030   0.311  23.687  0.00  0.00    +0.011 A 
ENDROOT
BRANCH   1   9
ATOM      9  C   UNL     1       9.409  -0.931  21.556  0.00  0.00    +0.194 C 
BRANCH   9  10
ATOM     10  O   UNL     1      10.589  -1.709  21.718  0.00  0.00    -0.390 OA
ATOM     11  H   UNL     1      10.804  -2.072  20.843  0.00  0.00    +0.210 HD
ENDBRANCH   9  10
ENDBRANCH   1   9
TORSDOF 2
ENDMDL
