MODEL 1
REMARK VINA RESULT:      -7.5      0.000      0.000
REMARK  Name = 
REMARK  9 active torsions:
REMARK  status: ('A' for Active; 'I' for Inactive)
REMARK    1  A    between atoms: C_2  and  C_4
REMARK    2  A    between atoms: C_7  and  N_8
REMARK    3  A    between atoms: C_9  and  C_11
REMARK    4  A    between atoms: C_15  and  S_17
REMARK    5  A    between atoms: S_17  and  O_20
REMARK    6  A    between atoms: O_20  and  C_21
REMARK    7  A    between atoms: C_21  and  C_22
REMARK    8  A    between atoms: C_22  and  C_23
REMARK    9  A    between atoms: C_23  and  O_24
REMARK                            x       y       z     vdW  Elec       q    Type
REMARK                         _______ _______ _______ _____ _____    ______ ____
ROOT
ATOM      1  N   UNL     1       8.606   2.503  24.329  0.00  0.00    -0.281 N 
ATOM      2  H   UNL     1       8.534   1.773  25.027  0.00  0.00    +0.155 HD
ATOM      3  C   UNL     1       8.251   2.141  23.040  0.00  0.00    +0.248 C 
ATOM      4  O   UNL     1       7.759   2.893  22.204  0.00  0.00    -0.270 OA
ENDROOT
BRANCH   1  10
ATOM      5  C   UNL     1      11.834   5.486  23.786  0.00  0.00    +0.065 A 
ATOM      6  C   UNL     1      11.749   6.685  24.484  0.00  0.00    +0.016 A 
ATOM      7  C   UNL     1      10.613   6.954  25.244  0.00  0.00    +0.009 A 
ATOM      8  C   UNL     1       9.552   6.033  25.312  0.00  0.00    -0.016 A 
ATOM      9  C   UNL     1       9.645   4.774  24.656  0.00  0.00    +0.004 A 
ATOM     10  C   UNL     1       8.578   3.839  24.820  0.00  0.00    +0.041 A 
ATOM     11  C   UNL     1       7.449   4.191  25.576  0.00  0.00    +0.024 A 
ATOM     12  C   UNL     1       7.347   5.455  26.154  0.00  0.00    +0.002 A 
ATOM     13  C   UNL     1       8.402   6.356  26.045  0.00  0.00    +0.008 A 
ATOM     14  C   UNL     1      10.825   4.526  23.920  0.00  0.00    +0.026 A 
BRANCH   5  18
ATOM     15  N   UNL     1      12.732   5.271  21.498  0.00  0.00    -0.247 N 
ATOM     16  H   UNL     1      11.911   5.803  21.211  0.00  0.00    +0.288 HD
ATOM     17  H   UNL     1      13.533   5.503  20.924  0.00  0.00    +0.288 HD
ATOM     18  C   UNL     1      12.958   5.240  22.846  0.00  0.00    +0.308 C 
ATOM     19  N   UNL     1      14.147   5.040  23.309  0.00  0.00    -0.099 NA
ATOM     20  H   UNL     1      14.786   4.864  22.528  0.00  0.00    +0.363 HD
ENDBRANCH   5  18
ENDBRANCH   1  10
BRANCH   3  21
ATOM     21  C   UNL     1       8.440   0.706  22.670  0.00  0.00    +0.039 A 
ATOM     22  C   UNL     1       7.420  -0.199  23.008  0.00  0.00    +0.042 A 
ATOM     23  C   UNL     1       7.513  -1.531  22.600  0.00  0.00    +0.118 A 
ATOM     24  C   UNL     1       8.608  -1.974  21.852  0.00  0.00    +0.029 A 
ATOM     25  C   UNL     1       9.622  -1.077  21.515  0.00  0.00    +0.003 A 
ATOM     26  C   UNL     1       9.541   0.262  21.919  0.00  0.00    +0.013 A 
BRANCH  23  27
ATOM     27  S   UNL     1       6.219  -2.683  22.997  0.00  0.00    +0.112 S 
ATOM     28  O   UNL     1       5.445  -2.860  21.785  0.00  0.00    -0.142 OA
ATOM     29  O   UNL     1       5.599  -2.218  24.223  0.00  0.00    -0.142 OA
BRANCH  27  30
ATOM     30  O   UNL     1       6.966  -4.094  23.338  0.00  0.00    -0.234 OA
BRANCH  30  31
ATOM     31  C   UNL     1       6.165  -5.093  23.959  0.00  0.00    +0.196 C 
BRANCH  31  32
ATOM     32  C   UNL     1       5.695  -6.128  22.944  0.00  0.00    +0.058 C 
BRANCH  32  33
ATOM     33  C   UNL     1       6.593  -6.191  21.716  0.00  0.00    +0.158 C 
BRANCH  33  34
ATOM     34  O   UNL     1       6.008  -5.449  20.653  0.00  0.00    -0.395 OA
ATOM     35  H   UNL     1       5.638  -4.631  21.028  0.00  0.00    +0.209 HD
ENDBRANCH  33  34
ENDBRANCH  32  33
ENDBRANCH  31  32
ENDBRANCH  30  31
ENDBRANCH  27  30
ENDBRANCH  23  27
ENDBRANCH   3  21
TORSDOF 9
ENDMDL
MODEL 2
REMARK VINA RESULT:      -7.4      1.029      1.533
REMARK  Name = 
REMARK  9 active torsions:
REMARK  status: ('A' for Active; 'I' for Inactive)
REMARK    1  A    between atoms: C_2  and  C_4
REMARK    2  A    between atoms: C_7  and  N_8
REMARK    3  A    between atoms: C_9  and  C_11
REMARK    4  A    between atoms: C_15  and  S_17
REMARK    5  A    between atoms: S_17  and  O_20
REMARK    6  A    between atoms: O_20  and  C_21
REMARK    7  A    between atoms: C_21  and  C_22
REMARK    8  A    between atoms: C_22  and  C_23
REMARK    9  A    between atoms: C_23  and  O_24
REMARK                            x       y       z     vdW  Elec       q    Type
REMARK                         _______ _______ _______ _____ _____    ______ ____
ROOT
ATOM      1  N   UNL     1       8.541   2.474  24.340  0.00  0.00    -0.281 N 
ATOM      2  H   UNL     1       8.510   1.748  25.046  0.00  0.00    +0.155 HD
ATOM      3  C   UNL     1       8.152   2.092  23.066  0.00  0.00    +0.248 C 
ATOM      4  O   UNL     1       7.614   2.825  22.241  0.00  0.00    -0.270 OA
ENDROOT
BRANCH   1  10
ATOM      5  C   UNL     1      11.752   5.477  23.814  0.00  0.00    +0.065 A 
ATOM      6  C   UNL     1      11.649   6.681  24.502  0.00  0.00    +0.016 A 
ATOM      7  C   UNL     1      10.503   6.946  25.247  0.00  0.00    +0.009 A 
ATOM      8  C   UNL     1       9.448   6.018  25.310  0.00  0.00    -0.016 A 
ATOM      9  C   UNL     1       9.558   4.755  24.664  0.00  0.00    +0.004 A 
ATOM     10  C   UNL     1       8.497   3.813  24.821  0.00  0.00    +0.041 A 
ATOM     11  C   UNL     1       7.356   4.162  25.561  0.00  0.00    +0.024 A 
ATOM     12  C   UNL     1       7.237   5.428  26.129  0.00  0.00    +0.002 A 
ATOM     13  C   UNL     1       8.287   6.336  26.026  0.00  0.00    +0.008 A 
ATOM     14  C   UNL     1      10.749   4.511  23.943  0.00  0.00    +0.026 A 
BRANCH   5  18
ATOM     15  N   UNL     1      12.685   5.279  21.539  0.00  0.00    -0.247 N 
ATOM     16  H   UNL     1      11.871   5.818  21.244  0.00  0.00    +0.288 HD
ATOM     17  H   UNL     1      13.495   5.511  20.979  0.00  0.00    +0.288 HD
ATOM     18  C   UNL     1      12.889   5.234  22.889  0.00  0.00    +0.308 C 
ATOM     19  N   UNL     1      14.070   5.022  23.369  0.00  0.00    -0.099 NA
ATOM     20  H   UNL     1      14.719   4.850  22.596  0.00  0.00    +0.363 HD
ENDBRANCH   5  18
ENDBRANCH   1  10
BRANCH   3  21
ATOM     21  C   UNL     1       8.363   0.659  22.701  0.00  0.00    +0.039 A 
ATOM     22  C   UNL     1       7.363  -0.262  23.052  0.00  0.00    +0.042 A 
ATOM     23  C   UNL     1       7.476  -1.594  22.650  0.00  0.00    +0.118 A 
ATOM     24  C   UNL     1       8.572  -2.022  21.894  0.00  0.00    +0.029 A 
ATOM     25  C   UNL     1       9.567  -1.108  21.545  0.00  0.00    +0.003 A 
ATOM     26  C   UNL     1       9.466   0.231  21.943  0.00  0.00    +0.013 A 
BRANCH  23  27
ATOM     27  S   UNL     1       6.206  -2.767  23.063  0.00  0.00    +0.112 S 
ATOM     28  O   UNL     1       5.446  -2.990  21.850  0.00  0.00    -0.142 OA
ATOM     29  O   UNL     1       5.566  -2.290  24.274  0.00  0.00    -0.142 OA
BRANCH  27  30
ATOM     30  O   UNL     1       6.983  -4.153  23.442  0.00  0.00    -0.234 OA
BRANCH  30  31
ATOM     31  C   UNL     1       6.512  -4.841  24.595  0.00  0.00    +0.196 C 
BRANCH  31  32
ATOM     32  C   UNL     1       7.643  -5.094  25.583  0.00  0.00    +0.058 C 
BRANCH  32  33
ATOM     33  C   UNL     1       9.018  -4.967  24.941  0.00  0.00    +0.158 C 
BRANCH  33  34
ATOM     34  O   UNL     1       9.940  -5.826  25.601  0.00  0.00    -0.395 OA
ATOM     35  H   UNL     1      10.668  -6.013  24.983  0.00  0.00    +0.209 HD
ENDBRANCH  33  34
ENDBRANCH  32  33
ENDBRANCH  31  32
ENDBRANCH  30  31
ENDBRANCH  27  30
ENDBRANCH  23  27
ENDBRANCH   3  21
TORSDOF 9
ENDMDL
MODEL 3
REMARK VINA RESULT:      -7.4      3.613     10.019
REMARK  Name = 
REMARK  9 active torsions:
REMARK  status: ('A' for Active; 'I' for Inactive)
REMARK    1  A    between atoms: C_2  and  C_4
REMARK    2  A    between atoms: C_7  and  N_8
REMARK    3  A    between atoms: C_9  and  C_11
REMARK    4  A    between atoms: C_15  and  S_17
REMARK    5  A    between atoms: S_17  and  O_20
REMARK    6  A    between atoms: O_20  and  C_21
REMARK    7  A    between atoms: C_21  and  C_22
REMARK    8  A    between atoms: C_22  and  C_23
REMARK    9  A    between atoms: C_23  and  O_24
REMARK                            x       y       z     vdW  Elec       q    Type
REMARK                         _______ _______ _______ _____ _____    ______ ____
ROOT
ATOM      1  N   UNL     1       7.962  -2.877  23.242  0.00  0.00    -0.281 N 
ATOM      2  H   UNL     1       8.933  -3.052  23.013  0.00  0.00    +0.155 HD
ATOM      3  C   UNL     1       7.587  -1.545  23.295  0.00  0.00    +0.248 C 
ATOM      4  O   UNL     1       6.471  -1.113  23.024  0.00  0.00    -0.270 OA
ENDROOT
BRANCH   1  10
ATOM      5  C   UNL     1       5.779  -5.130  26.368  0.00  0.00    +0.065 A 
ATOM      6  C   UNL     1       5.085  -6.274  25.993  0.00  0.00    +0.016 A 
ATOM      7  C   UNL     1       5.011  -6.618  24.646  0.00  0.00    +0.009 A 
ATOM      8  C   UNL     1       5.624  -5.823  23.660  0.00  0.00    -0.016 A 
ATOM      9  C   UNL     1       6.391  -4.683  24.026  0.00  0.00    +0.004 A 
ATOM     10  C   UNL     1       7.061  -3.953  22.999  0.00  0.00    +0.041 A 
ATOM     11  C   UNL     1       6.916  -4.339  21.658  0.00  0.00    +0.024 A 
ATOM     12  C   UNL     1       6.105  -5.418  21.313  0.00  0.00    +0.002 A 
ATOM     13  C   UNL     1       5.488  -6.169  22.309  0.00  0.00    +0.008 A 
ATOM     14  C   UNL     1       6.467  -4.384  25.406  0.00  0.00    +0.026 A 
BRANCH   5  18
ATOM     15  N   UNL     1       5.073  -3.504  28.084  0.00  0.00    -0.247 N 
ATOM     16  H   UNL     1       4.349  -3.235  27.417  0.00  0.00    +0.288 HD
ATOM     17  H   UNL     1       4.733  -3.436  29.035  0.00  0.00    +0.288 HD
ATOM     18  C   UNL     1       5.743  -4.654  27.776  0.00  0.00    +0.308 C 
ATOM     19  N   UNL     1       6.311  -5.354  28.701  0.00  0.00    -0.099 NA
ATOM     20  H   UNL     1       6.211  -4.867  29.597  0.00  0.00    +0.363 HD
ENDBRANCH   5  18
ENDBRANCH   1  10
BRANCH   3  21
ATOM     21  C   UNL     1       8.650  -0.562  23.663  0.00  0.00    +0.039 A 
ATOM     22  C   UNL     1       8.369   0.803  23.493  0.00  0.00    +0.042 A 
ATOM     23  C   UNL     1       9.298   1.759  23.910  0.00  0.00    +0.118 A 
ATOM     24  C   UNL     1      10.504   1.372  24.502  0.00  0.00    +0.029 A 
ATOM     25  C   UNL     1      10.785   0.015  24.672  0.00  0.00    +0.003 A 
ATOM     26  C   UNL     1       9.862  -0.953  24.257  0.00  0.00    +0.013 A 
BRANCH  23  27
ATOM     27  S   UNL     1       8.947   3.491  23.726  0.00  0.00    +0.112 S 
ATOM     28  O   UNL     1       8.627   3.986  25.050  0.00  0.00    -0.142 OA
ATOM     29  O   UNL     1       8.007   3.619  22.629  0.00  0.00    -0.142 OA
BRANCH  27  30
ATOM     30  O   UNL     1      10.347   4.183  23.246  0.00  0.00    -0.234 OA
BRANCH  30  31
ATOM     31  C   UNL     1      10.607   5.487  23.752  0.00  0.00    +0.196 C 
BRANCH  31  32
ATOM     32  C   UNL     1      12.097   5.693  23.996  0.00  0.00    +0.058 C 
BRANCH  32  33
ATOM     33  C   UNL     1      12.940   5.363  22.772  0.00  0.00    +0.158 C 
BRANCH  33  34
ATOM     34  O   UNL     1      14.288   5.130  23.164  0.00  0.00    -0.395 OA
ATOM     35  H   UNL     1      14.276   4.747  24.059  0.00  0.00    +0.209 HD
ENDBRANCH  33  34
ENDBRANCH  32  33
ENDBRANCH  31  32
ENDBRANCH  30  31
ENDBRANCH  27  30
ENDBRANCH  23  27
ENDBRANCH   3  21
TORSDOF 9
ENDMDL
MODEL 4
REMARK VINA RESULT:      -7.2      2.225      2.903
REMARK  Name = 
REMARK  9 active torsions:
REMARK  status: ('A' for Active; 'I' for Inactive)
REMARK    1  A    between atoms: C_2  and  C_4
REMARK    2  A    between atoms: C_7  and  N_8
REMARK    3  A    between atoms: C_9  and  C_11
REMARK    4  A    between atoms: C_15  and  S_17
REMARK    5  A    between atoms: S_17  and  O_20
REMARK    6  A    between atoms: O_20  and  C_21
REMARK    7  A    between atoms: C_21  and  C_22
REMARK    8  A    between atoms: C_22  and  C_23
REMARK    9  A    between atoms: C_23  and  O_24
REMARK                            x       y       z     vdW  Elec       q    Type
REMARK                         _______ _______ _______ _____ _____    ______ ____
ROOT
ATOM      1  N   UNL     1       7.865   2.296  23.303  0.00  0.00    -0.281 N 
ATOM      2  H   UNL     1       8.270   2.218  22.377  0.00  0.00    +0.155 HD
ATOM      3  C   UNL     1       8.232   1.311  24.204  0.00  0.00    +0.248 C 
ATOM      4  O   UNL     1       8.327   1.462  25.419  0.00  0.00    -0.270 OA
ENDROOT
BRANCH   1  10
ATOM      5  C   UNL     1      10.477   5.782  24.100  0.00  0.00    +0.065 A 
ATOM      6  C   UNL     1       9.903   6.927  24.641  0.00  0.00    +0.016 A 
ATOM      7  C   UNL     1       8.523   6.981  24.818  0.00  0.00    +0.009 A 
ATOM      8  C   UNL     1       7.702   5.897  24.454  0.00  0.00    -0.016 A 
ATOM      9  C   UNL     1       8.274   4.693  23.957  0.00  0.00    +0.004 A 
ATOM     10  C   UNL     1       7.410   3.592  23.677  0.00  0.00    +0.041 A 
ATOM     11  C   UNL     1       6.024   3.729  23.850  0.00  0.00    +0.024 A 
ATOM     12  C   UNL     1       5.477   4.938  24.273  0.00  0.00    +0.002 A 
ATOM     13  C   UNL     1       6.313   6.003  24.598  0.00  0.00    +0.008 A 
ATOM     14  C   UNL     1       9.681   4.667  23.820  0.00  0.00    +0.026 A 
BRANCH   5  18
ATOM     15  N   UNL     1      12.331   5.150  22.600  0.00  0.00    -0.247 N 
ATOM     16  H   UNL     1      11.615   5.071  21.878  0.00  0.00    +0.288 HD
ATOM     17  H   UNL     1      13.201   5.490  22.211  0.00  0.00    +0.288 HD
ATOM     18  C   UNL     1      11.922   5.755  23.755  0.00  0.00    +0.308 C 
ATOM     19  N   UNL     1      12.775   6.339  24.530  0.00  0.00    -0.099 NA
ATOM     20  H   UNL     1      13.718   6.200  24.155  0.00  0.00    +0.363 HD
ENDBRANCH   5  18
ENDBRANCH   1  10
BRANCH   3  21
ATOM     21  C   UNL     1       8.588  -0.023  23.633  0.00  0.00    +0.039 A 
ATOM     22  C   UNL     1       8.644  -1.119  24.509  0.00  0.00    +0.042 A 
ATOM     23  C   UNL     1       8.882  -2.399  24.003  0.00  0.00    +0.118 A 
ATOM     24  C   UNL     1       9.059  -2.603  22.631  0.00  0.00    +0.029 A 
ATOM     25  C   UNL     1       9.004  -1.515  21.759  0.00  0.00    +0.003 A 
ATOM     26  C   UNL     1       8.767  -0.226  22.254  0.00  0.00    +0.013 A 
BRANCH  23  27
ATOM     27  S   UNL     1       8.930  -3.801  25.095  0.00  0.00    +0.112 S 
ATOM     28  O   UNL     1       8.742  -3.281  26.434  0.00  0.00    -0.142 OA
ATOM     29  O   UNL     1      10.108  -4.570  24.746  0.00  0.00    -0.142 OA
BRANCH  27  30
ATOM     30  O   UNL     1       7.629  -4.710  24.712  0.00  0.00    -0.234 OA
BRANCH  30  31
ATOM     31  C   UNL     1       6.407  -4.357  25.351  0.00  0.00    +0.196 C 
BRANCH  31  32
ATOM     32  C   UNL     1       5.871  -5.513  26.186  0.00  0.00    +0.058 C 
BRANCH  32  33
ATOM     33  C   UNL     1       6.430  -5.518  27.602  0.00  0.00    +0.158 C 
BRANCH  33  34
ATOM     34  O   UNL     1       7.795  -5.917  27.581  0.00  0.00    -0.395 OA
ATOM     35  H   UNL     1       7.872  -6.685  26.988  0.00  0.00    +0.209 HD
ENDBRANCH  33  34
ENDBRANCH  32  33
ENDBRANCH  31  32
ENDBRANCH  30  31
ENDBRANCH  27  30
ENDBRANCH  23  27
ENDBRANCH   3  21
TORSDOF 9
ENDMDL
MODEL 5
REMARK VINA RESULT:      -7.1      3.652      5.343
REMARK  Name = 
REMARK  9 active torsions:
REMARK  status: ('A' for Active; 'I' for Inactive)
REMARK    1  A    between atoms: C_2  and  C_4
REMARK    2  A    between atoms: C_7  and  N_8
REMARK    3  A    between atoms: C_9  and  C_11
REMARK    4  A    between atoms: C_15  and  S_17
REMARK    5  A    between atoms: S_17  and  O_20
REMARK    6  A    between atoms: O_20  and  C_21
REMARK    7  A    between atoms: C_21  and  C_22
REMARK    8  A    between atoms: C_22  and  C_23
REMARK    9  A    between atoms: C_23  and  O_24
REMARK                            x       y       z     vdW  Elec       q    Type
REMARK                         _______ _______ _______ _____ _____    ______ ____
ROOT
ATOM      1  N   UNL     1       7.858  -1.485  23.800  0.00  0.00    -0.281 N 
ATOM      2  H   UNL     1       6.957  -1.494  24.263  0.00  0.00    +0.155 HD
ATOM      3  C   UNL     1       7.983  -2.330  22.710  0.00  0.00    +0.248 C 
ATOM      4  O   UNL     1       8.697  -2.125  21.733  0.00  0.00    -0.270 OA
ENDROOT
BRANCH   1  10
ATOM      5  C   UNL     1       6.458   2.677  23.226  0.00  0.00    +0.065 A 
ATOM      6  C   UNL     1       7.395   3.702  23.275  0.00  0.00    +0.016 A 
ATOM      7  C   UNL     1       8.716   3.404  23.602  0.00  0.00    +0.009 A 
ATOM      8  C   UNL     1       9.113   2.084  23.887  0.00  0.00    -0.016 A 
ATOM      9  C   UNL     1       8.183   1.012  23.782  0.00  0.00    +0.004 A 
ATOM     10  C   UNL     1       8.650  -0.319  24.002  0.00  0.00    +0.041 A 
ATOM     11  C   UNL     1       9.988  -0.541  24.359  0.00  0.00    +0.024 A 
ATOM     12  C   UNL     1      10.867   0.528  24.523  0.00  0.00    +0.002 A 
ATOM     13  C   UNL     1      10.438   1.826  24.262  0.00  0.00    +0.008 A 
ATOM     14  C   UNL     1       6.860   1.352  23.419  0.00  0.00    +0.026 A 
BRANCH   5  18
ATOM     15  N   UNL     1       4.630   3.810  22.017  0.00  0.00    -0.247 N 
ATOM     16  H   UNL     1       5.292   3.881  21.244  0.00  0.00    +0.288 HD
ATOM     17  H   UNL     1       3.687   3.675  21.675  0.00  0.00    +0.288 HD
ATOM     18  C   UNL     1       5.016   2.984  23.034  0.00  0.00    +0.308 C 
ATOM     19  N   UNL     1       4.138   2.435  23.806  0.00  0.00    -0.099 NA
ATOM     20  H   UNL     1       3.207   2.777  23.550  0.00  0.00    +0.363 HD
ENDBRANCH   5  18
ENDBRANCH   1  10
BRANCH   3  21
ATOM     21  C   UNL     1       7.137  -3.562  22.715  0.00  0.00    +0.039 A 
ATOM     22  C   UNL     1       5.903  -3.507  23.384  0.00  0.00    +0.042 A 
ATOM     23  C   UNL     1       5.040  -4.604  23.336  0.00  0.00    +0.118 A 
ATOM     24  C   UNL     1       5.388  -5.756  22.622  0.00  0.00    +0.029 A 
ATOM     25  C   UNL     1       6.614  -5.811  21.957  0.00  0.00    +0.003 A 
ATOM     26  C   UNL     1       7.489  -4.718  21.999  0.00  0.00    +0.013 A 
BRANCH  23  27
ATOM     27  S   UNL     1       3.464  -4.542  24.154  0.00  0.00    +0.112 S 
ATOM     28  O   UNL     1       2.481  -4.969  23.179  0.00  0.00    -0.142 OA
ATOM     29  O   UNL     1       3.371  -3.245  24.796  0.00  0.00    -0.142 OA
BRANCH  27  30
ATOM     30  O   UNL     1       3.530  -5.664  25.339  0.00  0.00    -0.234 OA
BRANCH  30  31
ATOM     31  C   UNL     1       4.178  -5.267  26.542  0.00  0.00    +0.196 C 
BRANCH  31  32
ATOM     32  C   UNL     1       5.356  -6.179  26.857  0.00  0.00    +0.058 C 
BRANCH  32  33
ATOM     33  C   UNL     1       6.698  -5.524  26.559  0.00  0.00    +0.158 C 
BRANCH  33  34
ATOM     34  O   UNL     1       7.643  -5.883  27.559  0.00  0.00    -0.395 OA
ATOM     35  H   UNL     1       7.150  -6.113  28.367  0.00  0.00    +0.209 HD
ENDBRANCH  33  34
ENDBRANCH  32  33
ENDBRANCH  31  32
ENDBRANCH  30  31
ENDBRANCH  27  30
ENDBRANCH  23  27
ENDBRANCH   3  21
TORSDOF 9
ENDMDL
MODEL 6
REMARK VINA RESULT:      -7.1      3.335      5.134
REMARK  Name = 
REMARK  9 active torsions:
REMARK  status: ('A' for Active; 'I' for Inactive)
REMARK    1  A    between atoms: C_2  and  C_4
REMARK    2  A    between atoms: C_7  and  N_8
REMARK    3  A    between atoms: C_9  and  C_11
REMARK    4  A    between atoms: C_15  and  S_17
REMARK    5  A    between atoms: S_17  and  O_20
REMARK    6  A    between atoms: O_20  and  C_21
REMARK    7  A    between atoms: C_21  and  C_22
REMARK    8  A    between atoms: C_22  and  C_23
REMARK    9  A    between atoms: C_23  and  O_24
REMARK                            x       y       z     vdW  Elec       q    Type
REMARK                         _______ _______ _______ _____ _____    ______ ____
ROOT
ATOM      1  N   UNL     1       6.970   0.318  26.474  0.00  0.00    -0.281 N 
ATOM      2  H   UNL     1       7.250   0.139  27.430  0.00  0.00    +0.155 HD
ATOM      3  C   UNL     1       5.803  -0.304  26.061  0.00  0.00    +0.248 C 
ATOM      4  O   UNL     1       5.020   0.140  25.227  0.00  0.00    -0.270 OA
ENDROOT
BRANCH   1  10
ATOM      5  C   UNL     1       9.685   0.423  22.977  0.00  0.00    +0.065 A 
ATOM      6  C   UNL     1      10.268   1.636  22.630  0.00  0.00    +0.016 A 
ATOM      7  C   UNL     1       9.906   2.790  23.320  0.00  0.00    +0.009 A 
ATOM      8  C   UNL     1       8.957   2.747  24.358  0.00  0.00    -0.016 A 
ATOM      9  C   UNL     1       8.394   1.507  24.770  0.00  0.00    +0.004 A 
ATOM     10  C   UNL     1       7.497   1.501  25.881  0.00  0.00    +0.041 A 
ATOM     11  C   UNL     1       7.153   2.707  26.509  0.00  0.00    +0.024 A 
ATOM     12  C   UNL     1       7.662   3.919  26.047  0.00  0.00    +0.002 A 
ATOM     13  C   UNL     1       8.578   3.933  24.999  0.00  0.00    +0.008 A 
ATOM     14  C   UNL     1       8.809   0.354  24.065  0.00  0.00    +0.026 A 
BRANCH   5  18
ATOM     15  N   UNL     1       9.489  -0.842  20.867  0.00  0.00    -0.247 N 
ATOM     16  H   UNL     1       9.336   0.067  20.430  0.00  0.00    +0.288 HD
ATOM     17  H   UNL     1      10.000  -1.460  20.250  0.00  0.00    +0.288 HD
ATOM     18  C   UNL     1       9.933  -0.793  22.159  0.00  0.00    +0.308 C 
ATOM     19  N   UNL     1      10.601  -1.777  22.662  0.00  0.00    -0.099 NA
ATOM     20  H   UNL     1      10.654  -2.533  21.974  0.00  0.00    +0.363 HD
ENDBRANCH   5  18
ENDBRANCH   1  10
BRANCH   3  21
ATOM     21  C   UNL     1       5.457  -1.593  26.733  0.00  0.00    +0.039 A 
ATOM     22  C   UNL     1       6.364  -2.659  26.616  0.00  0.00    +0.042 A 
ATOM     23  C   UNL     1       6.125  -3.850  27.303  0.00  0.00    +0.118 A 
ATOM     24  C   UNL     1       4.995  -3.993  28.115  0.00  0.00    +0.029 A 
ATOM     25  C   UNL     1       4.093  -2.935  28.233  0.00  0.00    +0.003 A 
ATOM     26  C   UNL     1       4.320  -1.735  27.547  0.00  0.00    +0.013 A 
BRANCH  23  27
ATOM     27  S   UNL     1       7.277  -5.200  27.187  0.00  0.00    +0.112 S 
ATOM     28  O   UNL     1       7.043  -6.037  28.345  0.00  0.00    -0.142 OA
ATOM     29  O   UNL     1       8.581  -4.622  26.928  0.00  0.00    -0.142 OA
BRANCH  27  30
ATOM     30  O   UNL     1       6.848  -6.039  25.854  0.00  0.00    -0.234 OA
BRANCH  30  31
ATOM     31  C   UNL     1       6.231  -5.291  24.813  0.00  0.00    +0.196 C 
BRANCH  31  32
ATOM     32  C   UNL     1       7.131  -5.211  23.587  0.00  0.00    +0.058 C 
BRANCH  32  33
ATOM     33  C   UNL     1       7.922  -3.911  23.527  0.00  0.00    +0.158 C 
BRANCH  33  34
ATOM     34  O   UNL     1       9.197  -4.095  24.131  0.00  0.00    -0.395 OA
ATOM     35  H   UNL     1       9.409  -3.287  24.631  0.00  0.00    +0.209 HD
ENDBRANCH  33  34
ENDBRANCH  32  33
ENDBRANCH  31  32
ENDBRANCH  30  31
ENDBRANCH  27  30
ENDBRANCH  23  27
ENDBRANCH   3  21
TORSDOF 9
ENDMDL
MODEL 7
REMARK VINA RESULT:      -6.9      2.717      4.337
REMARK  Name = 
REMARK  9 active torsions:
REMARK  status: ('A' for Active; 'I' for Inactive)
REMARK    1  A    between atoms: C_2  and  C_4
REMARK    2  A    between atoms: C_7  and  N_8
REMARK    3  A    between atoms: C_9  and  C_11
REMARK    4  A    between atoms: C_15  and  S_17
REMARK    5  A    between atoms: S_17  and  O_20
REMARK    6  A    between atoms: O_20  and  C_21
REMARK    7  A    between atoms: C_21  and  C_22
REMARK    8  A    between atoms: C_22  and  C_23
REMARK    9  A    between atoms: C_23  and  O_24
REMARK                            x       y       z     vdW  Elec       q    Type
REMARK                         _______ _______ _______ _____ _____    ______ ____
ROOT
ATOM      1  N   UNL     1       9.341   2.872  23.261  0.00  0.00    -0.281 N 
ATOM      2  H   UNL     1      10.115   2.727  22.624  0.00  0.00    +0.155 HD
ATOM      3  C   UNL     1       9.044   1.811  24.100  0.00  0.00    +0.248 C 
ATOM      4  O   UNL     1       8.576   1.911  25.229  0.00  0.00    -0.270 OA
ENDROOT
BRANCH   1  10
ATOM      5  C   UNL     1       5.333   4.682  22.747  0.00  0.00    +0.065 A 
ATOM      6  C   UNL     1       5.208   6.060  22.879  0.00  0.00    +0.016 A 
ATOM      7  C   UNL     1       6.315   6.812  23.267  0.00  0.00    +0.009 A 
ATOM      8  C   UNL     1       7.553   6.197  23.530  0.00  0.00    -0.016 A 
ATOM      9  C   UNL     1       7.718   4.796  23.341  0.00  0.00    +0.004 A 
ATOM     10  C   UNL     1       9.013   4.229  23.543  0.00  0.00    +0.041 A 
ATOM     11  C   UNL     1      10.075   5.043  23.963  0.00  0.00    +0.024 A 
ATOM     12  C   UNL     1       9.877   6.400  24.208  0.00  0.00    +0.002 A 
ATOM     13  C   UNL     1       8.633   6.975  23.966  0.00  0.00    +0.008 A 
ATOM     14  C   UNL     1       6.580   4.073  22.919  0.00  0.00    +0.026 A 
BRANCH   5  18
ATOM     15  N   UNL     1       3.222   4.231  21.551  0.00  0.00    -0.247 N 
ATOM     16  H   UNL     1       3.579   4.871  20.843  0.00  0.00    +0.288 HD
ATOM     17  H   UNL     1       2.681   3.487  21.128  0.00  0.00    +0.288 HD
ATOM     18  C   UNL     1       4.136   3.839  22.489  0.00  0.00    +0.308 C 
ATOM     19  N   UNL     1       3.990   2.724  23.124  0.00  0.00    -0.099 NA
ATOM     20  H   UNL     1       3.105   2.291  22.843  0.00  0.00    +0.363 HD
ENDBRANCH   5  18
ENDBRANCH   1  10
BRANCH   3  21
ATOM     21  C   UNL     1       9.374   0.444  23.594  0.00  0.00    +0.039 A 
ATOM     22  C   UNL     1       9.024  -0.654  24.396  0.00  0.00    +0.042 A 
ATOM     23  C   UNL     1       9.230  -1.952  23.921  0.00  0.00    +0.118 A 
ATOM     24  C   UNL     1       9.775  -2.170  22.652  0.00  0.00    +0.029 A 
ATOM     25  C   UNL     1      10.125  -1.079  21.855  0.00  0.00    +0.003 A 
ATOM     26  C   UNL     1       9.924   0.227  22.320  0.00  0.00    +0.013 A 
BRANCH  23  27
ATOM     27  S   UNL     1       8.767  -3.353  24.912  0.00  0.00    +0.112 S 
ATOM     28  O   UNL     1       8.503  -2.844  26.242  0.00  0.00    -0.142 OA
ATOM     29  O   UNL     1       9.765  -4.380  24.685  0.00  0.00    -0.142 OA
BRANCH  27  30
ATOM     30  O   UNL     1       7.362  -3.899  24.284  0.00  0.00    -0.234 OA
BRANCH  30  31
ATOM     31  C   UNL     1       7.444  -5.079  23.493  0.00  0.00    +0.196 C 
BRANCH  31  32
ATOM     32  C   UNL     1       7.096  -4.790  22.039  0.00  0.00    +0.058 C 
BRANCH  32  33
ATOM     33  C   UNL     1       6.234  -3.545  21.882  0.00  0.00    +0.158 C 
BRANCH  33  34
ATOM     34  O   UNL     1       4.927  -3.797  22.385  0.00  0.00    -0.395 OA
ATOM     35  H   UNL     1       4.925  -4.688  22.777  0.00  0.00    +0.209 HD
ENDBRANCH  33  34
ENDBRANCH  32  33
ENDBRANCH  31  32
ENDBRANCH  30  31
ENDBRANCH  27  30
ENDBRANCH  23  27
ENDBRANCH   3  21
TORSDOF 9
ENDMDL
MODEL 8
REMARK VINA RESULT:      -6.9      2.055      3.833
REMARK  Name = 
REMARK  9 active torsions:
REMARK  status: ('A' for Active; 'I' for Inactive)
REMARK    1  A    between atoms: C_2  and  C_4
REMARK    2  A    between atoms: C_7  and  N_8
REMARK    3  A    between atoms: C_9  and  C_11
REMARK    4  A    between atoms: C_15  and  S_17
REMARK    5  A    between atoms: S_17  and  O_20
REMARK    6  A    between atoms: O_20  and  C_21
REMARK    7  A    between atoms: C_21  and  C_22
REMARK    8  A    between atoms: C_22  and  C_23
REMARK    9  A    between atoms: C_23  and  O_24
REMARK                            x       y       z     vdW  Elec       q    Type
REMARK                         _______ _______ _______ _____ _____    ______ ____
ROOT
ATOM      1  N   UNL     1      10.332   2.517  23.069  0.00  0.00    -0.281 N 
ATOM      2  H   UNL     1      10.180   2.428  22.071  0.00  0.00    +0.155 HD
ATOM      3  C   UNL     1      10.610   1.339  23.743  0.00  0.00    +0.248 C 
ATOM      4  O   UNL     1      11.315   1.246  24.744  0.00  0.00    -0.270 OA
ENDROOT
BRANCH   1  10
ATOM      5  C   UNL     1       7.638   5.417  25.052  0.00  0.00    +0.065 A 
ATOM      6  C   UNL     1       8.103   6.709  25.271  0.00  0.00    +0.016 A 
ATOM      7  C   UNL     1       9.424   7.021  24.957  0.00  0.00    +0.009 A 
ATOM      8  C   UNL     1      10.292   6.049  24.427  0.00  0.00    -0.016 A 
ATOM      9  C   UNL     1       9.819   4.738  24.139  0.00  0.00    +0.004 A 
ATOM     10  C   UNL     1      10.715   3.810  23.527  0.00  0.00    +0.041 A 
ATOM     11  C   UNL     1      12.042   4.184  23.268  0.00  0.00    +0.024 A 
ATOM     12  C   UNL     1      12.505   5.450  23.621  0.00  0.00    +0.002 A 
ATOM     13  C   UNL     1      11.629   6.382  24.170  0.00  0.00    +0.008 A 
ATOM     14  C   UNL     1       8.466   4.469  24.443  0.00  0.00    +0.026 A 
BRANCH   5  18
ATOM     15  N   UNL     1       5.536   5.890  26.257  0.00  0.00    -0.247 N 
ATOM     16  H   UNL     1       5.785   6.873  26.141  0.00  0.00    +0.288 HD
ATOM     17  H   UNL     1       4.534   5.761  26.205  0.00  0.00    +0.288 HD
ATOM     18  C   UNL     1       6.286   5.015  25.521  0.00  0.00    +0.308 C 
ATOM     19  N   UNL     1       5.814   3.858  25.195  0.00  0.00    -0.099 NA
ATOM     20  H   UNL     1       4.891   3.740  25.622  0.00  0.00    +0.363 HD
ENDBRANCH   5  18
ENDBRANCH   1  10
BRANCH   3  21
ATOM     21  C   UNL     1      10.043   0.085  23.164  0.00  0.00    +0.039 A 
ATOM     22  C   UNL     1       9.771  -0.978  24.040  0.00  0.00    +0.042 A 
ATOM     23  C   UNL     1       9.154  -2.135  23.557  0.00  0.00    +0.118 A 
ATOM     24  C   UNL     1       8.798  -2.244  22.209  0.00  0.00    +0.029 A 
ATOM     25  C   UNL     1       9.068  -1.188  21.336  0.00  0.00    +0.003 A 
ATOM     26  C   UNL     1       9.686  -0.024  21.809  0.00  0.00    +0.013 A 
BRANCH  23  27
ATOM     27  S   UNL     1       8.779  -3.479  24.657  0.00  0.00    +0.112 S 
ATOM     28  O   UNL     1       8.425  -2.879  25.928  0.00  0.00    -0.142 OA
ATOM     29  O   UNL     1       9.869  -4.429  24.552  0.00  0.00    -0.142 OA
BRANCH  27  30
ATOM     30  O   UNL     1       7.448  -4.200  24.044  0.00  0.00    -0.234 OA
BRANCH  30  31
ATOM     31  C   UNL     1       7.660  -5.432  23.364  0.00  0.00    +0.196 C 
BRANCH  31  32
ATOM     32  C   UNL     1       6.445  -5.813  22.528  0.00  0.00    +0.058 C 
BRANCH  32  33
ATOM     33  C   UNL     1       6.228  -4.870  21.352  0.00  0.00    +0.158 C 
BRANCH  33  34
ATOM     34  O   UNL     1       5.421  -3.771  21.758  0.00  0.00    -0.395 OA
ATOM     35  H   UNL     1       6.015  -3.042  22.009  0.00  0.00    +0.209 HD
ENDBRANCH  33  34
ENDBRANCH  32  33
ENDBRANCH  31  32
ENDBRANCH  30  31
ENDBRANCH  27  30
ENDBRANCH  23  27
ENDBRANCH   3  21
TORSDOF 9
ENDMDL
MODEL 9
REMARK VINA RESULT:      -6.7      3.848      5.964
REMARK  Name = 
REMARK  9 active torsions:
REMARK  status: ('A' for Active; 'I' for Inactive)
REMARK    1  A    between atoms: C_2  and  C_4
REMARK    2  A    between atoms: C_7  and  N_8
REMARK    3  A    between atoms: C_9  and  C_11
REMARK    4  A    between atoms: C_15  and  S_17
REMARK    5  A    between atoms: S_17  and  O_20
REMARK    6  A    between atoms: O_20  and  C_21
REMARK    7  A    between atoms: C_21  and  C_22
REMARK    8  A    between atoms: C_22  and  C_23
REMARK    9  A    between atoms: C_23  and  O_24
REMARK                            x       y       z     vdW  Elec       q    Type
REMARK                         _______ _______ _______ _____ _____    ______ ____
ROOT
ATOM      1  N   UNL     1       7.760  -1.664  22.698  0.00  0.00    -0.281 N 
ATOM      2  H   UNL     1       7.175  -1.776  21.879  0.00  0.00    +0.155 HD
ATOM      3  C   UNL     1       8.212  -2.838  23.279  0.00  0.00    +0.248 C 
ATOM      4  O   UNL     1       9.277  -2.968  23.874  0.00  0.00    -0.270 OA
ENDROOT
BRANCH   1  10
ATOM      5  C   UNL     1       7.075   1.216  25.990  0.00  0.00    +0.065 A 
ATOM      6  C   UNL     1       7.636   2.483  25.887  0.00  0.00    +0.016 A 
ATOM      7  C   UNL     1       8.474   2.774  24.813  0.00  0.00    +0.009 A 
ATOM      8  C   UNL     1       8.762   1.803  23.835  0.00  0.00    -0.016 A 
ATOM      9  C   UNL     1       8.150   0.520  23.889  0.00  0.00    +0.004 A 
ATOM     10  C   UNL     1       8.410  -0.404  22.832  0.00  0.00    +0.041 A 
ATOM     11  C   UNL     1       9.290  -0.054  21.798  0.00  0.00    +0.024 A 
ATOM     12  C   UNL     1       9.933   1.182  21.799  0.00  0.00    +0.002 A 
ATOM     13  C   UNL     1       9.649   2.111  22.795  0.00  0.00    +0.008 A 
ATOM     14  C   UNL     1       7.283   0.274  24.978  0.00  0.00    +0.026 A 
BRANCH   5  18
ATOM     15  N   UNL     1       4.993   0.471  27.085  0.00  0.00    -0.247 N 
ATOM     16  H   UNL     1       4.716   0.147  26.159  0.00  0.00    +0.288 HD
ATOM     17  H   UNL     1       4.640  -0.145  27.806  0.00  0.00    +0.288 HD
ATOM     18  C   UNL     1       6.306   0.830  27.203  0.00  0.00    +0.308 C 
ATOM     19  N   UNL     1       6.898   0.797  28.350  0.00  0.00    -0.099 NA
ATOM     20  H   UNL     1       6.217   0.538  29.071  0.00  0.00    +0.363 HD
ENDBRANCH   5  18
ENDBRANCH   1  10
BRANCH   3  21
ATOM     21  C   UNL     1       7.347  -4.044  23.113  0.00  0.00    +0.039 A 
ATOM     22  C   UNL     1       6.737  -4.576  24.261  0.00  0.00    +0.042 A 
ATOM     23  C   UNL     1       5.848  -5.647  24.140  0.00  0.00    +0.118 A 
ATOM     24  C   UNL     1       5.551  -6.191  22.886  0.00  0.00    +0.029 A 
ATOM     25  C   UNL     1       6.157  -5.663  21.744  0.00  0.00    +0.003 A 
ATOM     26  C   UNL     1       7.052  -4.591  21.853  0.00  0.00    +0.013 A 
BRANCH  23  27
ATOM     27  S   UNL     1       5.046  -6.315  25.579  0.00  0.00    +0.112 S 
ATOM     28  O   UNL     1       6.070  -6.437  26.596  0.00  0.00    -0.142 OA
ATOM     29  O   UNL     1       4.280  -7.465  25.141  0.00  0.00    -0.142 OA
BRANCH  27  30
ATOM     30  O   UNL     1       3.977  -5.178  26.063  0.00  0.00    -0.234 OA
BRANCH  30  31
ATOM     31  C   UNL     1       2.865  -4.958  25.204  0.00  0.00    +0.196 C 
BRANCH  31  32
ATOM     32  C   UNL     1       2.375  -3.519  25.299  0.00  0.00    +0.058 C 
BRANCH  32  33
ATOM     33  C   UNL     1       3.268  -2.655  26.179  0.00  0.00    +0.158 C 
BRANCH  33  34
ATOM     34  O   UNL     1       4.312  -2.088  25.396  0.00  0.00    -0.395 OA
ATOM     35  H   UNL     1       3.983  -1.990  24.486  0.00  0.00    +0.209 HD
ENDBRANCH  33  34
ENDBRANCH  32  33
ENDBRANCH  31  32
ENDBRANCH  30  31
ENDBRANCH  27  30
ENDBRANCH  23  27
ENDBRANCH   3  21
TORSDOF 9
ENDMDL
