MODEL 1
REMARK VINA RESULT:      -4.8      0.000      0.000
REMARK  Name = 
REMARK  39 active torsions:
REMARK  status: ('A' for Active; 'I' for Inactive)
REMARK    1  A    between atoms: C_1  and  S_2
REMARK    2  A    between atoms: S_2  and  C_3
REMARK    3  A    between atoms: C_3  and  C_4
REMARK    4  A    between atoms: C_4  and  C_5
REMARK    5  A    between atoms: C_5  and  N_7
REMARK    6  A    between atoms: C_5  and  C_34
REMARK    7  A    between atoms: C_8  and  C_10
REMARK    8  A    between atoms: C_10  and  C_12
REMARK    9  A    between atoms: C_10  and  N_24
REMARK   10  A    between atoms: C_12  and  C_13
REMARK   11  A    between atoms: C_16  and  O_17
REMARK   12  A    between atoms: O_17  and  S_18
REMARK   13  A    between atoms: S_18  and  O_19
REMARK   14  A    between atoms: C_25  and  C_27
REMARK   15  A    between atoms: C_27  and  N_29
REMARK   16  A    between atoms: C_27  and  C_30
REMARK   17  A    between atoms: C_30  and  C_31
REMARK   18  A    between atoms: C_31  and  O_32
REMARK   19  A    between atoms: N_36  and  C_37
REMARK   20  A    between atoms: C_37  and  C_38
REMARK   21  A    between atoms: N_40  and  C_41
REMARK   22  A    between atoms: C_41  and  C_43
REMARK   23  A    between atoms: C_41  and  C_53
REMARK   24  A    between atoms: C_43  and  C_44
REMARK   25  A    between atoms: N_55  and  C_56
REMARK   26  A    between atoms: C_56  and  C_58
REMARK   27  A    between atoms: C_56  and  C_62
REMARK   28  A    between atoms: C_58  and  C_59
REMARK   29  A    between atoms: C_59  and  S_60
REMARK   30  A    between atoms: S_60  and  C_61
REMARK   31  A    between atoms: N_64  and  C_65
REMARK   32  A    between atoms: C_65  and  C_67
REMARK   33  A    between atoms: C_65  and  C_71
REMARK   34  A    between atoms: C_67  and  C_68
REMARK   35  A    between atoms: C_68  and  O_69
REMARK   36  A    between atoms: N_73  and  C_74
REMARK   37  A    between atoms: C_74  and  C_76
REMARK   38  A    between atoms: C_74  and  C_83
REMARK   39  A    between atoms: C_76  and  C_77
REMARK                            x       y       z     vdW  Elec       q    Type
REMARK                         _______ _______ _______ _____ _____    ______ ____
ROOT
ATOM      1  C   UNL     1       6.274  -1.485  23.016  0.00  0.00    +0.163 C 
ENDROOT
BRANCH   1   3
ATOM      2  C   UNL     1       7.118   0.832  22.554  0.00  0.00    +0.231 C 
ATOM      3  N   UNL     1       6.082  -0.059  22.711  0.00  0.00    -0.302 N 
ATOM      4  H   UNL     1       5.122   0.256  22.579  0.00  0.00    +0.150 HD
ATOM      5  O   UNL     1       8.298   0.492  22.508  0.00  0.00    -0.274 OA
BRANCH   2   6
ATOM      6  C   UNL     1       6.693   2.296  22.400  0.00  0.00    +0.200 C 
BRANCH   6   8
ATOM      7  C   UNL     1       4.726   3.682  22.850  0.00  0.00    +0.234 C 
ATOM      8  N   UNL     1       5.280   2.437  22.663  0.00  0.00    -0.305 N 
ATOM      9  H   UNL     1       4.827   1.653  23.124  0.00  0.00    +0.149 HD
ATOM     10  O   UNL     1       5.345   4.731  22.679  0.00  0.00    -0.274 OA
BRANCH   7  11
ATOM     11  C   UNL     1       3.282   3.647  23.364  0.00  0.00    +0.160 C 
BRANCH  11  12
ATOM     12  N   UNL     1       3.220   4.633  24.437  0.00  0.00    -0.302 N 
ATOM     13  H   UNL     1       3.296   5.604  24.162  0.00  0.00    +0.150 HD
ATOM     14  C   UNL     1       3.401   4.311  25.760  0.00  0.00    +0.234 C 
ATOM     15  O   UNL     1       3.771   3.188  26.106  0.00  0.00    -0.274 OA
BRANCH  14  16
ATOM     16  C   UNL     1       3.173   5.444  26.803  0.00  0.00    +0.163 C 
BRANCH  16  17
ATOM     17  N   UNL     1       3.173   4.856  28.136  0.00  0.00    -0.302 N 
ATOM     18  H   UNL     1       3.836   4.109  28.337  0.00  0.00    +0.150 HD
ATOM     19  C   UNL     1       2.049   4.871  28.926  0.00  0.00    +0.231 C 
ATOM     20  O   UNL     1       1.033   5.511  28.682  0.00  0.00    -0.274 OA
BRANCH  19  21
ATOM     21  C   UNL     1       2.140   4.046  30.203  0.00  0.00    +0.148 C 
BRANCH  21  22
ATOM     22  N   UNL     1       0.853   3.348  30.476  0.00  0.00    -0.320 NA
ATOM     23  H   UNL     1       0.667   3.343  31.481  0.00  0.00    +0.119 HD
ATOM     24  H   UNL     1       0.089   3.877  30.050  0.00  0.00    +0.119 HD
ENDBRANCH  21  22
BRANCH  21  25
ATOM     25  C   UNL     1       3.280   3.053  30.096  0.00  0.00    +0.148 C 
BRANCH  25  26
ATOM     26  C   UNL     1       3.003   1.684  29.537  0.00  0.00    +0.307 C 
ATOM     27  O   UNL     1       2.793   0.710  30.247  0.00  0.00    -0.251 OA
BRANCH  26  28
ATOM     28  O   UNL     1       3.171   1.574  28.206  0.00  0.00    -0.481 OA
ATOM     29  H   UNL     1       4.082   1.685  27.876  0.00  0.00    +0.295 HD
ENDBRANCH  26  28
ENDBRANCH  25  26
ENDBRANCH  21  25
ENDBRANCH  19  21
ENDBRANCH  16  17
BRANCH  16  30
ATOM     30  C   UNL     1       4.125   6.655  26.689  0.00  0.00    +0.067 C 
BRANCH  30  31
ATOM     31  C   UNL     1       5.533   6.334  26.252  0.00  0.00    -0.045 A 
ATOM     32  C   UNL     1       6.065   6.983  25.133  0.00  0.00    +0.007 A 
ATOM     33  C   UNL     1       7.395   6.773  24.774  0.00  0.00    +0.049 A 
ATOM     34  C   UNL     1       8.194   5.903  25.519  0.00  0.00    +0.159 A 
ATOM     35  C   UNL     1       7.663   5.251  26.629  0.00  0.00    +0.049 A 
ATOM     36  C   UNL     1       6.328   5.436  26.972  0.00  0.00    +0.007 A 
BRANCH  34  37
ATOM     37  O   UNL     1       9.484   5.756  25.080  0.00  0.00    -0.325 OA
BRANCH  37  38
ATOM     38  S   UNL     1       9.879   4.645  23.959  0.00  0.00    +0.251 S 
ATOM     39  O   UNL     1       9.495   3.326  24.413  0.00  0.00    -0.108 OA
ATOM     40  O   UNL     1      11.216   4.931  23.487  0.00  0.00    -0.108 OA
BRANCH  38  41
ATOM     41  O   UNL     1       8.908   5.035  22.736  0.00  0.00    -0.222 OA
ATOM     42  H   UNL     1       8.024   4.669  22.936  0.00  0.00    +0.248 HD
ENDBRANCH  38  41
ENDBRANCH  37  38
ENDBRANCH  34  37
ENDBRANCH  30  31
ENDBRANCH  16  30
ENDBRANCH  14  16
ENDBRANCH  11  12
BRANCH  11  43
ATOM     43  C   UNL     1       2.281   4.016  22.258  0.00  0.00    +0.042 C 
BRANCH  43  44
ATOM     44  C   UNL     1       2.105   2.972  21.155  0.00  0.00    +0.071 C 
BRANCH  44  46
ATOM     45  C   UNL     1       1.802   4.988  19.311  0.00  0.00    +0.084 C 
ATOM     46  S   UNL     1       0.931   3.504  19.873  0.00  0.00    -0.164 S 
ENDBRANCH  44  46
ENDBRANCH  43  44
ENDBRANCH  11  43
ENDBRANCH   7  11
ENDBRANCH   6   8
ENDBRANCH   2   6
ENDBRANCH   1   3
BRANCH   1  47
ATOM     47  C   UNL     1       7.531  -1.652  23.919  0.00  0.00    +0.234 C 
ATOM     48  N   UNL     1       7.443  -1.091  25.181  0.00  0.00    -0.302 N 
ATOM     49  H   UNL     1       6.592  -0.610  25.450  0.00  0.00    +0.150 HD
ATOM     50  O   UNL     1       8.538  -2.242  23.524  0.00  0.00    -0.274 OA
BRANCH  48  51
ATOM     51  C   UNL     1       8.435  -1.293  26.260  0.00  0.00    +0.160 C 
BRANCH  51  52
ATOM     52  C   UNL     1       8.330  -2.794  26.668  0.00  0.00    +0.234 C 
ATOM     53  N   UNL     1       7.321  -3.515  26.065  0.00  0.00    -0.302 N 
ATOM     54  H   UNL     1       6.889  -3.104  25.242  0.00  0.00    +0.150 HD
ATOM     55  O   UNL     1       9.144  -3.306  27.437  0.00  0.00    -0.274 OA
BRANCH  53  56
ATOM     56  C   UNL     1       7.166  -4.976  26.249  0.00  0.00    +0.169 C 
BRANCH  56  57
ATOM     57  C   UNL     1       6.634  -5.253  27.678  0.00  0.00    +0.234 C 
ATOM     58  N   UNL     1       5.484  -4.613  28.079  0.00  0.00    -0.302 N 
ATOM     59  H   UNL     1       4.955  -4.022  27.439  0.00  0.00    +0.150 HD
ATOM     60  O   UNL     1       7.186  -6.084  28.402  0.00  0.00    -0.274 OA
BRANCH  58  61
ATOM     61  C   UNL     1       4.859  -4.864  29.394  0.00  0.00    +0.163 C 
BRANCH  61  62
ATOM     62  C   UNL     1       4.231  -6.271  29.456  0.00  0.00    +0.231 C 
ATOM     63  O   UNL     1       3.420  -6.675  28.626  0.00  0.00    -0.274 OA
ATOM     64  N   UNL     1       4.651  -7.089  30.474  0.00  0.00    -0.328 N 
ATOM     65  H   UNL     1       4.246  -8.014  30.536  0.00  0.00    +0.145 HD
ATOM     66  H   UNL     1       5.413  -6.864  31.100  0.00  0.00    +0.145 HD
ENDBRANCH  61  62
BRANCH  61  67
ATOM     67  C   UNL     1       3.844  -3.793  29.847  0.00  0.00    +0.067 C 
BRANCH  67  68
ATOM     68  C   UNL     1       2.951  -3.194  28.784  0.00  0.00    -0.045 A 
ATOM     69  C   UNL     1       1.738  -3.810  28.456  0.00  0.00    +0.004 A 
ATOM     70  C   UNL     1       0.957  -3.322  27.409  0.00  0.00    +0.000 A 
ATOM     71  C   UNL     1       1.391  -2.237  26.652  0.00  0.00    +0.000 A 
ATOM     72  C   UNL     1       2.577  -1.592  26.993  0.00  0.00    +0.000 A 
ATOM     73  C   UNL     1       3.345  -2.057  28.063  0.00  0.00    +0.004 A 
ENDBRANCH  67  68
ENDBRANCH  61  67
ENDBRANCH  58  61
ENDBRANCH  56  57
BRANCH  56  74
ATOM     74  C   UNL     1       8.524  -5.667  26.132  0.00  0.00    +0.152 C 
BRANCH  74  75
ATOM     75  C   UNL     1       9.212  -5.292  24.852  0.00  0.00    +0.307 C 
ATOM     76  O   UNL     1      10.384  -4.951  24.793  0.00  0.00    -0.251 OA
BRANCH  75  77
ATOM     77  O   UNL     1       8.434  -5.372  23.751  0.00  0.00    -0.481 OA
ATOM     78  H   UNL     1       8.561  -4.670  23.084  0.00  0.00    +0.295 HD
ENDBRANCH  75  77
ENDBRANCH  74  75
ENDBRANCH  56  74
ENDBRANCH  53  56
ENDBRANCH  51  52
BRANCH  51  79
ATOM     79  C   UNL     1       8.087  -0.430  27.471  0.00  0.00    +0.042 C 
BRANCH  79  80
ATOM     80  C   UNL     1       6.726   0.242  27.555  0.00  0.00    +0.071 C 
BRANCH  80  81
ATOM     81  S   UNL     1       6.782   1.868  28.348  0.00  0.00    -0.164 S 
ATOM     82  C   UNL     1       7.673   1.384  29.856  0.00  0.00    +0.084 C 
ENDBRANCH  80  81
ENDBRANCH  79  80
ENDBRANCH  51  79
ENDBRANCH  48  51
ENDBRANCH   1  47
BRANCH   1  83
ATOM     83  C   UNL     1       6.419  -2.361  21.750  0.00  0.00    +0.069 C 
BRANCH  83  84
ATOM     84  C   UNL     1       5.966  -3.781  21.960  0.00  0.00    -0.020 A 
ATOM     85  C   UNL     1       5.109  -4.275  22.999  0.00  0.00    +0.003 A 
ATOM     86  C   UNL     1       5.051  -5.654  22.870  0.00  0.00    +0.047 A 
ATOM     87  C   UNL     1       4.335  -6.469  23.751  0.00  0.00    +0.026 A 
ATOM     88  C   UNL     1       3.629  -5.844  24.783  0.00  0.00    +0.002 A 
ATOM     89  C   UNL     1       3.648  -4.459  24.928  0.00  0.00    +0.001 A 
ATOM     90  N   UNL     1       5.795  -6.004  21.771  0.00  0.00    -0.360 N 
ATOM     91  H   UNL     1       5.939  -6.948  21.440  0.00  0.00    +0.165 HD
ATOM     92  C   UNL     1       4.386  -3.658  24.050  0.00  0.00    +0.010 A 
ATOM     93  C   UNL     1       6.336  -4.880  21.205  0.00  0.00    +0.087 A 
ENDBRANCH  83  84
ENDBRANCH   1  83
TORSDOF 37
ENDMDL
MODEL 2
REMARK VINA RESULT:      -4.1      2.629      6.981
REMARK  Name = 
REMARK  39 active torsions:
REMARK  status: ('A' for Active; 'I' for Inactive)
REMARK    1  A    between atoms: C_1  and  S_2
REMARK    2  A    between atoms: S_2  and  C_3
REMARK    3  A    between atoms: C_3  and  C_4
REMARK    4  A    between atoms: C_4  and  C_5
REMARK    5  A    between atoms: C_5  and  N_7
REMARK    6  A    between atoms: C_5  and  C_34
REMARK    7  A    between atoms: C_8  and  C_10
REMARK    8  A    between atoms: C_10  and  C_12
REMARK    9  A    between atoms: C_10  and  N_24
REMARK   10  A    between atoms: C_12  and  C_13
REMARK   11  A    between atoms: C_16  and  O_17
REMARK   12  A    between atoms: O_17  and  S_18
REMARK   13  A    between atoms: S_18  and  O_19
REMARK   14  A    between atoms: C_25  and  C_27
REMARK   15  A    between atoms: C_27  and  N_29
REMARK   16  A    between atoms: C_27  and  C_30
REMARK   17  A    between atoms: C_30  and  C_31
REMARK   18  A    between atoms: C_31  and  O_32
REMARK   19  A    between atoms: N_36  and  C_37
REMARK   20  A    between atoms: C_37  and  C_38
REMARK   21  A    between atoms: N_40  and  C_41
REMARK   22  A    between atoms: C_41  and  C_43
REMARK   23  A    between atoms: C_41  and  C_53
REMARK   24  A    between atoms: C_43  and  C_44
REMARK   25  A    between atoms: N_55  and  C_56
REMARK   26  A    between atoms: C_56  and  C_58
REMARK   27  A    between atoms: C_56  and  C_62
REMARK   28  A    between atoms: C_58  and  C_59
REMARK   29  A    between atoms: C_59  and  S_60
REMARK   30  A    between atoms: S_60  and  C_61
REMARK   31  A    between atoms: N_64  and  C_65
REMARK   32  A    between atoms: C_65  and  C_67
REMARK   33  A    between atoms: C_65  and  C_71
REMARK   34  A    between atoms: C_67  and  C_68
REMARK   35  A    between atoms: C_68  and  O_69
REMARK   36  A    between atoms: N_73  and  C_74
REMARK   37  A    between atoms: C_74  and  C_76
REMARK   38  A    between atoms: C_74  and  C_83
REMARK   39  A    between atoms: C_76  and  C_77
REMARK                            x       y       z     vdW  Elec       q    Type
REMARK                         _______ _______ _______ _____ _____    ______ ____
ROOT
ATOM      1  C   UNL     1       8.205   3.124  24.431  0.00  0.00    +0.163 C 
ENDROOT
BRANCH   1   3
ATOM      2  C   UNL     1       6.776   3.925  22.532  0.00  0.00    +0.231 C 
ATOM      3  N   UNL     1       7.016   3.053  23.568  0.00  0.00    -0.302 N 
ATOM      4  H   UNL     1       6.368   2.286  23.743  0.00  0.00    +0.150 HD
ATOM      5  O   UNL     1       7.598   4.749  22.139  0.00  0.00    -0.274 OA
BRANCH   2   6
ATOM      6  C   UNL     1       5.405   3.771  21.864  0.00  0.00    +0.200 C 
BRANCH   6   8
ATOM      7  C   UNL     1       3.790   3.379  23.662  0.00  0.00    +0.234 C 
ATOM      8  N   UNL     1       4.363   4.234  22.749  0.00  0.00    -0.305 N 
ATOM      9  H   UNL     1       3.790   5.000  22.408  0.00  0.00    +0.149 HD
ATOM     10  O   UNL     1       4.203   2.240  23.873  0.00  0.00    -0.274 OA
BRANCH   7  11
ATOM     11  C   UNL     1       2.540   3.946  24.345  0.00  0.00    +0.160 C 
BRANCH  11  12
ATOM     12  N   UNL     1       2.612   3.504  25.733  0.00  0.00    -0.302 N 
ATOM     13  H   UNL     1       3.494   3.650  26.207  0.00  0.00    +0.150 HD
ATOM     14  C   UNL     1       1.705   2.635  26.289  0.00  0.00    +0.234 C 
ATOM     15  O   UNL     1       0.856   2.063  25.604  0.00  0.00    -0.274 OA
BRANCH  14  16
ATOM     16  C   UNL     1       1.832   2.360  27.816  0.00  0.00    +0.163 C 
BRANCH  16  17
ATOM     17  N   UNL     1       2.189   3.603  28.485  0.00  0.00    -0.302 N 
ATOM     18  H   UNL     1       2.783   3.556  29.313  0.00  0.00    +0.150 HD
ATOM     19  C   UNL     1       1.393   4.720  28.396  0.00  0.00    +0.231 C 
ATOM     20  O   UNL     1       0.443   4.840  27.632  0.00  0.00    -0.274 OA
BRANCH  19  21
ATOM     21  C   UNL     1       1.788   5.874  29.307  0.00  0.00    +0.148 C 
BRANCH  21  22
ATOM     22  N   UNL     1       0.880   5.956  30.484  0.00  0.00    -0.320 NA
ATOM     23  H   UNL     1       0.223   5.173  30.471  0.00  0.00    +0.119 HD
ATOM     24  H   UNL     1       1.431   5.847  31.339  0.00  0.00    +0.119 HD
ENDBRANCH  21  22
BRANCH  21  25
ATOM     25  C   UNL     1       3.229   5.716  29.747  0.00  0.00    +0.148 C 
BRANCH  25  26
ATOM     26  C   UNL     1       4.297   5.564  28.697  0.00  0.00    +0.307 C 
ATOM     27  O   UNL     1       5.387   5.058  28.931  0.00  0.00    -0.251 OA
BRANCH  26  28
ATOM     28  O   UNL     1       4.032   6.179  27.529  0.00  0.00    -0.481 OA
ATOM     29  H   UNL     1       4.778   6.642  27.107  0.00  0.00    +0.295 HD
ENDBRANCH  26  28
ENDBRANCH  25  26
ENDBRANCH  21  25
ENDBRANCH  19  21
ENDBRANCH  16  17
BRANCH  16  30
ATOM     30  C   UNL     1       0.618   1.663  28.470  0.00  0.00    +0.067 C 
BRANCH  30  31
ATOM     31  C   UNL     1       0.736   0.167  28.627  0.00  0.00    -0.045 A 
ATOM     32  C   UNL     1       0.887  -0.630  27.487  0.00  0.00    +0.007 A 
ATOM     33  C   UNL     1       1.098  -2.001  27.620  0.00  0.00    +0.049 A 
ATOM     34  C   UNL     1       1.142  -2.585  28.887  0.00  0.00    +0.159 A 
ATOM     35  C   UNL     1       0.984  -1.794  30.022  0.00  0.00    +0.049 A 
ATOM     36  C   UNL     1       0.746  -0.430  29.892  0.00  0.00    +0.007 A 
BRANCH  34  37
ATOM     37  O   UNL     1       1.343  -3.940  28.911  0.00  0.00    -0.325 OA
BRANCH  37  38
ATOM     38  S   UNL     1       2.667  -4.615  28.249  0.00  0.00    +0.251 S 
ATOM     39  O   UNL     1       2.897  -5.923  28.825  0.00  0.00    -0.108 OA
ATOM     40  O   UNL     1       3.708  -3.612  28.188  0.00  0.00    -0.108 OA
BRANCH  38  41
ATOM     41  O   UNL     1       2.208  -4.837  26.722  0.00  0.00    -0.222 OA
ATOM     42  H   UNL     1       2.782  -4.283  26.159  0.00  0.00    +0.248 HD
ENDBRANCH  38  41
ENDBRANCH  37  38
ENDBRANCH  34  37
ENDBRANCH  30  31
ENDBRANCH  16  30
ENDBRANCH  14  16
ENDBRANCH  11  12
BRANCH  11  43
ATOM     43  C   UNL     1       2.514   5.481  24.287  0.00  0.00    +0.042 C 
BRANCH  43  44
ATOM     44  C   UNL     1       1.130   6.121  24.417  0.00  0.00    +0.071 C 
BRANCH  44  46
ATOM     45  C   UNL     1       1.820   6.329  21.764  0.00  0.00    +0.084 C 
ATOM     46  S   UNL     1       0.661   7.071  22.939  0.00  0.00    -0.164 S 
ENDBRANCH  44  46
ENDBRANCH  43  44
ENDBRANCH  11  43
ENDBRANCH   7  11
ENDBRANCH   6   8
ENDBRANCH   2   6
ENDBRANCH   1   3
BRANCH   1  47
ATOM     47  C   UNL     1       8.412   1.750  25.134  0.00  0.00    +0.234 C 
ATOM     48  N   UNL     1       7.600   1.507  26.228  0.00  0.00    -0.302 N 
ATOM     49  H   UNL     1       6.931   2.213  26.514  0.00  0.00    +0.150 HD
ATOM     50  O   UNL     1       9.253   0.942  24.738  0.00  0.00    -0.274 OA
BRANCH  48  51
ATOM     51  C   UNL     1       7.495   0.204  26.921  0.00  0.00    +0.160 C 
BRANCH  51  52
ATOM     52  C   UNL     1       6.545  -0.672  26.051  0.00  0.00    +0.234 C 
ATOM     53  N   UNL     1       7.085  -1.179  24.888  0.00  0.00    -0.302 N 
ATOM     54  H   UNL     1       8.097  -1.158  24.803  0.00  0.00    +0.150 HD
ATOM     55  O   UNL     1       5.400  -0.938  26.422  0.00  0.00    -0.274 OA
BRANCH  53  56
ATOM     56  C   UNL     1       6.355  -2.129  24.018  0.00  0.00    +0.169 C 
BRANCH  56  57
ATOM     57  C   UNL     1       6.541  -3.567  24.569  0.00  0.00    +0.234 C 
ATOM     58  N   UNL     1       5.803  -3.941  25.668  0.00  0.00    -0.302 N 
ATOM     59  H   UNL     1       5.104  -3.321  26.075  0.00  0.00    +0.150 HD
ATOM     60  O   UNL     1       7.272  -4.370  23.987  0.00  0.00    -0.274 OA
BRANCH  58  61
ATOM     61  C   UNL     1       5.857  -5.310  26.224  0.00  0.00    +0.163 C 
BRANCH  61  62
ATOM     62  C   UNL     1       7.121  -5.514  27.084  0.00  0.00    +0.231 C 
ATOM     63  O   UNL     1       7.075  -5.856  28.264  0.00  0.00    -0.274 OA
ATOM     64  N   UNL     1       8.328  -5.335  26.458  0.00  0.00    -0.328 N 
ATOM     65  H   UNL     1       9.170  -5.457  27.006  0.00  0.00    +0.145 HD
ATOM     66  H   UNL     1       8.431  -5.191  25.462  0.00  0.00    +0.145 HD
ENDBRANCH  61  62
BRANCH  61  67
ATOM     67  C   UNL     1       5.716  -6.440  25.183  0.00  0.00    +0.067 C 
BRANCH  67  68
ATOM     68  C   UNL     1       4.343  -6.671  24.594  0.00  0.00    -0.045 A 
ATOM     69  C   UNL     1       3.928  -5.942  23.473  0.00  0.00    +0.004 A 
ATOM     70  C   UNL     1       2.628  -6.076  22.985  0.00  0.00    +0.000 A 
ATOM     71  C   UNL     1       1.715  -6.907  23.628  0.00  0.00    +0.000 A 
ATOM     72  C   UNL     1       2.128  -7.667  24.720  0.00  0.00    +0.000 A 
ATOM     73  C   UNL     1       3.439  -7.562  25.191  0.00  0.00    +0.004 A 
ENDBRANCH  67  68
ENDBRANCH  61  67
ENDBRANCH  58  61
ENDBRANCH  56  57
BRANCH  56  74
ATOM     74  C   UNL     1       6.941  -2.108  22.607  0.00  0.00    +0.152 C 
BRANCH  74  75
ATOM     75  C   UNL     1       8.305  -1.481  22.599  0.00  0.00    +0.307 C 
ATOM     76  O   UNL     1       9.317  -2.068  22.951  0.00  0.00    -0.251 OA
BRANCH  75  77
ATOM     77  O   UNL     1       8.335  -0.206  22.154  0.00  0.00    -0.481 OA
ATOM     78  H   UNL     1       9.061   0.350  22.496  0.00  0.00    +0.295 HD
ENDBRANCH  75  77
ENDBRANCH  74  75
ENDBRANCH  56  74
ENDBRANCH  53  56
ENDBRANCH  51  52
BRANCH  51  79
ATOM     79  C   UNL     1       6.869   0.385  28.302  0.00  0.00    +0.042 C 
BRANCH  79  80
ATOM     80  C   UNL     1       5.901   1.531  28.550  0.00  0.00    +0.071 C 
BRANCH  80  81
ATOM     81  S   UNL     1       4.844   1.270  29.995  0.00  0.00    -0.164 S 
ATOM     82  C   UNL     1       4.407  -0.465  29.680  0.00  0.00    +0.084 C 
ENDBRANCH  80  81
ENDBRANCH  79  80
ENDBRANCH  51  79
ENDBRANCH  48  51
ENDBRANCH   1  47
BRANCH   1  83
ATOM     83  C   UNL     1       8.117   4.246  25.492  0.00  0.00    +0.069 C 
BRANCH  83  84
ATOM     84  C   UNL     1       9.196   5.284  25.344  0.00  0.00    -0.020 A 
ATOM     85  C   UNL     1      10.374   5.203  24.528  0.00  0.00    +0.003 A 
ATOM     86  C   UNL     1      11.137   6.331  24.786  0.00  0.00    +0.047 A 
ATOM     87  C   UNL     1      12.381   6.557  24.191  0.00  0.00    +0.026 A 
ATOM     88  C   UNL     1      12.845   5.608  23.276  0.00  0.00    +0.002 A 
ATOM     89  C   UNL     1      12.093   4.474  22.979  0.00  0.00    +0.001 A 
ATOM     90  N   UNL     1      10.448   7.108  25.682  0.00  0.00    -0.360 N 
ATOM     91  H   UNL     1      10.768   7.990  26.059  0.00  0.00    +0.165 HD
ATOM     92  C   UNL     1      10.858   4.252  23.597  0.00  0.00    +0.010 A 
ATOM     93  C   UNL     1       9.268   6.494  26.012  0.00  0.00    +0.087 A 
ENDBRANCH  83  84
ENDBRANCH   1  83
TORSDOF 37
ENDMDL
MODEL 3
REMARK VINA RESULT:      -3.7      3.153     10.016
REMARK  Name = 
REMARK  39 active torsions:
REMARK  status: ('A' for Active; 'I' for Inactive)
REMARK    1  A    between atoms: C_1  and  S_2
REMARK    2  A    between atoms: S_2  and  C_3
REMARK    3  A    between atoms: C_3  and  C_4
REMARK    4  A    between atoms: C_4  and  C_5
REMARK    5  A    between atoms: C_5  and  N_7
REMARK    6  A    between atoms: C_5  and  C_34
REMARK    7  A    between atoms: C_8  and  C_10
REMARK    8  A    between atoms: C_10  and  C_12
REMARK    9  A    between atoms: C_10  and  N_24
REMARK   10  A    between atoms: C_12  and  C_13
REMARK   11  A    between atoms: C_16  and  O_17
REMARK   12  A    between atoms: O_17  and  S_18
REMARK   13  A    between atoms: S_18  and  O_19
REMARK   14  A    between atoms: C_25  and  C_27
REMARK   15  A    between atoms: C_27  and  N_29
REMARK   16  A    between atoms: C_27  and  C_30
REMARK   17  A    between atoms: C_30  and  C_31
REMARK   18  A    between atoms: C_31  and  O_32
REMARK   19  A    between atoms: N_36  and  C_37
REMARK   20  A    between atoms: C_37  and  C_38
REMARK   21  A    between atoms: N_40  and  C_41
REMARK   22  A    between atoms: C_41  and  C_43
REMARK   23  A    between atoms: C_41  and  C_53
REMARK   24  A    between atoms: C_43  and  C_44
REMARK   25  A    between atoms: N_55  and  C_56
REMARK   26  A    between atoms: C_56  and  C_58
REMARK   27  A    between atoms: C_56  and  C_62
REMARK   28  A    between atoms: C_58  and  C_59
REMARK   29  A    between atoms: C_59  and  S_60
REMARK   30  A    between atoms: S_60  and  C_61
REMARK   31  A    between atoms: N_64  and  C_65
REMARK   32  A    between atoms: C_65  and  C_67
REMARK   33  A    between atoms: C_65  and  C_71
REMARK   34  A    between atoms: C_67  and  C_68
REMARK   35  A    between atoms: C_68  and  O_69
REMARK   36  A    between atoms: N_73  and  C_74
REMARK   37  A    between atoms: C_74  and  C_76
REMARK   38  A    between atoms: C_74  and  C_83
REMARK   39  A    between atoms: C_76  and  C_77
REMARK                            x       y       z     vdW  Elec       q    Type
REMARK                         _______ _______ _______ _____ _____    ______ ____
ROOT
ATOM      1  C   UNL     1       8.253   1.653  24.973  0.00  0.00    +0.163 C 
ENDROOT
BRANCH   1   3
ATOM      2  C   UNL     1       7.295   0.233  23.140  0.00  0.00    +0.231 C 
ATOM      3  N   UNL     1       7.701   0.396  24.444  0.00  0.00    -0.302 N 
ATOM      4  H   UNL     1       7.658  -0.393  25.088  0.00  0.00    +0.150 HD
ATOM      5  O   UNL     1       7.493   1.071  22.263  0.00  0.00    -0.274 OA
BRANCH   2   6
ATOM      6  C   UNL     1       6.604  -1.101  22.841  0.00  0.00    +0.200 C 
BRANCH   6   8
ATOM      7  C   UNL     1       8.080  -3.010  23.252  0.00  0.00    +0.234 C 
ATOM      8  N   UNL     1       7.120  -2.136  23.705  0.00  0.00    -0.305 N 
ATOM      9  H   UNL     1       6.492  -2.471  24.431  0.00  0.00    +0.149 HD
ATOM     10  O   UNL     1       8.644  -2.892  22.165  0.00  0.00    -0.274 OA
BRANCH   7  11
ATOM     11  C   UNL     1       8.337  -4.193  24.193  0.00  0.00    +0.160 C 
BRANCH  11  12
ATOM     12  N   UNL     1       7.328  -4.092  25.241  0.00  0.00    -0.302 N 
ATOM     13  H   UNL     1       6.482  -3.589  25.005  0.00  0.00    +0.150 HD
ATOM     14  C   UNL     1       7.598  -4.334  26.566  0.00  0.00    +0.234 C 
ATOM     15  O   UNL     1       8.749  -4.511  26.967  0.00  0.00    -0.274 OA
BRANCH  14  16
ATOM     16  C   UNL     1       6.392  -4.319  27.550  0.00  0.00    +0.163 C 
BRANCH  16  17
ATOM     17  N   UNL     1       5.316  -3.537  26.955  0.00  0.00    -0.302 N 
ATOM     18  H   UNL     1       5.391  -3.278  25.971  0.00  0.00    +0.150 HD
ATOM     19  C   UNL     1       4.517  -2.720  27.717  0.00  0.00    +0.231 C 
ATOM     20  O   UNL     1       4.502  -2.706  28.942  0.00  0.00    -0.274 OA
BRANCH  19  21
ATOM     21  C   UNL     1       3.574  -1.817  26.934  0.00  0.00    +0.148 C 
BRANCH  21  22
ATOM     22  N   UNL     1       4.306  -0.653  26.363  0.00  0.00    -0.320 NA
ATOM     23  H   UNL     1       3.676  -0.097  25.782  0.00  0.00    +0.119 HD
ATOM     24  H   UNL     1       4.602  -0.039  27.125  0.00  0.00    +0.119 HD
ENDBRANCH  21  22
BRANCH  21  25
ATOM     25  C   UNL     1       2.887  -2.611  25.841  0.00  0.00    +0.148 C 
BRANCH  25  26
ATOM     26  C   UNL     1       1.709  -3.476  26.200  0.00  0.00    +0.307 C 
ATOM     27  O   UNL     1       0.702  -3.543  25.507  0.00  0.00    -0.251 OA
BRANCH  26  28
ATOM     28  O   UNL     1       1.772  -4.036  27.423  0.00  0.00    -0.481 OA
ATOM     29  H   UNL     1       1.548  -3.457  28.174  0.00  0.00    +0.295 HD
ENDBRANCH  26  28
ENDBRANCH  25  26
ENDBRANCH  21  25
ENDBRANCH  19  21
ENDBRANCH  16  17
BRANCH  16  30
ATOM     30  C   UNL     1       5.915  -5.704  28.041  0.00  0.00    +0.067 C 
BRANCH  30  31
ATOM     31  C   UNL     1       4.613  -6.187  27.454  0.00  0.00    -0.045 A 
ATOM     32  C   UNL     1       4.505  -6.348  26.069  0.00  0.00    +0.007 A 
ATOM     33  C   UNL     1       3.344  -6.888  25.519  0.00  0.00    +0.049 A 
ATOM     34  C   UNL     1       2.280  -7.253  26.345  0.00  0.00    +0.159 A 
ATOM     35  C   UNL     1       2.383  -7.086  27.724  0.00  0.00    +0.049 A 
ATOM     36  C   UNL     1       3.528  -6.521  28.273  0.00  0.00    +0.007 A 
BRANCH  34  37
ATOM     37  O   UNL     1       1.179  -7.763  25.708  0.00  0.00    -0.325 OA
BRANCH  37  38
ATOM     38  S   UNL     1       1.067  -9.345  25.341  0.00  0.00    +0.251 S 
ATOM     39  O   UNL     1       0.467  -9.508  24.034  0.00  0.00    -0.108 OA
ATOM     40  O   UNL     1       0.571 -10.048  26.504  0.00  0.00    -0.108 OA
BRANCH  38  41
ATOM     41  O   UNL     1       2.613  -9.775  25.216  0.00  0.00    -0.222 OA
ATOM     42  H   UNL     1       3.139  -8.957  25.121  0.00  0.00    +0.248 HD
ENDBRANCH  38  41
ENDBRANCH  37  38
ENDBRANCH  34  37
ENDBRANCH  30  31
ENDBRANCH  16  30
ENDBRANCH  14  16
ENDBRANCH  11  12
BRANCH  11  43
ATOM     43  C   UNL     1       8.197  -5.536  23.461  0.00  0.00    +0.042 C 
BRANCH  43  44
ATOM     44  C   UNL     1       6.836  -6.222  23.599  0.00  0.00    +0.071 C 
BRANCH  44  46
ATOM     45  C   UNL     1       4.862  -4.426  22.942  0.00  0.00    +0.084 C 
ATOM     46  S   UNL     1       5.721  -5.843  22.214  0.00  0.00    -0.164 S 
ENDBRANCH  44  46
ENDBRANCH  43  44
ENDBRANCH  11  43
ENDBRANCH   7  11
ENDBRANCH   6   8
ENDBRANCH   2   6
ENDBRANCH   1   3
BRANCH   1  47
ATOM     47  C   UNL     1       7.469   2.058  26.256  0.00  0.00    +0.234 C 
ATOM     48  N   UNL     1       7.017   3.365  26.294  0.00  0.00    -0.302 N 
ATOM     49  H   UNL     1       7.212   3.980  25.512  0.00  0.00    +0.150 HD
ATOM     50  O   UNL     1       7.276   1.261  27.174  0.00  0.00    -0.274 OA
BRANCH  48  51
ATOM     51  C   UNL     1       6.096   3.904  27.319  0.00  0.00    +0.160 C 
BRANCH  51  52
ATOM     52  C   UNL     1       4.655   3.672  26.771  0.00  0.00    +0.234 C 
ATOM     53  N   UNL     1       4.054   4.757  26.169  0.00  0.00    -0.302 N 
ATOM     54  H   UNL     1       4.658   5.533  25.909  0.00  0.00    +0.150 HD
ATOM     55  O   UNL     1       4.122   2.562  26.824  0.00  0.00    -0.274 OA
BRANCH  53  56
ATOM     56  C   UNL     1       2.743   4.666  25.488  0.00  0.00    +0.169 C 
BRANCH  56  57
ATOM     57  C   UNL     1       1.615   4.726  26.551  0.00  0.00    +0.234 C 
ATOM     58  N   UNL     1       1.970   4.671  27.879  0.00  0.00    -0.302 N 
ATOM     59  H   UNL     1       2.947   4.657  28.167  0.00  0.00    +0.150 HD
ATOM     60  O   UNL     1       0.443   4.896  26.211  0.00  0.00    -0.274 OA
BRANCH  58  61
ATOM     61  C   UNL     1       0.976   4.790  28.966  0.00  0.00    +0.163 C 
BRANCH  61  62
ATOM     62  C   UNL     1       0.669   6.268  29.283  0.00  0.00    +0.231 C 
ATOM     63  O   UNL     1       0.599   6.703  30.431  0.00  0.00    -0.274 OA
ATOM     64  N   UNL     1       0.512   7.108  28.210  0.00  0.00    -0.328 N 
ATOM     65  H   UNL     1       0.302   8.081  28.396  0.00  0.00    +0.145 HD
ATOM     66  H   UNL     1       0.694   6.840  27.252  0.00  0.00    +0.145 HD
ENDBRANCH  61  62
BRANCH  61  67
ATOM     67  C   UNL     1       1.326   4.017  30.255  0.00  0.00    +0.067 C 
BRANCH  67  68
ATOM     68  C   UNL     1       1.896   2.625  30.093  0.00  0.00    -0.045 A 
ATOM     69  C   UNL     1       1.042   1.538  29.874  0.00  0.00    +0.004 A 
ATOM     70  C   UNL     1       1.549   0.240  29.824  0.00  0.00    +0.000 A 
ATOM     71  C   UNL     1       2.906   0.005  30.029  0.00  0.00    +0.000 A 
ATOM     72  C   UNL     1       3.771   1.081  30.208  0.00  0.00    +0.000 A 
ATOM     73  C   UNL     1       3.271   2.386  30.224  0.00  0.00    +0.004 A 
ENDBRANCH  67  68
ENDBRANCH  61  67
ENDBRANCH  58  61
ENDBRANCH  56  57
BRANCH  56  74
ATOM     74  C   UNL     1       2.615   3.323  24.770  0.00  0.00    +0.152 C 
BRANCH  74  75
ATOM     75  C   UNL     1       3.350   3.339  23.462  0.00  0.00    +0.307 C 
ATOM     76  O   UNL     1       2.857   2.964  22.409  0.00  0.00    -0.251 OA
BRANCH  75  77
ATOM     77  O   UNL     1       4.611   3.819  23.531  0.00  0.00    -0.481 OA
ATOM     78  H   UNL     1       4.888   4.403  22.800  0.00  0.00    +0.295 HD
ENDBRANCH  75  77
ENDBRANCH  74  75
ENDBRANCH  56  74
ENDBRANCH  53  56
ENDBRANCH  51  52
BRANCH  51  79
ATOM     79  C   UNL     1       6.317   5.405  27.498  0.00  0.00    +0.042 C 
BRANCH  79  80
ATOM     80  C   UNL     1       6.899   5.934  28.799  0.00  0.00    +0.071 C 
BRANCH  80  81
ATOM     81  S   UNL     1       5.834   5.630  30.230  0.00  0.00    -0.164 S 
ATOM     82  C   UNL     1       4.381   6.566  29.670  0.00  0.00    +0.084 C 
ENDBRANCH  80  81
ENDBRANCH  79  80
ENDBRANCH  51  79
ENDBRANCH  48  51
ENDBRANCH   1  47
BRANCH   1  83
ATOM     83  C   UNL     1       8.215   2.810  23.948  0.00  0.00    +0.069 C 
BRANCH  83  84
ATOM     84  C   UNL     1       9.561   3.443  23.721  0.00  0.00    -0.020 A 
ATOM     85  C   UNL     1      10.063   4.652  24.306  0.00  0.00    +0.003 A 
ATOM     86  C   UNL     1      11.296   4.913  23.730  0.00  0.00    +0.047 A 
ATOM     87  C   UNL     1      12.054   6.046  24.039  0.00  0.00    +0.026 A 
ATOM     88  C   UNL     1      11.541   6.928  24.995  0.00  0.00    +0.002 A 
ATOM     89  C   UNL     1      10.315   6.684  25.609  0.00  0.00    +0.001 A 
ATOM     90  N   UNL     1      11.578   3.889  22.862  0.00  0.00    -0.360 N 
ATOM     91  H   UNL     1      12.411   3.818  22.293  0.00  0.00    +0.165 HD
ATOM     92  C   UNL     1       9.559   5.556  25.275  0.00  0.00    +0.010 A 
ATOM     93  C   UNL     1      10.546   2.988  22.862  0.00  0.00    +0.087 A 
ENDBRANCH  83  84
ENDBRANCH   1  83
TORSDOF 37
ENDMDL
MODEL 4
REMARK VINA RESULT:      -3.6      1.836      2.444
REMARK  Name = 
REMARK  39 active torsions:
REMARK  status: ('A' for Active; 'I' for Inactive)
REMARK    1  A    between atoms: C_1  and  S_2
REMARK    2  A    between atoms: S_2  and  C_3
REMARK    3  A    between atoms: C_3  and  C_4
REMARK    4  A    between atoms: C_4  and  C_5
REMARK    5  A    between atoms: C_5  and  N_7
REMARK    6  A    between atoms: C_5  and  C_34
REMARK    7  A    between atoms: C_8  and  C_10
REMARK    8  A    between atoms: C_10  and  C_12
REMARK    9  A    between atoms: C_10  and  N_24
REMARK   10  A    between atoms: C_12  and  C_13
REMARK   11  A    between atoms: C_16  and  O_17
REMARK   12  A    between atoms: O_17  and  S_18
REMARK   13  A    between atoms: S_18  and  O_19
REMARK   14  A    between atoms: C_25  and  C_27
REMARK   15  A    between atoms: C_27  and  N_29
REMARK   16  A    between atoms: C_27  and  C_30
REMARK   17  A    between atoms: C_30  and  C_31
REMARK   18  A    between atoms: C_31  and  O_32
REMARK   19  A    between atoms: N_36  and  C_37
REMARK   20  A    between atoms: C_37  and  C_38
REMARK   21  A    between atoms: N_40  and  C_41
REMARK   22  A    between atoms: C_41  and  C_43
REMARK   23  A    between atoms: C_41  and  C_53
REMARK   24  A    between atoms: C_43  and  C_44
REMARK   25  A    between atoms: N_55  and  C_56
REMARK   26  A    between atoms: C_56  and  C_58
REMARK   27  A    between atoms: C_56  and  C_62
REMARK   28  A    between atoms: C_58  and  C_59
REMARK   29  A    between atoms: C_59  and  S_60
REMARK   30  A    between atoms: S_60  and  C_61
REMARK   31  A    between atoms: N_64  and  C_65
REMARK   32  A    between atoms: C_65  and  C_67
REMARK   33  A    between atoms: C_65  and  C_71
REMARK   34  A    between atoms: C_67  and  C_68
REMARK   35  A    between atoms: C_68  and  O_69
REMARK   36  A    between atoms: N_73  and  C_74
REMARK   37  A    between atoms: C_74  and  C_76
REMARK   38  A    between atoms: C_74  and  C_83
REMARK   39  A    between atoms: C_76  and  C_77
REMARK                            x       y       z     vdW  Elec       q    Type
REMARK                         _______ _______ _______ _____ _____    ______ ____
ROOT
ATOM      1  C   UNL     1       6.294  -1.216  23.156  0.00  0.00    +0.163 C 
ENDROOT
BRANCH   1   3
ATOM      2  C   UNL     1       6.985   1.079  22.414  0.00  0.00    +0.231 C 
ATOM      3  N   UNL     1       6.056   0.222  22.957  0.00  0.00    -0.302 N 
ATOM      4  H   UNL     1       5.133   0.573  23.210  0.00  0.00    +0.150 HD
ATOM      5  O   UNL     1       8.040   0.700  21.911  0.00  0.00    -0.274 OA
BRANCH   2   6
ATOM      6  C   UNL     1       6.592   2.560  22.444  0.00  0.00    +0.200 C 
BRANCH   6   8
ATOM      7  C   UNL     1       4.549   3.909  22.397  0.00  0.00    +0.234 C 
ATOM      8  N   UNL     1       5.183   2.709  22.167  0.00  0.00    -0.305 N 
ATOM      9  H   UNL     1       4.619   1.867  22.231  0.00  0.00    +0.149 HD
ATOM     10  O   UNL     1       5.144   4.938  22.715  0.00  0.00    -0.274 OA
BRANCH   7  11
ATOM     11  C   UNL     1       3.022   3.834  22.293  0.00  0.00    +0.160 C 
BRANCH  11  12
ATOM     12  N   UNL     1       2.516   4.198  23.612  0.00  0.00    -0.302 N 
ATOM     13  H   UNL     1       3.121   4.775  24.182  0.00  0.00    +0.150 HD
ATOM     14  C   UNL     1       1.470   3.546  24.217  0.00  0.00    +0.234 C 
ATOM     15  O   UNL     1       0.987   2.518  23.740  0.00  0.00    -0.274 OA
BRANCH  14  16
ATOM     16  C   UNL     1       0.955   4.132  25.565  0.00  0.00    +0.163 C 
BRANCH  16  17
ATOM     17  N   UNL     1       1.319   3.217  26.638  0.00  0.00    -0.302 N 
ATOM     18  H   UNL     1       0.916   3.369  27.563  0.00  0.00    +0.150 HD
ATOM     19  C   UNL     1       2.509   2.530  26.623  0.00  0.00    +0.231 C 
ATOM     20  O   UNL     1       3.269   2.473  25.663  0.00  0.00    -0.274 OA
BRANCH  19  21
ATOM     21  C   UNL     1       2.841   1.773  27.901  0.00  0.00    +0.148 C 
BRANCH  21  22
ATOM     22  N   UNL     1       3.906   2.472  28.671  0.00  0.00    -0.320 NA
ATOM     23  H   UNL     1       4.084   1.976  29.547  0.00  0.00    +0.119 HD
ATOM     24  H   UNL     1       4.780   2.435  28.142  0.00  0.00    +0.119 HD
ENDBRANCH  21  22
BRANCH  21  25
ATOM     25  C   UNL     1       1.590   1.604  28.741  0.00  0.00    +0.148 C 
BRANCH  25  26
ATOM     26  C   UNL     1       1.503   0.440  29.690  0.00  0.00    +0.307 C 
ATOM     27  O   UNL     1       2.400   0.156  30.473  0.00  0.00    -0.251 OA
BRANCH  26  28
ATOM     28  O   UNL     1       0.443  -0.368  29.497  0.00  0.00    -0.481 OA
ATOM     29  H   UNL     1       0.381  -1.144  30.083  0.00  0.00    +0.295 HD
ENDBRANCH  26  28
ENDBRANCH  25  26
ENDBRANCH  21  25
ENDBRANCH  19  21
ENDBRANCH  16  17
BRANCH  16  30
ATOM     30  C   UNL     1       1.374   5.589  25.860  0.00  0.00    +0.067 C 
BRANCH  30  31
ATOM     31  C   UNL     1       2.560   5.750  26.778  0.00  0.00    -0.045 A 
ATOM     32  C   UNL     1       3.836   5.903  26.226  0.00  0.00    +0.007 A 
ATOM     33  C   UNL     1       4.928   6.152  27.055  0.00  0.00    +0.049 A 
ATOM     34  C   UNL     1       4.755   6.232  28.438  0.00  0.00    +0.159 A 
ATOM     35  C   UNL     1       3.487   6.072  28.990  0.00  0.00    +0.049 A 
ATOM     36  C   UNL     1       2.400   5.795  28.168  0.00  0.00    +0.007 A 
BRANCH  34  37
ATOM     37  O   UNL     1       5.891   6.469  29.167  0.00  0.00    -0.325 OA
BRANCH  37  38
ATOM     38  S   UNL     1       7.023   5.319  29.376  0.00  0.00    +0.251 S 
ATOM     39  O   UNL     1       6.412   4.008  29.329  0.00  0.00    -0.108 OA
ATOM     40  O   UNL     1       7.885   5.722  30.466  0.00  0.00    -0.108 OA
BRANCH  38  41
ATOM     41  O   UNL     1       7.920   5.479  28.049  0.00  0.00    -0.222 OA
ATOM     42  H   UNL     1       8.308   6.376  28.063  0.00  0.00    +0.248 HD
ENDBRANCH  38  41
ENDBRANCH  37  38
ENDBRANCH  34  37
ENDBRANCH  30  31
ENDBRANCH  16  30
ENDBRANCH  14  16
ENDBRANCH  11  12
BRANCH  11  43
ATOM     43  C   UNL     1       2.480   4.812  21.239  0.00  0.00    +0.042 C 
BRANCH  43  44
ATOM     44  C   UNL     1       1.150   4.417  20.596  0.00  0.00    +0.071 C 
BRANCH  44  46
ATOM     45  C   UNL     1       1.709   4.566  17.909  0.00  0.00    +0.084 C 
ATOM     46  S   UNL     1       0.738   5.447  19.156  0.00  0.00    -0.164 S 
ENDBRANCH  44  46
ENDBRANCH  43  44
ENDBRANCH  11  43
ENDBRANCH   7  11
ENDBRANCH   6   8
ENDBRANCH   2   6
ENDBRANCH   1   3
BRANCH   1  47
ATOM     47  C   UNL     1       7.598  -1.410  23.984  0.00  0.00    +0.234 C 
ATOM     48  N   UNL     1       7.534  -1.008  25.307  0.00  0.00    -0.302 N 
ATOM     49  H   UNL     1       6.670  -0.615  25.664  0.00  0.00    +0.150 HD
ATOM     50  O   UNL     1       8.617  -1.886  23.483  0.00  0.00    -0.274 OA
BRANCH  48  51
ATOM     51  C   UNL     1       8.583  -1.274  26.316  0.00  0.00    +0.160 C 
BRANCH  51  52
ATOM     52  C   UNL     1       8.477  -2.791  26.659  0.00  0.00    +0.234 C 
ATOM     53  N   UNL     1       7.450  -3.479  26.047  0.00  0.00    -0.302 N 
ATOM     54  H   UNL     1       7.004  -3.030  25.252  0.00  0.00    +0.150 HD
ATOM     55  O   UNL     1       9.304  -3.342  27.388  0.00  0.00    -0.274 OA
BRANCH  53  56
ATOM     56  C   UNL     1       7.290  -4.946  26.170  0.00  0.00    +0.169 C 
BRANCH  56  57
ATOM     57  C   UNL     1       6.792  -5.283  27.599  0.00  0.00    +0.234 C 
ATOM     58  N   UNL     1       5.674  -4.633  28.068  0.00  0.00    -0.302 N 
ATOM     59  H   UNL     1       5.145  -3.995  27.477  0.00  0.00    +0.150 HD
ATOM     60  O   UNL     1       7.341  -6.166  28.261  0.00  0.00    -0.274 OA
BRANCH  58  61
ATOM     61  C   UNL     1       5.082  -4.936  29.388  0.00  0.00    +0.163 C 
BRANCH  61  62
ATOM     62  C   UNL     1       4.612  -6.402  29.467  0.00  0.00    +0.231 C 
ATOM     63  O   UNL     1       4.726  -7.084  30.483  0.00  0.00    -0.274 OA
ATOM     64  N   UNL     1       4.012  -6.918  28.347  0.00  0.00    -0.328 N 
ATOM     65  H   UNL     1       3.703  -7.881  28.375  0.00  0.00    +0.145 HD
ATOM     66  H   UNL     1       3.766  -6.368  27.535  0.00  0.00    +0.145 HD
ENDBRANCH  61  62
BRANCH  61  67
ATOM     67  C   UNL     1       3.956  -3.977  29.830  0.00  0.00    +0.067 C 
BRANCH  67  68
ATOM     68  C   UNL     1       3.131  -3.330  28.740  0.00  0.00    -0.045 A 
ATOM     69  C   UNL     1       1.969  -3.956  28.274  0.00  0.00    +0.004 A 
ATOM     70  C   UNL     1       1.257  -3.418  27.202  0.00  0.00    +0.000 A 
ATOM     71  C   UNL     1       1.715  -2.272  26.557  0.00  0.00    +0.000 A 
ATOM     72  C   UNL     1       2.847  -1.619  27.037  0.00  0.00    +0.000 A 
ATOM     73  C   UNL     1       3.543  -2.136  28.132  0.00  0.00    +0.004 A 
ENDBRANCH  67  68
ENDBRANCH  61  67
ENDBRANCH  58  61
ENDBRANCH  56  57
BRANCH  56  74
ATOM     74  C   UNL     1       8.640  -5.640  25.987  0.00  0.00    +0.152 C 
BRANCH  74  75
ATOM     75  C   UNL     1       9.175  -5.422  24.602  0.00  0.00    +0.307 C 
ATOM     76  O   UNL     1       9.011  -6.213  23.685  0.00  0.00    -0.251 OA
BRANCH  75  77
ATOM     77  O   UNL     1       9.851  -4.264  24.436  0.00  0.00    -0.481 OA
ATOM     78  H   UNL     1      10.317  -4.158  23.585  0.00  0.00    +0.295 HD
ENDBRANCH  75  77
ENDBRANCH  74  75
ENDBRANCH  56  74
ENDBRANCH  53  56
ENDBRANCH  51  52
BRANCH  51  79
ATOM     79  C   UNL     1       8.320  -0.464  27.583  0.00  0.00    +0.042 C 
BRANCH  79  80
ATOM     80  C   UNL     1       6.913   0.020  27.893  0.00  0.00    +0.071 C 
BRANCH  80  81
ATOM     81  S   UNL     1       6.175   0.974  26.544  0.00  0.00    -0.164 S 
ATOM     82  C   UNL     1       7.408   2.306  26.470  0.00  0.00    +0.084 C 
ENDBRANCH  80  81
ENDBRANCH  79  80
ENDBRANCH  51  79
ENDBRANCH  48  51
ENDBRANCH   1  47
BRANCH   1  83
ATOM     83  C   UNL     1       6.395  -2.003  21.828  0.00  0.00    +0.069 C 
BRANCH  83  84
ATOM     84  C   UNL     1       6.196  -3.484  22.004  0.00  0.00    -0.020 A 
ATOM     85  C   UNL     1       5.377  -4.141  22.980  0.00  0.00    +0.003 A 
ATOM     86  C   UNL     1       5.581  -5.505  22.846  0.00  0.00    +0.047 A 
ATOM     87  C   UNL     1       4.968  -6.450  23.674  0.00  0.00    +0.026 A 
ATOM     88  C   UNL     1       4.091  -5.979  24.655  0.00  0.00    +0.002 A 
ATOM     89  C   UNL     1       3.846  -4.617  24.803  0.00  0.00    +0.001 A 
ATOM     90  N   UNL     1       6.450  -5.698  21.802  0.00  0.00    -0.360 N 
ATOM     91  H   UNL     1       6.787  -6.595  21.480  0.00  0.00    +0.165 HD
ATOM     92  C   UNL     1       4.482  -3.682  23.979  0.00  0.00    +0.010 A 
ATOM     93  C   UNL     1       6.813  -4.486  21.276  0.00  0.00    +0.087 A 
ENDBRANCH  83  84
ENDBRANCH   1  83
TORSDOF 37
ENDMDL
MODEL 5
REMARK VINA RESULT:      -3.4      3.123      9.890
REMARK  Name = 
REMARK  39 active torsions:
REMARK  status: ('A' for Active; 'I' for Inactive)
REMARK    1  A    between atoms: C_1  and  S_2
REMARK    2  A    between atoms: S_2  and  C_3
REMARK    3  A    between atoms: C_3  and  C_4
REMARK    4  A    between atoms: C_4  and  C_5
REMARK    5  A    between atoms: C_5  and  N_7
REMARK    6  A    between atoms: C_5  and  C_34
REMARK    7  A    between atoms: C_8  and  C_10
REMARK    8  A    between atoms: C_10  and  C_12
REMARK    9  A    between atoms: C_10  and  N_24
REMARK   10  A    between atoms: C_12  and  C_13
REMARK   11  A    between atoms: C_16  and  O_17
REMARK   12  A    between atoms: O_17  and  S_18
REMARK   13  A    between atoms: S_18  and  O_19
REMARK   14  A    between atoms: C_25  and  C_27
REMARK   15  A    between atoms: C_27  and  N_29
REMARK   16  A    between atoms: C_27  and  C_30
REMARK   17  A    between atoms: C_30  and  C_31
REMARK   18  A    between atoms: C_31  and  O_32
REMARK   19  A    between atoms: N_36  and  C_37
REMARK   20  A    between atoms: C_37  and  C_38
REMARK   21  A    between atoms: N_40  and  C_41
REMARK   22  A    between atoms: C_41  and  C_43
REMARK   23  A    between atoms: C_41  and  C_53
REMARK   24  A    between atoms: C_43  and  C_44
REMARK   25  A    between atoms: N_55  and  C_56
REMARK   26  A    between atoms: C_56  and  C_58
REMARK   27  A    between atoms: C_56  and  C_62
REMARK   28  A    between atoms: C_58  and  C_59
REMARK   29  A    between atoms: C_59  and  S_60
REMARK   30  A    between atoms: S_60  and  C_61
REMARK   31  A    between atoms: N_64  and  C_65
REMARK   32  A    between atoms: C_65  and  C_67
REMARK   33  A    between atoms: C_65  and  C_71
REMARK   34  A    between atoms: C_67  and  C_68
REMARK   35  A    between atoms: C_68  and  O_69
REMARK   36  A    between atoms: N_73  and  C_74
REMARK   37  A    between atoms: C_74  and  C_76
REMARK   38  A    between atoms: C_74  and  C_83
REMARK   39  A    between atoms: C_76  and  C_77
REMARK                            x       y       z     vdW  Elec       q    Type
REMARK                         _______ _______ _______ _____ _____    ______ ____
ROOT
ATOM      1  C   UNL     1       8.739   0.671  24.151  0.00  0.00    +0.163 C 
ENDROOT
BRANCH   1   3
ATOM      2  C   UNL     1       6.872  -0.409  22.871  0.00  0.00    +0.231 C 
ATOM      3  N   UNL     1       7.923  -0.487  23.754  0.00  0.00    -0.302 N 
ATOM      4  H   UNL     1       8.191  -1.391  24.141  0.00  0.00    +0.150 HD
ATOM      5  O   UNL     1       6.611   0.601  22.220  0.00  0.00    -0.274 OA
BRANCH   2   6
ATOM      6  C   UNL     1       6.058  -1.698  22.721  0.00  0.00    +0.200 C 
BRANCH   6   8
ATOM      7  C   UNL     1       7.721  -3.425  23.217  0.00  0.00    +0.234 C 
ATOM      8  N   UNL     1       6.591  -2.729  23.579  0.00  0.00    -0.305 N 
ATOM      9  H   UNL     1       5.923  -3.207  24.177  0.00  0.00    +0.149 HD
ATOM     10  O   UNL     1       8.408  -3.136  22.239  0.00  0.00    -0.274 OA
BRANCH   7  11
ATOM     11  C   UNL     1       8.011  -4.642  24.103  0.00  0.00    +0.160 C 
BRANCH  11  12
ATOM     12  N   UNL     1       7.134  -4.508  25.261  0.00  0.00    -0.302 N 
ATOM     13  H   UNL     1       6.185  -4.211  25.075  0.00  0.00    +0.150 HD
ATOM     14  C   UNL     1       7.604  -4.435  26.550  0.00  0.00    +0.234 C 
ATOM     15  O   UNL     1       8.807  -4.333  26.793  0.00  0.00    -0.274 OA
BRANCH  14  16
ATOM     16  C   UNL     1       6.544  -4.429  27.690  0.00  0.00    +0.163 C 
BRANCH  16  17
ATOM     17  N   UNL     1       5.446  -3.555  27.300  0.00  0.00    -0.302 N 
ATOM     18  H   UNL     1       4.632  -3.971  26.846  0.00  0.00    +0.150 HD
ATOM     19  C   UNL     1       5.649  -2.223  27.032  0.00  0.00    +0.231 C 
ATOM     20  O   UNL     1       6.688  -1.616  27.263  0.00  0.00    -0.274 OA
BRANCH  19  21
ATOM     21  C   UNL     1       4.453  -1.487  26.444  0.00  0.00    +0.148 C 
BRANCH  21  22
ATOM     22  N   UNL     1       3.798  -2.302  25.383  0.00  0.00    -0.320 NA
ATOM     23  H   UNL     1       4.201  -2.075  24.472  0.00  0.00    +0.119 HD
ATOM     24  H   UNL     1       4.006  -3.290  25.545  0.00  0.00    +0.119 HD
ENDBRANCH  21  22
BRANCH  21  25
ATOM     25  C   UNL     1       3.468  -1.140  27.543  0.00  0.00    +0.148 C 
BRANCH  25  26
ATOM     26  C   UNL     1       2.172  -1.900  27.624  0.00  0.00    +0.307 C 
ATOM     27  O   UNL     1       1.104  -1.360  27.883  0.00  0.00    -0.251 OA
BRANCH  26  28
ATOM     28  O   UNL     1       2.298  -3.239  27.560  0.00  0.00    -0.481 OA
ATOM     29  H   UNL     1       2.665  -3.598  26.731  0.00  0.00    +0.295 HD
ENDBRANCH  26  28
ENDBRANCH  25  26
ENDBRANCH  21  25
ENDBRANCH  19  21
ENDBRANCH  16  17
BRANCH  16  30
ATOM     30  C   UNL     1       6.059  -5.820  28.155  0.00  0.00    +0.067 C 
BRANCH  30  31
ATOM     31  C   UNL     1       4.755  -6.285  27.556  0.00  0.00    -0.045 A 
ATOM     32  C   UNL     1       4.725  -6.697  26.220  0.00  0.00    +0.007 A 
ATOM     33  C   UNL     1       3.554  -7.224  25.680  0.00  0.00    +0.049 A 
ATOM     34  C   UNL     1       2.404  -7.325  26.464  0.00  0.00    +0.159 A 
ATOM     35  C   UNL     1       2.429  -6.908  27.792  0.00  0.00    +0.049 A 
ATOM     36  C   UNL     1       3.589  -6.356  28.326  0.00  0.00    +0.007 A 
BRANCH  34  37
ATOM     37  O   UNL     1       1.301  -7.846  25.838  0.00  0.00    -0.325 OA
BRANCH  37  38
ATOM     38  S   UNL     1       1.253  -8.042  24.224  0.00  0.00    +0.251 S 
ATOM     39  O   UNL     1       0.887  -6.797  23.584  0.00  0.00    -0.108 OA
ATOM     40  O   UNL     1       0.562  -9.281  23.937  0.00  0.00    -0.108 OA
BRANCH  38  41
ATOM     41  O   UNL     1       2.797  -8.329  23.870  0.00  0.00    -0.222 OA
ATOM     42  H   UNL     1       2.870  -8.384  22.897  0.00  0.00    +0.248 HD
ENDBRANCH  38  41
ENDBRANCH  37  38
ENDBRANCH  34  37
ENDBRANCH  30  31
ENDBRANCH  16  30
ENDBRANCH  14  16
ENDBRANCH  11  12
BRANCH  11  43
ATOM     43  C   UNL     1       7.708  -5.958  23.369  0.00  0.00    +0.042 C 
BRANCH  43  44
ATOM     44  C   UNL     1       7.708  -5.874  21.842  0.00  0.00    +0.071 C 
BRANCH  44  46
ATOM     45  C   UNL     1       5.087  -5.905  22.673  0.00  0.00    +0.084 C 
ATOM     46  S   UNL     1       6.040  -5.637  21.157  0.00  0.00    -0.164 S 
ENDBRANCH  44  46
ENDBRANCH  43  44
ENDBRANCH  11  43
ENDBRANCH   7  11
ENDBRANCH   6   8
ENDBRANCH   2   6
ENDBRANCH   1   3
BRANCH   1  47
ATOM     47  C   UNL     1       7.975   1.493  25.230  0.00  0.00    +0.234 C 
ATOM     48  N   UNL     1       6.963   2.310  24.756  0.00  0.00    -0.302 N 
ATOM     49  H   UNL     1       6.774   2.337  23.761  0.00  0.00    +0.150 HD
ATOM     50  O   UNL     1       8.264   1.418  26.424  0.00  0.00    -0.274 OA
BRANCH  48  51
ATOM     51  C   UNL     1       5.992   3.026  25.613  0.00  0.00    +0.160 C 
BRANCH  51  52
ATOM     52  C   UNL     1       4.634   2.990  24.849  0.00  0.00    +0.234 C 
ATOM     53  N   UNL     1       4.062   4.214  24.575  0.00  0.00    -0.302 N 
ATOM     54  H   UNL     1       4.659   5.032  24.661  0.00  0.00    +0.150 HD
ATOM     55  O   UNL     1       4.143   1.926  24.467  0.00  0.00    -0.274 OA
BRANCH  53  56
ATOM     56  C   UNL     1       2.841   4.355  23.750  0.00  0.00    +0.169 C 
BRANCH  56  57
ATOM     57  C   UNL     1       1.610   4.481  24.684  0.00  0.00    +0.234 C 
ATOM     58  N   UNL     1       1.826   4.519  26.042  0.00  0.00    -0.302 N 
ATOM     59  H   UNL     1       2.768   4.531  26.429  0.00  0.00    +0.150 HD
ATOM     60  O   UNL     1       0.479   4.620  24.214  0.00  0.00    -0.274 OA
BRANCH  58  61
ATOM     61  C   UNL     1       0.725   4.706  27.011  0.00  0.00    +0.163 C 
BRANCH  61  62
ATOM     62  C   UNL     1       0.591   6.186  27.425  0.00  0.00    +0.231 C 
ATOM     63  O   UNL     1       0.563   6.549  28.599  0.00  0.00    -0.274 OA
ATOM     64  N   UNL     1       0.542   7.107  26.410  0.00  0.00    -0.328 N 
ATOM     65  H   UNL     1       0.446   8.083  26.660  0.00  0.00    +0.145 HD
ATOM     66  H   UNL     1       0.699   6.883  25.436  0.00  0.00    +0.145 HD
ENDBRANCH  61  62
BRANCH  61  67
ATOM     67  C   UNL     1       0.792   3.795  28.255  0.00  0.00    +0.067 C 
BRANCH  67  68
ATOM     68  C   UNL     1       2.163   3.483  28.810  0.00  0.00    -0.045 A 
ATOM     69  C   UNL     1       2.678   4.232  29.875  0.00  0.00    +0.004 A 
ATOM     70  C   UNL     1       3.980   4.017  30.327  0.00  0.00    +0.000 A 
ATOM     71  C   UNL     1       4.797   3.080  29.701  0.00  0.00    +0.000 A 
ATOM     72  C   UNL     1       4.284   2.302  28.667  0.00  0.00    +0.000 A 
ATOM     73  C   UNL     1       2.969   2.490  28.234  0.00  0.00    +0.004 A 
ENDBRANCH  67  68
ENDBRANCH  61  67
ENDBRANCH  58  61
ENDBRANCH  56  57
BRANCH  56  74
ATOM     74  C   UNL     1       2.634   3.104  22.897  0.00  0.00    +0.152 C 
BRANCH  74  75
ATOM     75  C   UNL     1       2.363   3.466  21.466  0.00  0.00    +0.307 C 
ATOM     76  O   UNL     1       1.556   2.874  20.764  0.00  0.00    -0.251 OA
BRANCH  75  77
ATOM     77  O   UNL     1       3.076   4.517  21.007  0.00  0.00    -0.481 OA
ATOM     78  H   UNL     1       2.762   4.916  20.172  0.00  0.00    +0.295 HD
ENDBRANCH  75  77
ENDBRANCH  74  75
ENDBRANCH  56  74
ENDBRANCH  53  56
ENDBRANCH  51  52
BRANCH  51  79
ATOM     79  C   UNL     1       6.415   4.482  25.796  0.00  0.00    +0.042 C 
BRANCH  79  80
ATOM     80  C   UNL     1       7.177   4.897  27.043  0.00  0.00    +0.071 C 
BRANCH  80  81
ATOM     81  S   UNL     1       6.342   6.196  27.987  0.00  0.00    -0.164 S 
ATOM     82  C   UNL     1       7.215   5.966  29.564  0.00  0.00    +0.084 C 
ENDBRANCH  80  81
ENDBRANCH  79  80
ENDBRANCH  51  79
ENDBRANCH  48  51
ENDBRANCH   1  47
BRANCH   1  83
ATOM     83  C   UNL     1       9.111   1.586  22.961  0.00  0.00    +0.069 C 
BRANCH  83  84
ATOM     84  C   UNL     1       9.416   3.000  23.377  0.00  0.00    -0.020 A 
ATOM     85  C   UNL     1       8.663   4.180  23.062  0.00  0.00    +0.003 A 
ATOM     86  C   UNL     1       9.367   5.267  23.554  0.00  0.00    +0.047 A 
ATOM     87  C   UNL     1       8.940   6.587  23.385  0.00  0.00    +0.026 A 
ATOM     88  C   UNL     1       7.733   6.797  22.713  0.00  0.00    +0.002 A 
ATOM     89  C   UNL     1       6.989   5.725  22.225  0.00  0.00    +0.001 A 
ATOM     90  N   UNL     1      10.484   4.789  24.192  0.00  0.00    -0.360 N 
ATOM     91  H   UNL     1      11.189   5.358  24.640  0.00  0.00    +0.165 HD
ATOM     92  C   UNL     1       7.440   4.411  22.385  0.00  0.00    +0.010 A 
ATOM     93  C   UNL     1      10.513   3.422  24.106  0.00  0.00    +0.087 A 
ENDBRANCH  83  84
ENDBRANCH   1  83
TORSDOF 37
ENDMDL
MODEL 6
REMARK VINA RESULT:      -3.3      2.979      7.023
REMARK  Name = 
REMARK  39 active torsions:
REMARK  status: ('A' for Active; 'I' for Inactive)
REMARK    1  A    between atoms: C_1  and  S_2
REMARK    2  A    between atoms: S_2  and  C_3
REMARK    3  A    between atoms: C_3  and  C_4
REMARK    4  A    between atoms: C_4  and  C_5
REMARK    5  A    between atoms: C_5  and  N_7
REMARK    6  A    between atoms: C_5  and  C_34
REMARK    7  A    between atoms: C_8  and  C_10
REMARK    8  A    between atoms: C_10  and  C_12
REMARK    9  A    between atoms: C_10  and  N_24
REMARK   10  A    between atoms: C_12  and  C_13
REMARK   11  A    between atoms: C_16  and  O_17
REMARK   12  A    between atoms: O_17  and  S_18
REMARK   13  A    between atoms: S_18  and  O_19
REMARK   14  A    between atoms: C_25  and  C_27
REMARK   15  A    between atoms: C_27  and  N_29
REMARK   16  A    between atoms: C_27  and  C_30
REMARK   17  A    between atoms: C_30  and  C_31
REMARK   18  A    between atoms: C_31  and  O_32
REMARK   19  A    between atoms: N_36  and  C_37
REMARK   20  A    between atoms: C_37  and  C_38
REMARK   21  A    between atoms: N_40  and  C_41
REMARK   22  A    between atoms: C_41  and  C_43
REMARK   23  A    between atoms: C_41  and  C_53
REMARK   24  A    between atoms: C_43  and  C_44
REMARK   25  A    between atoms: N_55  and  C_56
REMARK   26  A    between atoms: C_56  and  C_58
REMARK   27  A    between atoms: C_56  and  C_62
REMARK   28  A    between atoms: C_58  and  C_59
REMARK   29  A    between atoms: C_59  and  S_60
REMARK   30  A    between atoms: S_60  and  C_61
REMARK   31  A    between atoms: N_64  and  C_65
REMARK   32  A    between atoms: C_65  and  C_67
REMARK   33  A    between atoms: C_65  and  C_71
REMARK   34  A    between atoms: C_67  and  C_68
REMARK   35  A    between atoms: C_68  and  O_69
REMARK   36  A    between atoms: N_73  and  C_74
REMARK   37  A    between atoms: C_74  and  C_76
REMARK   38  A    between atoms: C_74  and  C_83
REMARK   39  A    between atoms: C_76  and  C_77
REMARK                            x       y       z     vdW  Elec       q    Type
REMARK                         _______ _______ _______ _____ _____    ______ ____
ROOT
ATOM      1  C   UNL     1       5.925  -2.621  24.334  0.00  0.00    +0.163 C 
ENDROOT
BRANCH   1   3
ATOM      2  C   UNL     1       6.621  -0.430  23.330  0.00  0.00    +0.231 C 
ATOM      3  N   UNL     1       5.774  -1.174  24.118  0.00  0.00    -0.302 N 
ATOM      4  H   UNL     1       4.971  -0.726  24.558  0.00  0.00    +0.150 HD
ATOM      5  O   UNL     1       7.491  -0.927  22.619  0.00  0.00    -0.274 OA
BRANCH   2   6
ATOM      6  C   UNL     1       6.378   1.082  23.371  0.00  0.00    +0.200 C 
BRANCH   6   8
ATOM      7  C   UNL     1       6.300   2.481  25.378  0.00  0.00    +0.234 C 
ATOM      8  N   UNL     1       7.010   1.660  24.533  0.00  0.00    -0.305 N 
ATOM      9  H   UNL     1       8.012   1.811  24.472  0.00  0.00    +0.149 HD
ATOM     10  O   UNL     1       5.088   2.665  25.282  0.00  0.00    -0.274 OA
BRANCH   7  11
ATOM     11  C   UNL     1       7.169   3.207  26.412  0.00  0.00    +0.160 C 
BRANCH  11  12
ATOM     12  N   UNL     1       7.201   4.603  25.991  0.00  0.00    -0.302 N 
ATOM     13  H   UNL     1       6.534   5.222  26.432  0.00  0.00    +0.150 HD
ATOM     14  C   UNL     1       7.824   5.023  24.841  0.00  0.00    +0.234 C 
ATOM     15  O   UNL     1       8.270   4.221  24.020  0.00  0.00    -0.274 OA
BRANCH  14  16
ATOM     16  C   UNL     1       7.892   6.558  24.592  0.00  0.00    +0.163 C 
BRANCH  16  17
ATOM     17  N   UNL     1       9.273   6.922  24.305  0.00  0.00    -0.302 N 
ATOM     18  H   UNL     1       9.577   6.945  23.332  0.00  0.00    +0.150 HD
ATOM     19  C   UNL     1      10.273   6.727  25.228  0.00  0.00    +0.231 C 
ATOM     20  O   UNL     1      10.090   6.417  26.398  0.00  0.00    -0.274 OA
BRANCH  19  21
ATOM     21  C   UNL     1      11.686   6.966  24.715  0.00  0.00    +0.148 C 
BRANCH  21  22
ATOM     22  N   UNL     1      12.695   6.538  25.723  0.00  0.00    -0.320 NA
ATOM     23  H   UNL     1      12.328   6.684  26.666  0.00  0.00    +0.119 HD
ATOM     24  H   UNL     1      12.851   5.531  25.634  0.00  0.00    +0.119 HD
ENDBRANCH  21  22
BRANCH  21  25
ATOM     25  C   UNL     1      11.891   6.234  23.404  0.00  0.00    +0.148 C 
BRANCH  25  26
ATOM     26  C   UNL     1      12.599   4.906  23.414  0.00  0.00    +0.307 C 
ATOM     27  O   UNL     1      12.019   3.850  23.629  0.00  0.00    -0.251 OA
BRANCH  26  28
ATOM     28  O   UNL     1      13.941   4.981  23.339  0.00  0.00    -0.481 OA
ATOM     29  H   UNL     1      14.363   5.684  23.866  0.00  0.00    +0.295 HD
ENDBRANCH  26  28
ENDBRANCH  25  26
ENDBRANCH  21  25
ENDBRANCH  19  21
ENDBRANCH  16  17
BRANCH  16  30
ATOM     30  C   UNL     1       6.903   7.106  23.539  0.00  0.00    +0.067 C 
BRANCH  30  31
ATOM     31  C   UNL     1       5.499   6.561  23.622  0.00  0.00    -0.045 A 
ATOM     32  C   UNL     1       4.939   5.941  22.500  0.00  0.00    +0.007 A 
ATOM     33  C   UNL     1       3.683   5.344  22.590  0.00  0.00    +0.049 A 
ATOM     34  C   UNL     1       2.974   5.378  23.792  0.00  0.00    +0.159 A 
ATOM     35  C   UNL     1       3.527   6.002  24.907  0.00  0.00    +0.049 A 
ATOM     36  C   UNL     1       4.767   6.623  24.813  0.00  0.00    +0.007 A 
BRANCH  34  37
ATOM     37  O   UNL     1       1.745   4.773  23.775  0.00  0.00    -0.325 OA
BRANCH  37  38
ATOM     38  S   UNL     1       1.594   3.157  23.665  0.00  0.00    +0.251 S 
ATOM     39  O   UNL     1       0.793   2.811  22.511  0.00  0.00    -0.108 OA
ATOM     40  O   UNL     1       1.301   2.636  24.983  0.00  0.00    -0.108 OA
BRANCH  38  41
ATOM     41  O   UNL     1       3.105   2.694  23.357  0.00  0.00    -0.222 OA
ATOM     42  H   UNL     1       3.564   2.601  24.215  0.00  0.00    +0.248 HD
ENDBRANCH  38  41
ENDBRANCH  37  38
ENDBRANCH  34  37
ENDBRANCH  30  31
ENDBRANCH  16  30
ENDBRANCH  14  16
ENDBRANCH  11  12
BRANCH  11  43
ATOM     43  C   UNL     1       6.571   3.102  27.824  0.00  0.00    +0.042 C 
BRANCH  43  44
ATOM     44  C   UNL     1       7.210   2.049  28.732  0.00  0.00    +0.071 C 
BRANCH  44  46
ATOM     45  C   UNL     1       5.591  -0.028  27.939  0.00  0.00    +0.084 C 
ATOM     46  S   UNL     1       7.344   0.424  27.927  0.00  0.00    -0.164 S 
ENDBRANCH  44  46
ENDBRANCH  43  44
ENDBRANCH  11  43
ENDBRANCH   7  11
ENDBRANCH   6   8
ENDBRANCH   2   6
ENDBRANCH   1   3
BRANCH   1  47
ATOM     47  C   UNL     1       4.552  -3.320  24.110  0.00  0.00    +0.234 C 
ATOM     48  N   UNL     1       3.746  -3.435  25.229  0.00  0.00    -0.302 N 
ATOM     49  H   UNL     1       4.078  -3.073  26.116  0.00  0.00    +0.150 HD
ATOM     50  O   UNL     1       4.217  -3.746  23.004  0.00  0.00    -0.274 OA
BRANCH  48  51
ATOM     51  C   UNL     1       2.338  -3.887  25.206  0.00  0.00    +0.160 C 
BRANCH  51  52
ATOM     52  C   UNL     1       1.891  -3.984  26.696  0.00  0.00    +0.234 C 
ATOM     53  N   UNL     1       2.900  -3.928  27.635  0.00  0.00    -0.302 N 
ATOM     54  H   UNL     1       3.805  -3.590  27.320  0.00  0.00    +0.150 HD
ATOM     55  O   UNL     1       0.700  -4.045  27.004  0.00  0.00    -0.274 OA
BRANCH  53  56
ATOM     56  C   UNL     1       2.632  -3.881  29.090  0.00  0.00    +0.169 C 
BRANCH  56  57
ATOM     57  C   UNL     1       1.907  -2.553  29.429  0.00  0.00    +0.234 C 
ATOM     58  N   UNL     1       2.577  -1.372  29.205  0.00  0.00    -0.302 N 
ATOM     59  H   UNL     1       3.496  -1.358  28.768  0.00  0.00    +0.150 HD
ATOM     60  O   UNL     1       0.737  -2.560  29.815  0.00  0.00    -0.274 OA
BRANCH  58  61
ATOM     61  C   UNL     1       1.946  -0.054  29.430  0.00  0.00    +0.163 C 
BRANCH  61  62
ATOM     62  C   UNL     1       1.531   0.602  28.098  0.00  0.00    +0.231 C 
ATOM     63  O   UNL     1       0.445   1.156  27.939  0.00  0.00    -0.274 OA
ATOM     64  N   UNL     1       2.455   0.578  27.085  0.00  0.00    -0.328 N 
ATOM     65  H   UNL     1       2.199   0.998  26.200  0.00  0.00    +0.145 HD
ATOM     66  H   UNL     1       3.409   0.263  27.199  0.00  0.00    +0.145 HD
ENDBRANCH  61  62
BRANCH  61  67
ATOM     67  C   UNL     1       2.777   0.925  30.285  0.00  0.00    +0.067 C 
BRANCH  67  68
ATOM     68  C   UNL     1       2.559   2.403  30.052  0.00  0.00    -0.045 A 
ATOM     69  C   UNL     1       1.377   3.016  30.484  0.00  0.00    +0.004 A 
ATOM     70  C   UNL     1       1.124   4.355  30.185  0.00  0.00    +0.000 A 
ATOM     71  C   UNL     1       2.027   5.089  29.421  0.00  0.00    +0.000 A 
ATOM     72  C   UNL     1       3.224   4.502  29.019  0.00  0.00    +0.000 A 
ATOM     73  C   UNL     1       3.496   3.171  29.347  0.00  0.00    +0.004 A 
ENDBRANCH  67  68
ENDBRANCH  61  67
ENDBRANCH  58  61
ENDBRANCH  56  57
BRANCH  56  74
ATOM     74  C   UNL     1       3.948  -3.888  29.868  0.00  0.00    +0.152 C 
BRANCH  74  75
ATOM     75  C   UNL     1       4.824  -5.027  29.435  0.00  0.00    +0.307 C 
ATOM     76  O   UNL     1       5.914  -4.874  28.904  0.00  0.00    -0.251 OA
BRANCH  75  77
ATOM     77  O   UNL     1       4.319  -6.254  29.693  0.00  0.00    -0.481 OA
ATOM     78  H   UNL     1       4.195  -6.477  30.635  0.00  0.00    +0.295 HD
ENDBRANCH  75  77
ENDBRANCH  74  75
ENDBRANCH  56  74
ENDBRANCH  53  56
ENDBRANCH  51  52
BRANCH  51  79
ATOM     79  C   UNL     1       2.234  -5.272  24.571  0.00  0.00    +0.042 C 
BRANCH  79  80
ATOM     80  C   UNL     1       1.798  -6.460  25.413  0.00  0.00    +0.071 C 
BRANCH  80  81
ATOM     81  S   UNL     1       2.013  -8.047  24.570  0.00  0.00    -0.164 S 
ATOM     82  C   UNL     1       1.094  -7.655  23.053  0.00  0.00    +0.084 C 
ENDBRANCH  80  81
ENDBRANCH  79  80
ENDBRANCH  51  79
ENDBRANCH  48  51
ENDBRANCH   1  47
BRANCH   1  83
ATOM     83  C   UNL     1       6.466  -2.970  25.740  0.00  0.00    +0.069 C 
BRANCH  83  84
ATOM     84  C   UNL     1       7.612  -3.946  25.706  0.00  0.00    -0.020 A 
ATOM     85  C   UNL     1       7.897  -4.916  24.690  0.00  0.00    +0.003 A 
ATOM     86  C   UNL     1       8.977  -5.669  25.123  0.00  0.00    +0.047 A 
ATOM     87  C   UNL     1       9.497  -6.740  24.392  0.00  0.00    +0.026 A 
ATOM     88  C   UNL     1       8.908  -7.030  23.158  0.00  0.00    +0.002 A 
ATOM     89  C   UNL     1       7.836  -6.280  22.683  0.00  0.00    +0.001 A 
ATOM     90  N   UNL     1       9.382  -5.162  26.332  0.00  0.00    -0.360 N 
ATOM     91  H   UNL     1      10.146  -5.521  26.889  0.00  0.00    +0.165 HD
ATOM     92  C   UNL     1       7.313  -5.223  23.435  0.00  0.00    +0.010 A 
ATOM     93  C   UNL     1       8.576  -4.112  26.684  0.00  0.00    +0.087 A 
ENDBRANCH  83  84
ENDBRANCH   1  83
TORSDOF 37
ENDMDL
MODEL 7
REMARK VINA RESULT:      -3.0      2.211      4.489
REMARK  Name = 
REMARK  39 active torsions:
REMARK  status: ('A' for Active; 'I' for Inactive)
REMARK    1  A    between atoms: C_1  and  S_2
REMARK    2  A    between atoms: S_2  and  C_3
REMARK    3  A    between atoms: C_3  and  C_4
REMARK    4  A    between atoms: C_4  and  C_5
REMARK    5  A    between atoms: C_5  and  N_7
REMARK    6  A    between atoms: C_5  and  C_34
REMARK    7  A    between atoms: C_8  and  C_10
REMARK    8  A    between atoms: C_10  and  C_12
REMARK    9  A    between atoms: C_10  and  N_24
REMARK   10  A    between atoms: C_12  and  C_13
REMARK   11  A    between atoms: C_16  and  O_17
REMARK   12  A    between atoms: O_17  and  S_18
REMARK   13  A    between atoms: S_18  and  O_19
REMARK   14  A    between atoms: C_25  and  C_27
REMARK   15  A    between atoms: C_27  and  N_29
REMARK   16  A    between atoms: C_27  and  C_30
REMARK   17  A    between atoms: C_30  and  C_31
REMARK   18  A    between atoms: C_31  and  O_32
REMARK   19  A    between atoms: N_36  and  C_37
REMARK   20  A    between atoms: C_37  and  C_38
REMARK   21  A    between atoms: N_40  and  C_41
REMARK   22  A    between atoms: C_41  and  C_43
REMARK   23  A    between atoms: C_41  and  C_53
REMARK   24  A    between atoms: C_43  and  C_44
REMARK   25  A    between atoms: N_55  and  C_56
REMARK   26  A    between atoms: C_56  and  C_58
REMARK   27  A    between atoms: C_56  and  C_62
REMARK   28  A    between atoms: C_58  and  C_59
REMARK   29  A    between atoms: C_59  and  S_60
REMARK   30  A    between atoms: S_60  and  C_61
REMARK   31  A    between atoms: N_64  and  C_65
REMARK   32  A    between atoms: C_65  and  C_67
REMARK   33  A    between atoms: C_65  and  C_71
REMARK   34  A    between atoms: C_67  and  C_68
REMARK   35  A    between atoms: C_68  and  O_69
REMARK   36  A    between atoms: N_73  and  C_74
REMARK   37  A    between atoms: C_74  and  C_76
REMARK   38  A    between atoms: C_74  and  C_83
REMARK   39  A    between atoms: C_76  and  C_77
REMARK                            x       y       z     vdW  Elec       q    Type
REMARK                         _______ _______ _______ _____ _____    ______ ____
ROOT
ATOM      1  C   UNL     1       6.499  -2.297  23.529  0.00  0.00    +0.163 C 
ENDROOT
BRANCH   1   3
ATOM      2  C   UNL     1       7.284   0.045  23.089  0.00  0.00    +0.231 C 
ATOM      3  N   UNL     1       6.345  -0.951  22.955  0.00  0.00    -0.302 N 
ATOM      4  H   UNL     1       5.505  -0.782  22.404  0.00  0.00    +0.150 HD
ATOM      5  O   UNL     1       8.399  -0.140  23.570  0.00  0.00    -0.274 OA
BRANCH   2   6
ATOM      6  C   UNL     1       6.853   1.414  22.552  0.00  0.00    +0.200 C 
BRANCH   6   8
ATOM      7  C   UNL     1       5.224   3.046  23.375  0.00  0.00    +0.234 C 
ATOM      8  N   UNL     1       5.535   1.749  23.037  0.00  0.00    -0.305 N 
ATOM      9  H   UNL     1       5.031   1.011  23.519  0.00  0.00    +0.149 HD
ATOM     10  O   UNL     1       5.976   3.998  23.166  0.00  0.00    -0.274 OA
BRANCH   7  11
ATOM     11  C   UNL     1       3.883   3.194  24.102  0.00  0.00    +0.160 C 
BRANCH  11  12
ATOM     12  N   UNL     1       3.916   4.511  24.729  0.00  0.00    -0.302 N 
ATOM     13  H   UNL     1       4.331   5.258  24.187  0.00  0.00    +0.150 HD
ATOM     14  C   UNL     1       3.735   4.703  26.077  0.00  0.00    +0.234 C 
ATOM     15  O   UNL     1       3.677   3.754  26.861  0.00  0.00    -0.274 OA
BRANCH  14  16
ATOM     16  C   UNL     1       3.662   6.174  26.580  0.00  0.00    +0.163 C 
BRANCH  16  17
ATOM     17  N   UNL     1       2.554   6.290  27.519  0.00  0.00    -0.302 N 
ATOM     18  H   UNL     1       1.742   6.843  27.245  0.00  0.00    +0.150 HD
ATOM     19  C   UNL     1       2.745   6.159  28.873  0.00  0.00    +0.231 C 
ATOM     20  O   UNL     1       3.780   5.764  29.396  0.00  0.00    -0.274 OA
BRANCH  19  21
ATOM     21  C   UNL     1       1.540   6.504  29.737  0.00  0.00    +0.148 C 
BRANCH  21  22
ATOM     22  N   UNL     1       0.449   7.095  28.913  0.00  0.00    -0.320 NA
ATOM     23  H   UNL     1       0.610   8.096  28.789  0.00  0.00    +0.119 HD
ATOM     24  H   UNL     1       0.479   6.686  27.976  0.00  0.00    +0.119 HD
ENDBRANCH  21  22
BRANCH  21  25
ATOM     25  C   UNL     1       1.056   5.268  30.468  0.00  0.00    +0.148 C 
BRANCH  25  26
ATOM     26  C   UNL     1       0.884   3.988  29.696  0.00  0.00    +0.307 C 
ATOM     27  O   UNL     1       0.458   3.959  28.548  0.00  0.00    -0.251 OA
BRANCH  26  28
ATOM     28  O   UNL     1       1.071   2.865  30.415  0.00  0.00    -0.481 OA
ATOM     29  H   UNL     1       1.899   2.379  30.247  0.00  0.00    +0.295 HD
ENDBRANCH  26  28
ENDBRANCH  25  26
ENDBRANCH  21  25
ENDBRANCH  19  21
ENDBRANCH  16  17
BRANCH  16  30
ATOM     30  C   UNL     1       4.980   6.750  27.145  0.00  0.00    +0.067 C 
BRANCH  30  31
ATOM     31  C   UNL     1       6.242   6.242  26.492  0.00  0.00    -0.045 A 
ATOM     32  C   UNL     1       6.889   5.126  27.033  0.00  0.00    +0.007 A 
ATOM     33  C   UNL     1       7.997   4.583  26.387  0.00  0.00    +0.049 A 
ATOM     34  C   UNL     1       8.475   5.160  25.209  0.00  0.00    +0.159 A 
ATOM     35  C   UNL     1       7.836   6.276  24.673  0.00  0.00    +0.049 A 
ATOM     36  C   UNL     1       6.748   6.837  25.331  0.00  0.00    +0.007 A 
BRANCH  34  37
ATOM     37  O   UNL     1       9.576   4.560  24.655  0.00  0.00    -0.325 OA
BRANCH  37  38
ATOM     38  S   UNL     1      10.713   5.423  23.875  0.00  0.00    +0.251 S 
ATOM     39  O   UNL     1      11.661   4.533  23.240  0.00  0.00    -0.108 OA
ATOM     40  O   UNL     1      11.139   6.502  24.740  0.00  0.00    -0.108 OA
BRANCH  38  41
ATOM     41  O   UNL     1       9.861   6.131  22.707  0.00  0.00    -0.222 OA
ATOM     42  H   UNL     1      10.373   6.048  21.879  0.00  0.00    +0.248 HD
ENDBRANCH  38  41
ENDBRANCH  37  38
ENDBRANCH  34  37
ENDBRANCH  30  31
ENDBRANCH  16  30
ENDBRANCH  14  16
ENDBRANCH  11  12
BRANCH  11  43
ATOM     43  C   UNL     1       2.700   3.110  23.126  0.00  0.00    +0.042 C 
BRANCH  43  44
ATOM     44  C   UNL     1       2.854   3.915  21.834  0.00  0.00    +0.071 C 
BRANCH  44  46
ATOM     45  C   UNL     1       1.252   6.136  21.596  0.00  0.00    +0.084 C 
ATOM     46  S   UNL     1       1.254   4.391  21.115  0.00  0.00    -0.164 S 
ENDBRANCH  44  46
ENDBRANCH  43  44
ENDBRANCH  11  43
ENDBRANCH   7  11
ENDBRANCH   6   8
ENDBRANCH   2   6
ENDBRANCH   1   3
BRANCH   1  47
ATOM     47  C   UNL     1       5.166  -3.083  23.360  0.00  0.00    +0.234 C 
ATOM     48  N   UNL     1       4.506  -3.406  24.532  0.00  0.00    -0.302 N 
ATOM     49  H   UNL     1       4.910  -3.127  25.420  0.00  0.00    +0.150 HD
ATOM     50  O   UNL     1       4.739  -3.399  22.249  0.00  0.00    -0.274 OA
BRANCH  48  51
ATOM     51  C   UNL     1       3.143  -3.976  24.598  0.00  0.00    +0.160 C 
BRANCH  51  52
ATOM     52  C   UNL     1       2.897  -4.336  26.095  0.00  0.00    +0.234 C 
ATOM     53  N   UNL     1       4.024  -4.465  26.879  0.00  0.00    -0.302 N 
ATOM     54  H   UNL     1       4.891  -4.087  26.506  0.00  0.00    +0.150 HD
ATOM     55  O   UNL     1       1.757  -4.436  26.550  0.00  0.00    -0.274 OA
BRANCH  53  56
ATOM     56  C   UNL     1       3.957  -4.679  28.342  0.00  0.00    +0.169 C 
BRANCH  56  57
ATOM     57  C   UNL     1       3.150  -3.522  28.987  0.00  0.00    +0.234 C 
ATOM     58  N   UNL     1       3.461  -2.232  28.623  0.00  0.00    -0.302 N 
ATOM     59  H   UNL     1       4.154  -2.037  27.902  0.00  0.00    +0.150 HD
ATOM     60  O   UNL     1       2.208  -3.762  29.744  0.00  0.00    -0.274 OA
BRANCH  58  61
ATOM     61  C   UNL     1       2.704  -1.067  29.128  0.00  0.00    +0.163 C 
BRANCH  61  62
ATOM     62  C   UNL     1       1.581  -0.663  28.151  0.00  0.00    +0.231 C 
ATOM     63  O   UNL     1       1.179  -1.403  27.255  0.00  0.00    -0.274 OA
ATOM     64  N   UNL     1       1.006   0.566  28.348  0.00  0.00    -0.328 N 
ATOM     65  H   UNL     1       0.272   0.854  27.714  0.00  0.00    +0.145 HD
ATOM     66  H   UNL     1       1.197   1.157  29.147  0.00  0.00    +0.145 HD
ENDBRANCH  61  62
BRANCH  61  67
ATOM     67  C   UNL     1       3.568   0.155  29.502  0.00  0.00    +0.067 C 
BRANCH  67  68
ATOM     68  C   UNL     1       4.760   0.456  28.621  0.00  0.00    -0.045 A 
ATOM     69  C   UNL     1       6.005   0.735  29.195  0.00  0.00    +0.004 A 
ATOM     70  C   UNL     1       7.084   1.112  28.395  0.00  0.00    +0.000 A 
ATOM     71  C   UNL     1       6.926   1.251  27.019  0.00  0.00    +0.000 A 
ATOM     72  C   UNL     1       5.703   0.938  26.432  0.00  0.00    +0.000 A 
ATOM     73  C   UNL     1       4.630   0.527  27.227  0.00  0.00    +0.004 A 
ENDBRANCH  67  68
ENDBRANCH  61  67
ENDBRANCH  58  61
ENDBRANCH  56  57
BRANCH  56  74
ATOM     74  C   UNL     1       5.360  -4.641  28.945  0.00  0.00    +0.152 C 
BRANCH  74  75
ATOM     75  C   UNL     1       6.079  -5.940  28.721  0.00  0.00    +0.307 C 
ATOM     76  O   UNL     1       6.323  -6.736  29.615  0.00  0.00    -0.251 OA
BRANCH  75  77
ATOM     77  O   UNL     1       6.430  -6.174  27.438  0.00  0.00    -0.481 OA
ATOM     78  H   UNL     1       5.730  -6.537  26.862  0.00  0.00    +0.295 HD
ENDBRANCH  75  77
ENDBRANCH  74  75
ENDBRANCH  56  74
ENDBRANCH  53  56
ENDBRANCH  51  52
BRANCH  51  79
ATOM     79  C   UNL     1       3.059  -5.254  23.766  0.00  0.00    +0.042 C 
BRANCH  79  80
ATOM     80  C   UNL     1       1.745  -5.646  23.111  0.00  0.00    +0.071 C 
BRANCH  80  81
ATOM     81  S   UNL     1       1.774  -7.307  22.395  0.00  0.00    -0.164 S 
ATOM     82  C   UNL     1       1.297  -8.235  23.882  0.00  0.00    +0.084 C 
ENDBRANCH  80  81
ENDBRANCH  79  80
ENDBRANCH  51  79
ENDBRANCH  48  51
ENDBRANCH   1  47
BRANCH   1  83
ATOM     83  C   UNL     1       6.909  -2.276  25.020  0.00  0.00    +0.069 C 
BRANCH  83  84
ATOM     84  C   UNL     1       7.859  -3.384  25.386  0.00  0.00    -0.020 A 
ATOM     85  C   UNL     1       8.159  -4.560  24.622  0.00  0.00    +0.003 A 
ATOM     86  C   UNL     1       8.998  -5.353  25.390  0.00  0.00    +0.047 A 
ATOM     87  C   UNL     1       9.456  -6.604  24.967  0.00  0.00    +0.026 A 
ATOM     88  C   UNL     1       9.065  -7.043  23.699  0.00  0.00    +0.002 A 
ATOM     89  C   UNL     1       8.241  -6.261  22.893  0.00  0.00    +0.001 A 
ATOM     90  N   UNL     1       9.252  -4.683  26.560  0.00  0.00    -0.360 N 
ATOM     91  H   UNL     1       9.829  -5.027  27.316  0.00  0.00    +0.165 HD
ATOM     92  C   UNL     1       7.774  -5.020  23.338  0.00  0.00    +0.010 A 
ATOM     93  C   UNL     1       8.585  -3.487  26.560  0.00  0.00    +0.087 A 
ENDBRANCH  83  84
ENDBRANCH   1  83
TORSDOF 37
ENDMDL
MODEL 8
REMARK VINA RESULT:      -3.0      2.716      6.475
REMARK  Name = 
REMARK  39 active torsions:
REMARK  status: ('A' for Active; 'I' for Inactive)
REMARK    1  A    between atoms: C_1  and  S_2
REMARK    2  A    between atoms: S_2  and  C_3
REMARK    3  A    between atoms: C_3  and  C_4
REMARK    4  A    between atoms: C_4  and  C_5
REMARK    5  A    between atoms: C_5  and  N_7
REMARK    6  A    between atoms: C_5  and  C_34
REMARK    7  A    between atoms: C_8  and  C_10
REMARK    8  A    between atoms: C_10  and  C_12
REMARK    9  A    between atoms: C_10  and  N_24
REMARK   10  A    between atoms: C_12  and  C_13
REMARK   11  A    between atoms: C_16  and  O_17
REMARK   12  A    between atoms: O_17  and  S_18
REMARK   13  A    between atoms: S_18  and  O_19
REMARK   14  A    between atoms: C_25  and  C_27
REMARK   15  A    between atoms: C_27  and  N_29
REMARK   16  A    between atoms: C_27  and  C_30
REMARK   17  A    between atoms: C_30  and  C_31
REMARK   18  A    between atoms: C_31  and  O_32
REMARK   19  A    between atoms: N_36  and  C_37
REMARK   20  A    between atoms: C_37  and  C_38
REMARK   21  A    between atoms: N_40  and  C_41
REMARK   22  A    between atoms: C_41  and  C_43
REMARK   23  A    between atoms: C_41  and  C_53
REMARK   24  A    between atoms: C_43  and  C_44
REMARK   25  A    between atoms: N_55  and  C_56
REMARK   26  A    between atoms: C_56  and  C_58
REMARK   27  A    between atoms: C_56  and  C_62
REMARK   28  A    between atoms: C_58  and  C_59
REMARK   29  A    between atoms: C_59  and  S_60
REMARK   30  A    between atoms: S_60  and  C_61
REMARK   31  A    between atoms: N_64  and  C_65
REMARK   32  A    between atoms: C_65  and  C_67
REMARK   33  A    between atoms: C_65  and  C_71
REMARK   34  A    between atoms: C_67  and  C_68
REMARK   35  A    between atoms: C_68  and  O_69
REMARK   36  A    between atoms: N_73  and  C_74
REMARK   37  A    between atoms: C_74  and  C_76
REMARK   38  A    between atoms: C_74  and  C_83
REMARK   39  A    between atoms: C_76  and  C_77
REMARK                            x       y       z     vdW  Elec       q    Type
REMARK                         _______ _______ _______ _____ _____    ______ ____
ROOT
ATOM      1  C   UNL     1       7.296  -4.429  26.792  0.00  0.00    +0.163 C 
ENDROOT
BRANCH   1   3
ATOM      2  C   UNL     1       8.380  -5.284  24.698  0.00  0.00    +0.231 C 
ATOM      3  N   UNL     1       7.294  -4.758  25.359  0.00  0.00    -0.302 N 
ATOM      4  H   UNL     1       6.420  -4.612  24.856  0.00  0.00    +0.150 HD
ATOM      5  O   UNL     1       9.399  -5.664  25.270  0.00  0.00    -0.274 OA
BRANCH   2   6
ATOM      6  C   UNL     1       8.216  -5.401  23.179  0.00  0.00    +0.200 C 
BRANCH   6   8
ATOM      7  C   UNL     1       7.310  -3.128  23.116  0.00  0.00    +0.234 C 
ATOM      8  N   UNL     1       7.250  -4.439  22.704  0.00  0.00    -0.305 N 
ATOM      9  H   UNL     1       6.337  -4.804  22.450  0.00  0.00    +0.149 HD
ATOM     10  O   UNL     1       8.235  -2.671  23.786  0.00  0.00    -0.274 OA
BRANCH   7  11
ATOM     11  C   UNL     1       6.080  -2.298  22.727  0.00  0.00    +0.160 C 
BRANCH  11  12
ATOM     12  N   UNL     1       6.569  -0.939  22.521  0.00  0.00    -0.302 N 
ATOM     13  H   UNL     1       7.189  -0.798  21.735  0.00  0.00    +0.150 HD
ATOM     14  C   UNL     1       6.507   0.033  23.490  0.00  0.00    +0.234 C 
ATOM     15  O   UNL     1       6.165  -0.228  24.645  0.00  0.00    -0.274 OA
BRANCH  14  16
ATOM     16  C   UNL     1       6.944   1.470  23.081  0.00  0.00    +0.163 C 
BRANCH  16  17
ATOM     17  N   UNL     1       5.848   2.100  22.358  0.00  0.00    -0.302 N 
ATOM     18  H   UNL     1       6.046   2.535  21.457  0.00  0.00    +0.150 HD
ATOM     19  C   UNL     1       4.743   2.588  23.013  0.00  0.00    +0.231 C 
ATOM     20  O   UNL     1       4.488   2.388  24.195  0.00  0.00    -0.274 OA
BRANCH  19  21
ATOM     21  C   UNL     1       3.780   3.396  22.154  0.00  0.00    +0.148 C 
BRANCH  21  22
ATOM     22  N   UNL     1       2.383   2.910  22.323  0.00  0.00    -0.320 NA
ATOM     23  H   UNL     1       2.180   2.185  21.633  0.00  0.00    +0.119 HD
ATOM     24  H   UNL     1       2.293   2.462  23.238  0.00  0.00    +0.119 HD
ENDBRANCH  21  22
BRANCH  21  25
ATOM     25  C   UNL     1       3.886   4.867  22.502  0.00  0.00    +0.148 C 
BRANCH  25  26
ATOM     26  C   UNL     1       2.863   5.471  23.426  0.00  0.00    +0.307 C 
ATOM     27  O   UNL     1       2.456   6.619  23.302  0.00  0.00    -0.251 OA
BRANCH  26  28
ATOM     28  O   UNL     1       2.557   4.718  24.499  0.00  0.00    -0.481 OA
ATOM     29  H   UNL     1       2.599   3.752  24.373  0.00  0.00    +0.295 HD
ENDBRANCH  26  28
ENDBRANCH  25  26
ENDBRANCH  21  25
ENDBRANCH  19  21
ENDBRANCH  16  17
BRANCH  16  30
ATOM     30  C   UNL     1       7.483   2.354  24.228  0.00  0.00    +0.067 C 
BRANCH  30  31
ATOM     31  C   UNL     1       8.633   3.259  23.862  0.00  0.00    -0.045 A 
ATOM     32  C   UNL     1       8.422   4.641  23.799  0.00  0.00    +0.007 A 
ATOM     33  C   UNL     1       9.493   5.498  23.561  0.00  0.00    +0.049 A 
ATOM     34  C   UNL     1      10.776   4.982  23.369  0.00  0.00    +0.159 A 
ATOM     35  C   UNL     1      10.987   3.606  23.424  0.00  0.00    +0.049 A 
ATOM     36  C   UNL     1       9.914   2.747  23.633  0.00  0.00    +0.007 A 
BRANCH  34  37
ATOM     37  O   UNL     1      11.760   5.906  23.131  0.00  0.00    -0.325 OA
BRANCH  37  38
ATOM     38  S   UNL     1      13.174   5.485  22.445  0.00  0.00    +0.251 S 
ATOM     39  O   UNL     1      12.940   4.934  21.127  0.00  0.00    -0.108 OA
ATOM     40  O   UNL     1      13.971   4.791  23.433  0.00  0.00    -0.108 OA
BRANCH  38  41
ATOM     41  O   UNL     1      13.894   6.911  22.248  0.00  0.00    -0.222 OA
ATOM     42  H   UNL     1      14.853   6.776  22.377  0.00  0.00    +0.248 HD
ENDBRANCH  38  41
ENDBRANCH  37  38
ENDBRANCH  34  37
ENDBRANCH  30  31
ENDBRANCH  16  30
ENDBRANCH  14  16
ENDBRANCH  11  12
BRANCH  11  43
ATOM     43  C   UNL     1       5.433  -2.821  21.436  0.00  0.00    +0.042 C 
BRANCH  43  44
ATOM     44  C   UNL     1       4.815  -4.217  21.529  0.00  0.00    +0.071 C 
BRANCH  44  46
ATOM     45  C   UNL     1       3.227  -6.085  22.773  0.00  0.00    +0.084 C 
ATOM     46  S   UNL     1       4.129  -4.568  23.175  0.00  0.00    -0.164 S 
ENDBRANCH  44  46
ENDBRANCH  43  44
ENDBRANCH  11  43
ENDBRANCH   7  11
ENDBRANCH   6   8
ENDBRANCH   2   6
ENDBRANCH   1   3
BRANCH   1  47
ATOM     47  C   UNL     1       8.348  -3.313  27.062  0.00  0.00    +0.234 C 
ATOM     48  N   UNL     1       7.944  -2.023  26.766  0.00  0.00    -0.302 N 
ATOM     49  H   UNL     1       7.012  -1.869  26.397  0.00  0.00    +0.150 HD
ATOM     50  O   UNL     1       9.467  -3.574  27.504  0.00  0.00    -0.274 OA
BRANCH  48  51
ATOM     51  C   UNL     1       8.704  -0.804  27.120  0.00  0.00    +0.160 C 
BRANCH  51  52
ATOM     52  C   UNL     1       7.708   0.117  27.889  0.00  0.00    +0.234 C 
ATOM     53  N   UNL     1       6.539   0.430  27.227  0.00  0.00    -0.302 N 
ATOM     54  H   UNL     1       6.300  -0.139  26.420  0.00  0.00    +0.150 HD
ATOM     55  O   UNL     1       7.938   0.486  29.042  0.00  0.00    -0.274 OA
BRANCH  53  56
ATOM     56  C   UNL     1       5.441   1.188  27.867  0.00  0.00    +0.169 C 
BRANCH  56  57
ATOM     57  C   UNL     1       4.086   0.695  27.297  0.00  0.00    +0.234 C 
ATOM     58  N   UNL     1       2.961   1.444  27.556  0.00  0.00    -0.302 N 
ATOM     59  H   UNL     1       3.017   2.332  28.051  0.00  0.00    +0.150 HD
ATOM     60  O   UNL     1       4.037  -0.298  26.568  0.00  0.00    -0.274 OA
BRANCH  58  61
ATOM     61  C   UNL     1       1.636   1.095  26.999  0.00  0.00    +0.163 C 
BRANCH  61  62
ATOM     62  C   UNL     1       0.899   2.348  26.484  0.00  0.00    +0.231 C 
ATOM     63  O   UNL     1       0.482   3.230  27.232  0.00  0.00    -0.274 OA
ATOM     64  N   UNL     1       0.757   2.464  25.125  0.00  0.00    -0.328 N 
ATOM     65  H   UNL     1       0.270   3.275  24.766  0.00  0.00    +0.145 HD
ATOM     66  H   UNL     1       1.198   1.845  24.457  0.00  0.00    +0.145 HD
ENDBRANCH  61  62
BRANCH  61  67
ATOM     67  C   UNL     1       0.730   0.277  27.943  0.00  0.00    +0.067 C 
BRANCH  67  68
ATOM     68  C   UNL     1       1.222  -1.090  28.362  0.00  0.00    -0.045 A 
ATOM     69  C   UNL     1       1.779  -1.277  29.632  0.00  0.00    +0.004 A 
ATOM     70  C   UNL     1       2.327  -2.509  29.990  0.00  0.00    +0.000 A 
ATOM     71  C   UNL     1       2.360  -3.557  29.074  0.00  0.00    +0.000 A 
ATOM     72  C   UNL     1       1.775  -3.396  27.822  0.00  0.00    +0.000 A 
ATOM     73  C   UNL     1       1.194  -2.174  27.472  0.00  0.00    +0.004 A 
ENDBRANCH  67  68
ENDBRANCH  61  67
ENDBRANCH  58  61
ENDBRANCH  56  57
BRANCH  56  74
ATOM     74  C   UNL     1       5.559   2.673  27.528  0.00  0.00    +0.152 C 
BRANCH  74  75
ATOM     75  C   UNL     1       5.990   3.467  28.726  0.00  0.00    +0.307 C 
ATOM     76  O   UNL     1       5.222   4.135  29.403  0.00  0.00    -0.251 OA
BRANCH  75  77
ATOM     77  O   UNL     1       7.307   3.379  29.015  0.00  0.00    -0.481 OA
ATOM     78  H   UNL     1       7.844   4.169  28.813  0.00  0.00    +0.295 HD
ENDBRANCH  75  77
ENDBRANCH  74  75
ENDBRANCH  56  74
ENDBRANCH  53  56
ENDBRANCH  51  52
BRANCH  51  79
ATOM     79  C   UNL     1       9.168  -0.081  25.858  0.00  0.00    +0.042 C 
BRANCH  79  80
ATOM     80  C   UNL     1      10.421  -0.548  25.136  0.00  0.00    +0.071 C 
BRANCH  80  81
ATOM     81  S   UNL     1      10.473  -0.040  23.400  0.00  0.00    -0.164 S 
ATOM     82  C   UNL     1      10.644  -1.689  22.657  0.00  0.00    +0.084 C 
ENDBRANCH  80  81
ENDBRANCH  79  80
ENDBRANCH  51  79
ENDBRANCH  48  51
ENDBRANCH   1  47
BRANCH   1  83
ATOM     83  C   UNL     1       7.587  -5.651  27.694  0.00  0.00    +0.069 C 
BRANCH  83  84
ATOM     84  C   UNL     1       6.369  -6.148  28.426  0.00  0.00    -0.020 A 
ATOM     85  C   UNL     1       5.082  -6.447  27.868  0.00  0.00    +0.003 A 
ATOM     86  C   UNL     1       4.236  -6.764  28.919  0.00  0.00    +0.047 A 
ATOM     87  C   UNL     1       2.883  -7.067  28.740  0.00  0.00    +0.026 A 
ATOM     88  C   UNL     1       2.389  -7.076  27.433  0.00  0.00    +0.002 A 
ATOM     89  C   UNL     1       3.217  -6.783  26.352  0.00  0.00    +0.001 A 
ATOM     90  N   UNL     1       4.970  -6.715  30.077  0.00  0.00    -0.360 N 
ATOM     91  H   UNL     1       4.610  -6.893  31.005  0.00  0.00    +0.165 HD
ATOM     92  C   UNL     1       4.564  -6.462  26.549  0.00  0.00    +0.010 A 
ATOM     93  C   UNL     1       6.262  -6.362  29.789  0.00  0.00    +0.087 A 
ENDBRANCH  83  84
ENDBRANCH   1  83
TORSDOF 37
ENDMDL
MODEL 9
REMARK VINA RESULT:      -2.9      2.559      6.425
REMARK  Name = 
REMARK  39 active torsions:
REMARK  status: ('A' for Active; 'I' for Inactive)
REMARK    1  A    between atoms: C_1  and  S_2
REMARK    2  A    between atoms: S_2  and  C_3
REMARK    3  A    between atoms: C_3  and  C_4
REMARK    4  A    between atoms: C_4  and  C_5
REMARK    5  A    between atoms: C_5  and  N_7
REMARK    6  A    between atoms: C_5  and  C_34
REMARK    7  A    between atoms: C_8  and  C_10
REMARK    8  A    between atoms: C_10  and  C_12
REMARK    9  A    between atoms: C_10  and  N_24
REMARK   10  A    between atoms: C_12  and  C_13
REMARK   11  A    between atoms: C_16  and  O_17
REMARK   12  A    between atoms: O_17  and  S_18
REMARK   13  A    between atoms: S_18  and  O_19
REMARK   14  A    between atoms: C_25  and  C_27
REMARK   15  A    between atoms: C_27  and  N_29
REMARK   16  A    between atoms: C_27  and  C_30
REMARK   17  A    between atoms: C_30  and  C_31
REMARK   18  A    between atoms: C_31  and  O_32
REMARK   19  A    between atoms: N_36  and  C_37
REMARK   20  A    between atoms: C_37  and  C_38
REMARK   21  A    between atoms: N_40  and  C_41
REMARK   22  A    between atoms: C_41  and  C_43
REMARK   23  A    between atoms: C_41  and  C_53
REMARK   24  A    between atoms: C_43  and  C_44
REMARK   25  A    between atoms: N_55  and  C_56
REMARK   26  A    between atoms: C_56  and  C_58
REMARK   27  A    between atoms: C_56  and  C_62
REMARK   28  A    between atoms: C_58  and  C_59
REMARK   29  A    between atoms: C_59  and  S_60
REMARK   30  A    between atoms: S_60  and  C_61
REMARK   31  A    between atoms: N_64  and  C_65
REMARK   32  A    between atoms: C_65  and  C_67
REMARK   33  A    between atoms: C_65  and  C_71
REMARK   34  A    between atoms: C_67  and  C_68
REMARK   35  A    between atoms: C_68  and  O_69
REMARK   36  A    between atoms: N_73  and  C_74
REMARK   37  A    between atoms: C_74  and  C_76
REMARK   38  A    between atoms: C_74  and  C_83
REMARK   39  A    between atoms: C_76  and  C_77
REMARK                            x       y       z     vdW  Elec       q    Type
REMARK                         _______ _______ _______ _____ _____    ______ ____
ROOT
ATOM      1  C   UNL     1       5.424   2.515  24.151  0.00  0.00    +0.163 C 
ENDROOT
BRANCH   1   3
ATOM      2  C   UNL     1       7.055   3.234  22.386  0.00  0.00    +0.231 C 
ATOM      3  N   UNL     1       6.364   3.474  23.551  0.00  0.00    -0.302 N 
ATOM      4  H   UNL     1       6.467   4.371  24.023  0.00  0.00    +0.150 HD
ATOM      5  O   UNL     1       6.843   2.263  21.663  0.00  0.00    -0.274 OA
BRANCH   2   6
ATOM      6  C   UNL     1       8.100   4.295  22.026  0.00  0.00    +0.200 C 
BRANCH   6   8
ATOM      7  C   UNL     1       8.683   4.956  24.310  0.00  0.00    +0.234 C 
ATOM      8  N   UNL     1       8.186   5.288  23.071  0.00  0.00    -0.305 N 
ATOM      9  H   UNL     1       7.512   6.046  23.029  0.00  0.00    +0.149 HD
ATOM     10  O   UNL     1       9.195   3.866  24.564  0.00  0.00    -0.274 OA
BRANCH   7  11
ATOM     11  C   UNL     1       8.477   6.041  25.373  0.00  0.00    +0.160 C 
BRANCH  11  12
ATOM     12  N   UNL     1       8.193   5.331  26.614  0.00  0.00    -0.302 N 
ATOM     13  H   UNL     1       8.991   4.975  27.123  0.00  0.00    +0.150 HD
ATOM     14  C   UNL     1       6.946   4.849  26.931  0.00  0.00    +0.234 C 
ATOM     15  O   UNL     1       6.023   4.862  26.116  0.00  0.00    -0.274 OA
BRANCH  14  16
ATOM     16  C   UNL     1       6.765   4.232  28.349  0.00  0.00    +0.163 C 
BRANCH  16  17
ATOM     17  N   UNL     1       5.507   4.710  28.907  0.00  0.00    -0.302 N 
ATOM     18  H   UNL     1       4.693   4.098  28.864  0.00  0.00    +0.150 HD
ATOM     19  C   UNL     1       5.228   6.052  28.999  0.00  0.00    +0.231 C 
ATOM     20  O   UNL     1       6.041   6.948  28.804  0.00  0.00    -0.274 OA
BRANCH  19  21
ATOM     21  C   UNL     1       3.803   6.394  29.412  0.00  0.00    +0.148 C 
BRANCH  21  22
ATOM     22  N   UNL     1       3.086   7.098  28.314  0.00  0.00    -0.320 NA
ATOM     23  H   UNL     1       3.725   7.735  27.834  0.00  0.00    +0.119 HD
ATOM     24  H   UNL     1       2.792   6.413  27.614  0.00  0.00    +0.119 HD
ENDBRANCH  21  22
BRANCH  21  25
ATOM     25  C   UNL     1       3.066   5.133  29.817  0.00  0.00    +0.148 C 
BRANCH  25  26
ATOM     26  C   UNL     1       1.563   5.117  29.752  0.00  0.00    +0.307 C 
ATOM     27  O   UNL     1       0.936   4.279  29.117  0.00  0.00    -0.251 OA
BRANCH  26  28
ATOM     28  O   UNL     1       0.963   6.190  30.302  0.00  0.00    -0.481 OA
ATOM     29  H   UNL     1       0.523   6.045  31.160  0.00  0.00    +0.295 HD
ENDBRANCH  26  28
ENDBRANCH  25  26
ENDBRANCH  21  25
ENDBRANCH  19  21
ENDBRANCH  16  17
BRANCH  16  30
ATOM     30  C   UNL     1       6.902   2.694  28.428  0.00  0.00    +0.067 C 
BRANCH  30  31
ATOM     31  C   UNL     1       5.603   1.928  28.440  0.00  0.00    -0.045 A 
ATOM     32  C   UNL     1       5.415   0.915  29.388  0.00  0.00    +0.007 A 
ATOM     33  C   UNL     1       4.186   0.266  29.478  0.00  0.00    +0.049 A 
ATOM     34  C   UNL     1       3.145   0.611  28.614  0.00  0.00    +0.159 A 
ATOM     35  C   UNL     1       3.332   1.613  27.666  0.00  0.00    +0.049 A 
ATOM     36  C   UNL     1       4.567   2.243  27.554  0.00  0.00    +0.007 A 
BRANCH  34  37
ATOM     37  O   UNL     1       1.980  -0.093  28.776  0.00  0.00    -0.325 OA
BRANCH  37  38
ATOM     38  S   UNL     1       1.512  -1.221  27.701  0.00  0.00    +0.251 S 
ATOM     39  O   UNL     1       0.976  -0.585  26.517  0.00  0.00    -0.108 OA
ATOM     40  O   UNL     1       0.785  -2.252  28.410  0.00  0.00    -0.108 OA
BRANCH  38  41
ATOM     41  O   UNL     1       2.912  -1.901  27.290  0.00  0.00    -0.222 OA
ATOM     42  H   UNL     1       2.749  -2.856  27.162  0.00  0.00    +0.248 HD
ENDBRANCH  38  41
ENDBRANCH  37  38
ENDBRANCH  34  37
ENDBRANCH  30  31
ENDBRANCH  16  30
ENDBRANCH  14  16
ENDBRANCH  11  12
BRANCH  11  43
ATOM     43  C   UNL     1       9.734   6.908  25.544  0.00  0.00    +0.042 C 
BRANCH  43  44
ATOM     44  C   UNL     1      11.063   6.203  25.266  0.00  0.00    +0.071 C 
BRANCH  44  46
ATOM     45  C   UNL     1      12.810   4.987  23.526  0.00  0.00    +0.084 C 
ATOM     46  S   UNL     1      11.534   6.271  23.511  0.00  0.00    -0.164 S 
ENDBRANCH  44  46
ENDBRANCH  43  44
ENDBRANCH  11  43
ENDBRANCH   7  11
ENDBRANCH   6   8
ENDBRANCH   2   6
ENDBRANCH   1   3
BRANCH   1  47
ATOM     47  C   UNL     1       6.174   1.187  24.464  0.00  0.00    +0.234 C 
ATOM     48  N   UNL     1       5.801   0.093  23.705  0.00  0.00    -0.302 N 
ATOM     49  H   UNL     1       5.077   0.201  23.003  0.00  0.00    +0.150 HD
ATOM     50  O   UNL     1       7.038   1.125  25.339  0.00  0.00    -0.274 OA
BRANCH  48  51
ATOM     51  C   UNL     1       6.508  -1.207  23.702  0.00  0.00    +0.160 C 
BRANCH  51  52
ATOM     52  C   UNL     1       5.659  -2.162  24.596  0.00  0.00    +0.234 C 
ATOM     53  N   UNL     1       5.548  -3.464  24.155  0.00  0.00    -0.302 N 
ATOM     54  H   UNL     1       6.204  -3.766  23.441  0.00  0.00    +0.150 HD
ATOM     55  O   UNL     1       5.174  -1.777  25.661  0.00  0.00    -0.274 OA
BRANCH  53  56
ATOM     56  C   UNL     1       4.884  -4.520  24.952  0.00  0.00    +0.169 C 
BRANCH  56  57
ATOM     57  C   UNL     1       5.524  -4.569  26.363  0.00  0.00    +0.234 C 
ATOM     58  N   UNL     1       4.688  -4.641  27.453  0.00  0.00    -0.302 N 
ATOM     59  H   UNL     1       3.679  -4.727  27.343  0.00  0.00    +0.150 HD
ATOM     60  O   UNL     1       6.748  -4.619  26.494  0.00  0.00    -0.274 OA
BRANCH  58  61
ATOM     61  C   UNL     1       5.202  -4.761  28.834  0.00  0.00    +0.163 C 
BRANCH  61  62
ATOM     62  C   UNL     1       5.900  -6.118  29.055  0.00  0.00    +0.231 C 
ATOM     63  O   UNL     1       6.563  -6.372  30.059  0.00  0.00    -0.274 OA
ATOM     64  N   UNL     1       5.716  -7.070  28.084  0.00  0.00    -0.328 N 
ATOM     65  H   UNL     1       6.172  -7.966  28.206  0.00  0.00    +0.145 HD
ATOM     66  H   UNL     1       5.073  -6.970  27.310  0.00  0.00    +0.145 HD
ENDBRANCH  61  62
BRANCH  61  67
ATOM     67  C   UNL     1       4.159  -4.497  29.941  0.00  0.00    +0.067 C 
BRANCH  67  68
ATOM     68  C   UNL     1       2.928  -5.375  29.955  0.00  0.00    -0.045 A 
ATOM     69  C   UNL     1       3.009  -6.692  30.421  0.00  0.00    +0.004 A 
ATOM     70  C   UNL     1       1.904  -7.539  30.344  0.00  0.00    +0.000 A 
ATOM     71  C   UNL     1       0.716  -7.096  29.768  0.00  0.00    +0.000 A 
ATOM     72  C   UNL     1       0.611  -5.777  29.336  0.00  0.00    +0.000 A 
ATOM     73  C   UNL     1       1.705  -4.916  29.443  0.00  0.00    +0.004 A 
ENDBRANCH  67  68
ENDBRANCH  61  67
ENDBRANCH  58  61
ENDBRANCH  56  57
BRANCH  56  74
ATOM     74  C   UNL     1       5.111  -5.887  24.307  0.00  0.00    +0.152 C 
BRANCH  74  75
ATOM     75  C   UNL     1       4.046  -6.861  24.717  0.00  0.00    +0.307 C 
ATOM     76  O   UNL     1       3.723  -7.054  25.880  0.00  0.00    -0.251 OA
BRANCH  75  77
ATOM     77  O   UNL     1       3.453  -7.510  23.692  0.00  0.00    -0.481 OA
ATOM     78  H   UNL     1       3.317  -8.469  23.813  0.00  0.00    +0.295 HD
ENDBRANCH  75  77
ENDBRANCH  74  75
ENDBRANCH  56  74
ENDBRANCH  53  56
ENDBRANCH  51  52
BRANCH  51  79
ATOM     79  C   UNL     1       7.896  -1.060  24.320  0.00  0.00    +0.042 C 
BRANCH  79  80
ATOM     80  C   UNL     1       9.129  -1.399  23.500  0.00  0.00    +0.071 C 
BRANCH  80  81
ATOM     81  S   UNL     1       9.372  -0.293  22.088  0.00  0.00    -0.164 S 
ATOM     82  C   UNL     1      10.150   1.087  22.978  0.00  0.00    +0.084 C 
ENDBRANCH  80  81
ENDBRANCH  79  80
ENDBRANCH  51  79
ENDBRANCH  48  51
ENDBRANCH   1  47
BRANCH   1  83
ATOM     83  C   UNL     1       4.199   2.224  23.252  0.00  0.00    +0.069 C 
BRANCH  83  84
ATOM     84  C   UNL     1       3.158   3.309  23.304  0.00  0.00    -0.020 A 
ATOM     85  C   UNL     1       2.365   3.805  22.216  0.00  0.00    +0.003 A 
ATOM     86  C   UNL     1       1.624   4.874  22.695  0.00  0.00    +0.047 A 
ATOM     87  C   UNL     1       0.767   5.626  21.886  0.00  0.00    +0.026 A 
ATOM     88  C   UNL     1       0.644   5.250  20.546  0.00  0.00    +0.002 A 
ATOM     89  C   UNL     1       1.358   4.168  20.038  0.00  0.00    +0.001 A 
ATOM     90  N   UNL     1       1.900   5.010  24.032  0.00  0.00    -0.360 N 
ATOM     91  H   UNL     1       1.508   5.716  24.640  0.00  0.00    +0.165 HD
ATOM     92  C   UNL     1       2.227   3.436  20.855  0.00  0.00    +0.010 A 
ATOM     93  C   UNL     1       2.811   4.061  24.412  0.00  0.00    +0.087 A 
ENDBRANCH  83  84
ENDBRANCH   1  83
TORSDOF 37
ENDMDL
