MODEL 1
REMARK VINA RESULT:      -7.7      0.000      0.000
REMARK  Name = 
REMARK  6 active torsions:
REMARK  status: ('A' for Active; 'I' for Inactive)
REMARK    1  A    between atoms: C_1  and  C_2
REMARK    2  A    between atoms: C_3  and  N_4
REMARK    3  A    between atoms: N_4  and  C_5
REMARK    4  A    between atoms: C_11  and  C_15
REMARK    5  A    between atoms: C_18  and  C_19
REMARK    6  A    between atoms: C_23  and  O_24
REMARK                            x       y       z     vdW  Elec       q    Type
REMARK                         _______ _______ _______ _____ _____    ______ ____
ROOT
ATOM      1  C   UNL     1       8.009  -1.701  23.938  0.00  0.00    +0.042 A 
ATOM      2  C   UNL     1       8.559  -0.383  23.859  0.00  0.00    +0.022 A 
ATOM      3  C   UNL     1       9.310  -0.019  22.714  0.00  0.00    +0.073 A 
ATOM      4  C   UNL     1       9.863   1.266  22.629  0.00  0.00    +0.038 A 
ATOM      5  C   UNL     1       9.730   2.197  23.666  0.00  0.00    +0.003 A 
ATOM      6  C   UNL     1       9.019   1.816  24.802  0.00  0.00    +0.011 A 
ATOM      7  N   UNL     1       9.501  -0.873  21.690  0.00  0.00    -0.255 NA
ATOM      8  C   UNL     1       8.989  -2.116  21.799  0.00  0.00    +0.113 A 
ATOM      9  C   UNL     1       8.397   0.577  24.874  0.00  0.00    +0.012 A 
ATOM     10  C   UNL     1       8.260  -2.568  22.884  0.00  0.00    +0.043 A 
ENDROOT
BRANCH   5  11
ATOM     11  C   UNL     1      10.212   3.575  23.622  0.00  0.00    +0.079 A 
ATOM     12  N   UNL     1      11.516   3.830  23.205  0.00  0.00    -0.236 NA
ATOM     13  C   UNL     1      11.820   5.092  23.411  0.00  0.00    +0.141 A 
ATOM     14  S   UNL     1      10.568   6.064  24.046  0.00  0.00    -0.072 S 
ATOM     15  C   UNL     1       9.532   4.687  24.080  0.00  0.00    +0.075 A 
BRANCH  13  16
ATOM     16  C   UNL     1      13.146   5.609  23.152  0.00  0.00    +0.285 C 
ATOM     17  O   UNL     1      13.764   5.562  22.089  0.00  0.00    -0.294 OA
ENDBRANCH  13  16
ENDBRANCH   5  11
BRANCH   1  18
ATOM     18  N   UNL     1       7.256  -2.099  25.078  0.00  0.00    -0.314 N 
ATOM     19  H   UNL     1       6.629  -1.372  25.378  0.00  0.00    +0.152 HD
BRANCH  18  26
ATOM     20  C   UNL     1       4.633  -3.204  24.118  0.00  0.00    +0.045 C 
ATOM     21  C   UNL     1       5.570  -3.901  25.073  0.00  0.00    -0.029 A 
ATOM     22  C   UNL     1       5.143  -5.174  25.512  0.00  0.00    +0.009 A 
ATOM     23  C   UNL     1       5.888  -5.903  26.429  0.00  0.00    +0.046 A 
ATOM     24  C   UNL     1       7.055  -5.356  26.930  0.00  0.00    +0.119 A 
ATOM     25  C   UNL     1       7.502  -4.103  26.511  0.00  0.00    +0.069 A 
ATOM     26  C   UNL     1       6.799  -3.357  25.548  0.00  0.00    +0.038 A 
BRANCH  24  27
ATOM     27  O   UNL     1       7.761  -6.093  27.836  0.00  0.00    -0.507 OA
ATOM     28  H   UNL     1       7.850  -6.997  27.491  0.00  0.00    +0.292 HD
ENDBRANCH  24  27
ENDBRANCH  18  26
ENDBRANCH   1  18
TORSDOF 5
ENDMDL
MODEL 2
REMARK VINA RESULT:      -7.4      2.708      8.899
REMARK  Name = 
REMARK  6 active torsions:
REMARK  status: ('A' for Active; 'I' for Inactive)
REMARK    1  A    between atoms: C_1  and  C_2
REMARK    2  A    between atoms: C_3  and  N_4
REMARK    3  A    between atoms: N_4  and  C_5
REMARK    4  A    between atoms: C_11  and  C_15
REMARK    5  A    between atoms: C_18  and  C_19
REMARK    6  A    between atoms: C_23  and  O_24
REMARK                            x       y       z     vdW  Elec       q    Type
REMARK                         _______ _______ _______ _____ _____    ______ ____
ROOT
ATOM      1  C   UNL     1       9.285   2.054  23.151  0.00  0.00    +0.042 A 
ATOM      2  C   UNL     1       8.687   1.021  23.938  0.00  0.00    +0.022 A 
ATOM      3  C   UNL     1       8.689  -0.308  23.445  0.00  0.00    +0.073 A 
ATOM      4  C   UNL     1       8.096  -1.327  24.202  0.00  0.00    +0.038 A 
ATOM      5  C   UNL     1       7.461  -1.066  25.423  0.00  0.00    +0.003 A 
ATOM      6  C   UNL     1       7.436   0.249  25.881  0.00  0.00    +0.011 A 
ATOM      7  N   UNL     1       9.257  -0.626  22.266  0.00  0.00    -0.255 NA
ATOM      8  C   UNL     1       9.796   0.370  21.534  0.00  0.00    +0.113 A 
ATOM      9  C   UNL     1       8.084   1.261  25.186  0.00  0.00    +0.012 A 
ATOM     10  C   UNL     1       9.826   1.698  21.923  0.00  0.00    +0.043 A 
ENDROOT
BRANCH   5  11
ATOM     11  C   UNL     1       6.888  -2.082  26.302  0.00  0.00    +0.079 A 
ATOM     12  N   UNL     1       7.559  -3.289  26.481  0.00  0.00    -0.236 NA
ATOM     13  C   UNL     1       6.805  -4.134  27.147  0.00  0.00    +0.141 A 
ATOM     14  S   UNL     1       5.289  -3.535  27.656  0.00  0.00    -0.072 S 
ATOM     15  C   UNL     1       5.647  -2.025  26.905  0.00  0.00    +0.075 A 
BRANCH  13  16
ATOM     16  C   UNL     1       7.221  -5.497  27.394  0.00  0.00    +0.285 C 
ATOM     17  O   UNL     1       6.997  -6.168  28.400  0.00  0.00    -0.294 OA
ENDBRANCH  13  16
ENDBRANCH   5  11
BRANCH   1  18
ATOM     18  N   UNL     1       9.295   3.400  23.615  0.00  0.00    -0.314 N 
ATOM     19  H   UNL     1       8.554   3.567  24.274  0.00  0.00    +0.152 HD
BRANCH  18  26
ATOM     20  C   UNL     1       8.668   6.078  24.820  0.00  0.00    +0.045 C 
ATOM     21  C   UNL     1      10.040   5.620  24.390  0.00  0.00    -0.029 A 
ATOM     22  C   UNL     1      11.078   6.554  24.602  0.00  0.00    +0.009 A 
ATOM     23  C   UNL     1      12.381   6.279  24.208  0.00  0.00    +0.046 A 
ATOM     24  C   UNL     1      12.651   5.077  23.580  0.00  0.00    +0.119 A 
ATOM     25  C   UNL     1      11.645   4.135  23.362  0.00  0.00    +0.069 A 
ATOM     26  C   UNL     1      10.325   4.359  23.790  0.00  0.00    +0.038 A 
BRANCH  24  27
ATOM     27  O   UNL     1      13.938   4.838  23.197  0.00  0.00    -0.507 OA
ATOM     28  H   UNL     1      14.370   5.692  23.027  0.00  0.00    +0.292 HD
ENDBRANCH  24  27
ENDBRANCH  18  26
ENDBRANCH   1  18
TORSDOF 5
ENDMDL
MODEL 3
REMARK VINA RESULT:      -7.4      3.136      8.931
REMARK  Name = 
REMARK  6 active torsions:
REMARK  status: ('A' for Active; 'I' for Inactive)
REMARK    1  A    between atoms: C_1  and  C_2
REMARK    2  A    between atoms: C_3  and  N_4
REMARK    3  A    between atoms: N_4  and  C_5
REMARK    4  A    between atoms: C_11  and  C_15
REMARK    5  A    between atoms: C_18  and  C_19
REMARK    6  A    between atoms: C_23  and  O_24
REMARK                            x       y       z     vdW  Elec       q    Type
REMARK                         _______ _______ _______ _____ _____    ______ ____
ROOT
ATOM      1  C   UNL     1       9.720   0.270  23.383  0.00  0.00    +0.042 A 
ATOM      2  C   UNL     1       9.059  -0.853  23.972  0.00  0.00    +0.022 A 
ATOM      3  C   UNL     1       8.588  -1.892  23.131  0.00  0.00    +0.073 A 
ATOM      4  C   UNL     1       7.928  -2.993  23.695  0.00  0.00    +0.038 A 
ATOM      5  C   UNL     1       7.683  -3.081  25.071  0.00  0.00    +0.003 A 
ATOM      6  C   UNL     1       8.121  -2.037  25.884  0.00  0.00    +0.011 A 
ATOM      7  N   UNL     1       8.764  -1.860  21.796  0.00  0.00    -0.255 NA
ATOM      8  C   UNL     1       9.372  -0.780  21.265  0.00  0.00    +0.113 A 
ATOM      9  C   UNL     1       8.844  -0.976  25.357  0.00  0.00    +0.012 A 
ATOM     10  C   UNL     1       9.849   0.291  22.001  0.00  0.00    +0.043 A 
ENDROOT
BRANCH   5  11
ATOM     11  C   UNL     1       7.072  -4.226  25.741  0.00  0.00    +0.079 A 
ATOM     12  N   UNL     1       6.169  -5.024  25.043  0.00  0.00    -0.236 NA
ATOM     13  C   UNL     1       5.592  -5.877  25.859  0.00  0.00    +0.141 A 
ATOM     14  S   UNL     1       6.125  -5.831  27.480  0.00  0.00    -0.072 S 
ATOM     15  C   UNL     1       7.201  -4.547  27.078  0.00  0.00    +0.075 A 
BRANCH  13  16
ATOM     16  C   UNL     1       4.542  -6.768  25.414  0.00  0.00    +0.285 C 
ATOM     17  O   UNL     1       4.541  -7.459  24.396  0.00  0.00    -0.294 OA
ENDBRANCH  13  16
ENDBRANCH   5  11
BRANCH   1  18
ATOM     18  N   UNL     1      10.199   1.333  24.199  0.00  0.00    -0.314 N 
ATOM     19  H   UNL     1      11.021   1.062  24.711  0.00  0.00    +0.152 HD
BRANCH  18  26
ATOM     20  C   UNL     1       7.841   2.839  25.292  0.00  0.00    +0.045 C 
ATOM     21  C   UNL     1       9.042   3.470  24.629  0.00  0.00    -0.029 A 
ATOM     22  C   UNL     1       9.014   4.879  24.552  0.00  0.00    +0.009 A 
ATOM     23  C   UNL     1      10.033   5.583  23.925  0.00  0.00    +0.046 A 
ATOM     24  C   UNL     1      11.078   4.881  23.351  0.00  0.00    +0.119 A 
ATOM     25  C   UNL     1      11.132   3.489  23.417  0.00  0.00    +0.069 A 
ATOM     26  C   UNL     1      10.143   2.746  24.085  0.00  0.00    +0.038 A 
BRANCH  24  27
ATOM     27  O   UNL     1      12.060   5.599  22.735  0.00  0.00    -0.507 OA
ATOM     28  H   UNL     1      11.641   6.226  22.122  0.00  0.00    +0.292 HD
ENDBRANCH  24  27
ENDBRANCH  18  26
ENDBRANCH   1  18
TORSDOF 5
ENDMDL
MODEL 4
REMARK VINA RESULT:      -7.3      2.149      2.348
REMARK  Name = 
REMARK  6 active torsions:
REMARK  status: ('A' for Active; 'I' for Inactive)
REMARK    1  A    between atoms: C_1  and  C_2
REMARK    2  A    between atoms: C_3  and  N_4
REMARK    3  A    between atoms: N_4  and  C_5
REMARK    4  A    between atoms: C_11  and  C_15
REMARK    5  A    between atoms: C_18  and  C_19
REMARK    6  A    between atoms: C_23  and  O_24
REMARK                            x       y       z     vdW  Elec       q    Type
REMARK                         _______ _______ _______ _____ _____    ______ ____
ROOT
ATOM      1  C   UNL     1       7.553  -1.798  23.429  0.00  0.00    +0.042 A 
ATOM      2  C   UNL     1       8.130  -0.490  23.454  0.00  0.00    +0.022 A 
ATOM      3  C   UNL     1       9.527  -0.357  23.655  0.00  0.00    +0.073 A 
ATOM      4  C   UNL     1      10.102   0.920  23.693  0.00  0.00    +0.038 A 
ATOM      5  C   UNL     1       9.329   2.082  23.577  0.00  0.00    +0.003 A 
ATOM      6  C   UNL     1       7.952   1.940  23.414  0.00  0.00    +0.011 A 
ATOM      7  N   UNL     1      10.327  -1.431  23.802  0.00  0.00    -0.255 NA
ATOM      8  C   UNL     1       9.756  -2.652  23.794  0.00  0.00    +0.113 A 
ATOM      9  C   UNL     1       7.372   0.685  23.296  0.00  0.00    +0.012 A 
ATOM     10  C   UNL     1       8.401  -2.880  23.624  0.00  0.00    +0.043 A 
ENDROOT
BRANCH   5  11
ATOM     11  C   UNL     1       9.861   3.441  23.531  0.00  0.00    +0.079 A 
ATOM     12  N   UNL     1      11.222   3.635  23.309  0.00  0.00    -0.236 NA
ATOM     13  C   UNL     1      11.536   4.898  23.489  0.00  0.00    +0.141 A 
ATOM     14  S   UNL     1      10.238   5.940  23.867  0.00  0.00    -0.072 S 
ATOM     15  C   UNL     1       9.160   4.596  23.816  0.00  0.00    +0.075 A 
BRANCH  13  16
ATOM     16  C   UNL     1      12.904   5.362  23.411  0.00  0.00    +0.285 C 
ATOM     17  O   UNL     1      13.694   5.184  22.485  0.00  0.00    -0.294 OA
ENDBRANCH  13  16
ENDBRANCH   5  11
BRANCH   1  18
ATOM     18  N   UNL     1       6.154  -1.965  23.236  0.00  0.00    -0.314 N 
ATOM     19  H   UNL     1       5.851  -1.561  22.366  0.00  0.00    +0.152 HD
BRANCH  18  26
ATOM     20  C   UNL     1       4.833  -1.728  25.924  0.00  0.00    +0.045 C 
ATOM     21  C   UNL     1       4.571  -2.826  24.922  0.00  0.00    -0.029 A 
ATOM     22  C   UNL     1       3.615  -3.786  25.321  0.00  0.00    +0.009 A 
ATOM     23  C   UNL     1       3.315  -4.876  24.515  0.00  0.00    +0.046 A 
ATOM     24  C   UNL     1       3.984  -5.025  23.314  0.00  0.00    +0.119 A 
ATOM     25  C   UNL     1       4.930  -4.089  22.894  0.00  0.00    +0.069 A 
ATOM     26  C   UNL     1       5.225  -2.949  23.662  0.00  0.00    +0.038 A 
BRANCH  24  27
ATOM     27  O   UNL     1       3.673  -6.110  22.547  0.00  0.00    -0.507 OA
ATOM     28  H   UNL     1       2.774  -5.991  22.199  0.00  0.00    +0.292 HD
ENDBRANCH  24  27
ENDBRANCH  18  26
ENDBRANCH   1  18
TORSDOF 5
ENDMDL
MODEL 5
REMARK VINA RESULT:      -7.1      3.587      9.091
REMARK  Name = 
REMARK  6 active torsions:
REMARK  status: ('A' for Active; 'I' for Inactive)
REMARK    1  A    between atoms: C_1  and  C_2
REMARK    2  A    between atoms: C_3  and  N_4
REMARK    3  A    between atoms: N_4  and  C_5
REMARK    4  A    between atoms: C_11  and  C_15
REMARK    5  A    between atoms: C_18  and  C_19
REMARK    6  A    between atoms: C_23  and  O_24
REMARK                            x       y       z     vdW  Elec       q    Type
REMARK                         _______ _______ _______ _____ _____    ______ ____
ROOT
ATOM      1  C   UNL     1       7.819   0.917  22.411  0.00  0.00    +0.042 A 
ATOM      2  C   UNL     1       7.512  -0.278  23.133  0.00  0.00    +0.022 A 
ATOM      3  C   UNL     1       8.272  -1.448  22.881  0.00  0.00    +0.073 A 
ATOM      4  C   UNL     1       7.973  -2.630  23.573  0.00  0.00    +0.038 A 
ATOM      5  C   UNL     1       6.913  -2.703  24.485  0.00  0.00    +0.003 A 
ATOM      6  C   UNL     1       6.151  -1.556  24.699  0.00  0.00    +0.011 A 
ATOM      7  N   UNL     1       9.288  -1.457  21.997  0.00  0.00    -0.255 NA
ATOM      8  C   UNL     1       9.545  -0.322  21.316  0.00  0.00    +0.113 A 
ATOM      9  C   UNL     1       6.478  -0.356  24.083  0.00  0.00    +0.012 A 
ATOM     10  C   UNL     1       8.846   0.862  21.479  0.00  0.00    +0.043 A 
ENDROOT
BRANCH   5  11
ATOM     11  C   UNL     1       6.586  -3.872  25.298  0.00  0.00    +0.079 A 
ATOM     12  N   UNL     1       5.742  -4.851  24.779  0.00  0.00    -0.236 NA
ATOM     13  C   UNL     1       5.421  -5.716  25.715  0.00  0.00    +0.141 A 
ATOM     14  S   UNL     1       6.144  -5.462  27.240  0.00  0.00    -0.072 S 
ATOM     15  C   UNL     1       6.937  -4.063  26.619  0.00  0.00    +0.075 A 
BRANCH  13  16
ATOM     16  C   UNL     1       4.481  -6.788  25.471  0.00  0.00    +0.285 C 
ATOM     17  O   UNL     1       4.395  -7.481  24.459  0.00  0.00    -0.294 OA
ENDBRANCH  13  16
ENDBRANCH   5  11
BRANCH   1  18
ATOM     18  N   UNL     1       7.071   2.107  22.636  0.00  0.00    -0.314 N 
ATOM     19  H   UNL     1       6.228   1.920  23.152  0.00  0.00    +0.152 HD
BRANCH  18  26
ATOM     20  C   UNL     1       8.823   2.963  24.920  0.00  0.00    +0.045 C 
ATOM     21  C   UNL     1       8.291   3.879  23.844  0.00  0.00    -0.029 A 
ATOM     22  C   UNL     1       8.685   5.230  23.957  0.00  0.00    +0.009 A 
ATOM     23  C   UNL     1       8.229   6.187  23.060  0.00  0.00    +0.046 A 
ATOM     24  C   UNL     1       7.357   5.803  22.057  0.00  0.00    +0.119 A 
ATOM     25  C   UNL     1       6.955   4.474  21.921  0.00  0.00    +0.069 A 
ATOM     26  C   UNL     1       7.435   3.470  22.781  0.00  0.00    +0.038 A 
BRANCH  24  27
ATOM     27  O   UNL     1       6.919   6.766  21.197  0.00  0.00    -0.507 OA
ATOM     28  H   UNL     1       7.594   7.464  21.150  0.00  0.00    +0.292 HD
ENDBRANCH  24  27
ENDBRANCH  18  26
ENDBRANCH   1  18
TORSDOF 5
ENDMDL
MODEL 6
REMARK VINA RESULT:      -7.1      2.201      2.522
REMARK  Name = 
REMARK  6 active torsions:
REMARK  status: ('A' for Active; 'I' for Inactive)
REMARK    1  A    between atoms: C_1  and  C_2
REMARK    2  A    between atoms: C_3  and  N_4
REMARK    3  A    between atoms: N_4  and  C_5
REMARK    4  A    between atoms: C_11  and  C_15
REMARK    5  A    between atoms: C_18  and  C_19
REMARK    6  A    between atoms: C_23  and  O_24
REMARK                            x       y       z     vdW  Elec       q    Type
REMARK                         _______ _______ _______ _____ _____    ______ ____
ROOT
ATOM      1  C   UNL     1       9.182  -1.458  24.383  0.00  0.00    +0.042 A 
ATOM      2  C   UNL     1       9.068  -0.041  24.225  0.00  0.00    +0.022 A 
ATOM      3  C   UNL     1       9.572   0.562  23.045  0.00  0.00    +0.073 A 
ATOM      4  C   UNL     1       9.477   1.951  22.883  0.00  0.00    +0.038 A 
ATOM      5  C   UNL     1       8.930   2.774  23.875  0.00  0.00    +0.003 A 
ATOM      6  C   UNL     1       8.469   2.174  25.045  0.00  0.00    +0.011 A 
ATOM      7  N   UNL     1      10.135  -0.165  22.061  0.00  0.00    -0.255 NA
ATOM      8  C   UNL     1      10.248  -1.496  22.244  0.00  0.00    +0.113 A 
ATOM      9  C   UNL     1       8.483   0.794  25.193  0.00  0.00    +0.012 A 
ATOM     10  C   UNL     1       9.804  -2.172  23.368  0.00  0.00    +0.043 A 
ENDROOT
BRANCH   5  11
ATOM     11  C   UNL     1       8.729   4.216  23.751  0.00  0.00    +0.079 A 
ATOM     12  N   UNL     1       7.738   4.695  22.897  0.00  0.00    -0.236 NA
ATOM     13  C   UNL     1       7.835   6.001  22.778  0.00  0.00    +0.141 A 
ATOM     14  S   UNL     1       9.055   6.743  23.713  0.00  0.00    -0.072 S 
ATOM     15  C   UNL     1       9.520   5.196  24.314  0.00  0.00    +0.075 A 
BRANCH  13  16
ATOM     16  C   UNL     1       6.985   6.749  21.878  0.00  0.00    +0.285 C 
ATOM     17  O   UNL     1       5.787   6.988  22.019  0.00  0.00    -0.294 OA
ENDBRANCH  13  16
ENDBRANCH   5  11
BRANCH   1  18
ATOM     18  N   UNL     1       8.691  -2.093  25.558  0.00  0.00    -0.314 N 
ATOM     19  H   UNL     1       8.593  -1.439  26.316  0.00  0.00    +0.152 HD
BRANCH  18  26
ATOM     20  C   UNL     1       6.157  -2.416  23.978  0.00  0.00    +0.045 C 
ATOM     21  C   UNL     1       6.668  -3.393  25.009  0.00  0.00    -0.029 A 
ATOM     22  C   UNL     1       5.863  -4.538  25.201  0.00  0.00    +0.009 A 
ATOM     23  C   UNL     1       6.192  -5.493  26.152  0.00  0.00    +0.046 A 
ATOM     24  C   UNL     1       7.316  -5.301  26.934  0.00  0.00    +0.119 A 
ATOM     25  C   UNL     1       8.131  -4.181  26.762  0.00  0.00    +0.069 A 
ATOM     26  C   UNL     1       7.855  -3.218  25.777  0.00  0.00    +0.038 A 
BRANCH  24  27
ATOM     27  O   UNL     1       7.609  -6.253  27.866  0.00  0.00    -0.507 OA
ATOM     28  H   UNL     1       8.488  -6.061  28.234  0.00  0.00    +0.292 HD
ENDBRANCH  24  27
ENDBRANCH  18  26
ENDBRANCH   1  18
TORSDOF 5
ENDMDL
MODEL 7
REMARK VINA RESULT:      -7.1      5.025     10.517
REMARK  Name = 
REMARK  6 active torsions:
REMARK  status: ('A' for Active; 'I' for Inactive)
REMARK    1  A    between atoms: C_1  and  C_2
REMARK    2  A    between atoms: C_3  and  N_4
REMARK    3  A    between atoms: N_4  and  C_5
REMARK    4  A    between atoms: C_11  and  C_15
REMARK    5  A    between atoms: C_18  and  C_19
REMARK    6  A    between atoms: C_23  and  O_24
REMARK                            x       y       z     vdW  Elec       q    Type
REMARK                         _______ _______ _______ _____ _____    ______ ____
ROOT
ATOM      1  C   UNL     1       6.924  -3.663  25.566  0.00  0.00    +0.042 A 
ATOM      2  C   UNL     1       5.847  -4.522  25.180  0.00  0.00    +0.022 A 
ATOM      3  C   UNL     1       5.726  -5.793  25.796  0.00  0.00    +0.073 A 
ATOM      4  C   UNL     1       4.683  -6.649  25.418  0.00  0.00    +0.038 A 
ATOM      5  C   UNL     1       3.770  -6.301  24.414  0.00  0.00    +0.003 A 
ATOM      6  C   UNL     1       3.920  -5.064  23.791  0.00  0.00    +0.011 A 
ATOM      7  N   UNL     1       6.584  -6.204  26.750  0.00  0.00    -0.255 NA
ATOM      8  C   UNL     1       7.601  -5.383  27.081  0.00  0.00    +0.113 A 
ATOM      9  C   UNL     1       4.898  -4.170  24.204  0.00  0.00    +0.012 A 
ATOM     10  C   UNL     1       7.812  -4.134  26.523  0.00  0.00    +0.043 A 
ENDROOT
BRANCH   5  11
ATOM     11  C   UNL     1       2.616  -7.103  24.017  0.00  0.00    +0.079 A 
ATOM     12  N   UNL     1       2.239  -8.192  24.799  0.00  0.00    -0.236 NA
ATOM     13  C   UNL     1       1.309  -8.891  24.187  0.00  0.00    +0.141 A 
ATOM     14  S   UNL     1       0.781  -8.271  22.687  0.00  0.00    -0.072 S 
ATOM     15  C   UNL     1       1.902  -6.970  22.843  0.00  0.00    +0.075 A 
BRANCH  13  16
ATOM     16  C   UNL     1       0.800 -10.129  24.737  0.00  0.00    +0.285 C 
ATOM     17  O   UNL     1       1.384 -10.892  25.505  0.00  0.00    -0.294 OA
ENDBRANCH  13  16
ENDBRANCH   5  11
BRANCH   1  18
ATOM     18  N   UNL     1       7.077  -2.384  24.962  0.00  0.00    -0.314 N 
ATOM     19  H   UNL     1       6.407  -1.725  25.321  0.00  0.00    +0.152 HD
BRANCH  18  26
ATOM     20  C   UNL     1       8.744  -0.595  26.705  0.00  0.00    +0.045 C 
ATOM     21  C   UNL     1       9.004  -0.869  25.244  0.00  0.00    -0.029 A 
ATOM     22  C   UNL     1      10.136  -0.222  24.704  0.00  0.00    +0.009 A 
ATOM     23  C   UNL     1      10.462  -0.350  23.361  0.00  0.00    +0.046 A 
ATOM     24  C   UNL     1       9.646  -1.110  22.543  0.00  0.00    +0.119 A 
ATOM     25  C   UNL     1       8.524  -1.764  23.052  0.00  0.00    +0.069 A 
ATOM     26  C   UNL     1       8.190  -1.695  24.415  0.00  0.00    +0.038 A 
BRANCH  24  27
ATOM     27  O   UNL     1       9.987  -1.211  21.226  0.00  0.00    -0.507 OA
ATOM     28  H   UNL     1      10.283  -0.338  20.919  0.00  0.00    +0.292 HD
ENDBRANCH  24  27
ENDBRANCH  18  26
ENDBRANCH   1  18
TORSDOF 5
ENDMDL
MODEL 8
REMARK VINA RESULT:      -6.9      4.430      9.941
REMARK  Name = 
REMARK  6 active torsions:
REMARK  status: ('A' for Active; 'I' for Inactive)
REMARK    1  A    between atoms: C_1  and  C_2
REMARK    2  A    between atoms: C_3  and  N_4
REMARK    3  A    between atoms: N_4  and  C_5
REMARK    4  A    between atoms: C_11  and  C_15
REMARK    5  A    between atoms: C_18  and  C_19
REMARK    6  A    between atoms: C_23  and  O_24
REMARK                            x       y       z     vdW  Elec       q    Type
REMARK                         _______ _______ _______ _____ _____    ______ ____
ROOT
ATOM      1  C   UNL     1       7.993  -2.925  23.363  0.00  0.00    +0.042 A 
ATOM      2  C   UNL     1       6.817  -3.729  23.489  0.00  0.00    +0.022 A 
ATOM      3  C   UNL     1       6.826  -4.825  24.388  0.00  0.00    +0.073 A 
ATOM      4  C   UNL     1       5.684  -5.628  24.512  0.00  0.00    +0.038 A 
ATOM      5  C   UNL     1       4.537  -5.403  23.740  0.00  0.00    +0.003 A 
ATOM      6  C   UNL     1       4.552  -4.344  22.835  0.00  0.00    +0.011 A 
ATOM      7  N   UNL     1       7.904  -5.115  25.142  0.00  0.00    -0.255 NA
ATOM      8  C   UNL     1       9.006  -4.353  24.989  0.00  0.00    +0.113 A 
ATOM      9  C   UNL     1       5.643  -3.490  22.752  0.00  0.00    +0.012 A 
ATOM     10  C   UNL     1       9.099  -3.277  24.125  0.00  0.00    +0.043 A 
ENDROOT
BRANCH   5  11
ATOM     11  C   UNL     1       3.286  -6.146  23.864  0.00  0.00    +0.079 A 
ATOM     12  N   UNL     1       3.202  -7.195  24.777  0.00  0.00    -0.236 NA
ATOM     13  C   UNL     1       2.076  -7.852  24.611  0.00  0.00    +0.141 A 
ATOM     14  S   UNL     1       1.025  -7.235  23.415  0.00  0.00    -0.072 S 
ATOM     15  C   UNL     1       2.172  -5.998  23.062  0.00  0.00    +0.075 A 
BRANCH  13  16
ATOM     16  C   UNL     1       1.771  -9.047  25.368  0.00  0.00    +0.285 C 
ATOM     17  O   UNL     1       1.952 -10.211  25.015  0.00  0.00    -0.294 OA
ENDBRANCH  13  16
ENDBRANCH   5  11
BRANCH   1  18
ATOM     18  N   UNL     1       8.018  -1.822  22.465  0.00  0.00    -0.314 N 
ATOM     19  H   UNL     1       7.417  -1.977  21.674  0.00  0.00    +0.152 HD
BRANCH  18  26
ATOM     20  C   UNL     1       6.243  -0.237  24.298  0.00  0.00    +0.045 C 
ATOM     21  C   UNL     1       7.419   0.321  23.533  0.00  0.00    -0.029 A 
ATOM     22  C   UNL     1       7.670   1.695  23.737  0.00  0.00    +0.009 A 
ATOM     23  C   UNL     1       8.692   2.345  23.058  0.00  0.00    +0.046 A 
ATOM     24  C   UNL     1       9.456   1.630  22.154  0.00  0.00    +0.119 A 
ATOM     25  C   UNL     1       9.232   0.270  21.937  0.00  0.00    +0.069 A 
ATOM     26  C   UNL     1       8.238  -0.431  22.641  0.00  0.00    +0.038 A 
BRANCH  24  27
ATOM     27  O   UNL     1      10.447   2.298  21.496  0.00  0.00    -0.507 OA
ATOM     28  H   UNL     1      11.172   1.675  21.321  0.00  0.00    +0.292 HD
ENDBRANCH  24  27
ENDBRANCH  18  26
ENDBRANCH   1  18
TORSDOF 5
ENDMDL
MODEL 9
REMARK VINA RESULT:      -6.9      4.369      8.330
REMARK  Name = 
REMARK  6 active torsions:
REMARK  status: ('A' for Active; 'I' for Inactive)
REMARK    1  A    between atoms: C_1  and  C_2
REMARK    2  A    between atoms: C_3  and  N_4
REMARK    3  A    between atoms: N_4  and  C_5
REMARK    4  A    between atoms: C_11  and  C_15
REMARK    5  A    between atoms: C_18  and  C_19
REMARK    6  A    between atoms: C_23  and  O_24
REMARK                            x       y       z     vdW  Elec       q    Type
REMARK                         _______ _______ _______ _____ _____    ______ ____
ROOT
ATOM      1  C   UNL     1       8.989   2.583  22.715  0.00  0.00    +0.042 A 
ATOM      2  C   UNL     1       8.900   1.175  22.948  0.00  0.00    +0.022 A 
ATOM      3  C   UNL     1       9.926   0.534  23.687  0.00  0.00    +0.073 A 
ATOM      4  C   UNL     1       9.857  -0.847  23.913  0.00  0.00    +0.038 A 
ATOM      5  C   UNL     1       8.817  -1.629  23.394  0.00  0.00    +0.003 A 
ATOM      6  C   UNL     1       7.832  -0.993  22.640  0.00  0.00    +0.011 A 
ATOM      7  N   UNL     1      10.970   1.219  24.192  0.00  0.00    -0.255 NA
ATOM      8  C   UNL     1      11.040   2.542  23.941  0.00  0.00    +0.113 A 
ATOM      9  C   UNL     1       7.840   0.384  22.470  0.00  0.00    +0.012 A 
ATOM     10  C   UNL     1      10.098   3.251  23.215  0.00  0.00    +0.043 A 
ENDROOT
BRANCH   5  11
ATOM     11  C   UNL     1       8.635  -3.055  23.647  0.00  0.00    +0.079 A 
ATOM     12  N   UNL     1       7.852  -3.809  22.776  0.00  0.00    -0.236 NA
ATOM     13  C   UNL     1       7.655  -5.012  23.268  0.00  0.00    +0.141 A 
ATOM     14  S   UNL     1       8.433  -5.344  24.752  0.00  0.00    -0.072 S 
ATOM     15  C   UNL     1       9.069  -3.742  24.763  0.00  0.00    +0.075 A 
BRANCH  13  16
ATOM     16  C   UNL     1       6.799  -5.975  22.610  0.00  0.00    +0.285 C 
ATOM     17  O   UNL     1       6.555  -6.045  21.407  0.00  0.00    -0.294 OA
ENDBRANCH  13  16
ENDBRANCH   5  11
BRANCH   1  18
ATOM     18  N   UNL     1       7.978   3.255  21.972  0.00  0.00    -0.314 N 
ATOM     19  H   UNL     1       7.963   2.952  21.013  0.00  0.00    +0.152 HD
BRANCH  18  26
ATOM     20  C   UNL     1       7.699   6.219  22.367  0.00  0.00    +0.045 C 
ATOM     21  C   UNL     1       6.574   5.219  22.482  0.00  0.00    -0.029 A 
ATOM     22  C   UNL     1       5.311   5.769  22.789  0.00  0.00    +0.009 A 
ATOM     23  C   UNL     1       4.200   4.956  22.971  0.00  0.00    +0.046 A 
ATOM     24  C   UNL     1       4.350   3.585  22.867  0.00  0.00    +0.119 A 
ATOM     25  C   UNL     1       5.586   3.016  22.561  0.00  0.00    +0.069 A 
ATOM     26  C   UNL     1       6.721   3.810  22.324  0.00  0.00    +0.038 A 
BRANCH  24  27
ATOM     27  O   UNL     1       3.242   2.812  23.059  0.00  0.00    -0.507 OA
ATOM     28  H   UNL     1       3.335   2.350  23.908  0.00  0.00    +0.292 HD
ENDBRANCH  24  27
ENDBRANCH  18  26
ENDBRANCH   1  18
TORSDOF 5
ENDMDL
