MODEL 1
REMARK VINA RESULT:      -4.8      0.000      0.000
REMARK  Name = 
REMARK  5 active torsions:
REMARK  status: ('A' for Active; 'I' for Inactive)
REMARK    1  A    between atoms: C_1  and  C_2
REMARK    2  A    between atoms: C_2  and  C_3
REMARK    3  A    between atoms: C_2  and  C_4
REMARK    4  A    between atoms: C_7  and  C_8
REMARK    5  A    between atoms: C_10  and  O_11
REMARK                            x       y       z     vdW  Elec       q    Type
REMARK                         _______ _______ _______ _____ _____    ______ ____
ROOT
ATOM      1  C   UNL     1       9.723  -0.806  23.072  0.00  0.00    -0.003 A 
ATOM      2  C   UNL     1       9.731   0.052  21.967  0.00  0.00    +0.121 A 
ATOM      3  C   UNL     1      10.091   1.399  22.097  0.00  0.00    +0.049 A 
ATOM      4  C   UNL     1      10.437   1.924  23.346  0.00  0.00    -0.047 A 
ATOM      5  C   UNL     1      10.732   3.387  23.490  0.00  0.00    +0.044 C 
ATOM      6  C   UNL     1      10.475   1.071  24.450  0.00  0.00    +0.004 A 
ATOM      7  C   UNL     1      10.123  -0.274  24.313  0.00  0.00    +0.008 A 
ENDROOT
BRANCH   1   9
ATOM      8  C   UNL     1       9.758  -2.989  24.265  0.00  0.00    +0.012 C 
ATOM      9  C   UNL     1       9.199  -2.236  23.054  0.00  0.00    +0.016 C 
ATOM     10  C   UNL     1       7.681  -2.406  22.968  0.00  0.00    +0.012 C 
ENDBRANCH   1   9
BRANCH   2  11
ATOM     11  O   UNL     1       9.347  -0.411  20.741  0.00  0.00    -0.506 OA
ATOM     12  H   UNL     1       8.383  -0.510  20.730  0.00  0.00    +0.292 HD
ENDBRANCH   2  11
TORSDOF 2
ENDMDL
MODEL 2
REMARK VINA RESULT:      -4.7      1.181      4.337
REMARK  Name = 
REMARK  5 active torsions:
REMARK  status: ('A' for Active; 'I' for Inactive)
REMARK    1  A    between atoms: C_1  and  C_2
REMARK    2  A    between atoms: C_2  and  C_3
REMARK    3  A    between atoms: C_2  and  C_4
REMARK    4  A    between atoms: C_7  and  C_8
REMARK    5  A    between atoms: C_10  and  O_11
REMARK                            x       y       z     vdW  Elec       q    Type
REMARK                         _______ _______ _______ _____ _____    ______ ____
ROOT
ATOM      1  C   UNL     1      10.003   2.052  23.340  0.00  0.00    -0.003 A 
ATOM      2  C   UNL     1       9.521   1.276  22.280  0.00  0.00    +0.121 A 
ATOM      3  C   UNL     1       9.510  -0.123  22.350  0.00  0.00    +0.049 A 
ATOM      4  C   UNL     1       9.999  -0.780  23.484  0.00  0.00    -0.047 A 
ATOM      5  C   UNL     1      10.067  -2.278  23.512  0.00  0.00    +0.044 C 
ATOM      6  C   UNL     1      10.443  -0.019  24.566  0.00  0.00    +0.004 A 
ATOM      7  C   UNL     1      10.444   1.376  24.494  0.00  0.00    +0.008 A 
ENDROOT
BRANCH   1   9
ATOM      8  C   UNL     1       9.280   4.219  24.325  0.00  0.00    +0.012 C 
ATOM      9  C   UNL     1      10.197   3.562  23.289  0.00  0.00    +0.016 C 
ATOM     10  C   UNL     1      11.632   4.071  23.441  0.00  0.00    +0.012 C 
ENDBRANCH   1   9
BRANCH   2  11
ATOM     11  O   UNL     1       9.087   1.879  21.135  0.00  0.00    -0.506 OA
ATOM     12  H   UNL     1       9.636   2.658  20.961  0.00  0.00    +0.292 HD
ENDBRANCH   2  11
TORSDOF 2
ENDMDL
MODEL 3
REMARK VINA RESULT:      -4.6      1.341      4.171
REMARK  Name = 
REMARK  5 active torsions:
REMARK  status: ('A' for Active; 'I' for Inactive)
REMARK    1  A    between atoms: C_1  and  C_2
REMARK    2  A    between atoms: C_2  and  C_3
REMARK    3  A    between atoms: C_2  and  C_4
REMARK    4  A    between atoms: C_7  and  C_8
REMARK    5  A    between atoms: C_10  and  O_11
REMARK                            x       y       z     vdW  Elec       q    Type
REMARK                         _______ _______ _______ _____ _____    ______ ____
ROOT
ATOM      1  C   UNL     1       9.690  -0.215  23.514  0.00  0.00    -0.003 A 
ATOM      2  C   UNL     1       9.919  -1.526  23.082  0.00  0.00    +0.121 A 
ATOM      3  C   UNL     1       9.559  -2.625  23.872  0.00  0.00    +0.049 A 
ATOM      4  C   UNL     1       8.974  -2.434  25.128  0.00  0.00    -0.047 A 
ATOM      5  C   UNL     1       8.677  -3.614  26.005  0.00  0.00    +0.044 C 
ATOM      6  C   UNL     1       8.700  -1.134  25.554  0.00  0.00    +0.004 A 
ATOM      7  C   UNL     1       9.053  -0.042  24.758  0.00  0.00    +0.008 A 
ENDROOT
BRANCH   1   9
ATOM      8  C   UNL     1       9.152   1.448  21.743  0.00  0.00    +0.012 C 
ATOM      9  C   UNL     1      10.185   1.033  22.795  0.00  0.00    +0.016 C 
ATOM     10  C   UNL     1      10.564   2.224  23.678  0.00  0.00    +0.012 C 
ENDBRANCH   1   9
BRANCH   2  11
ATOM     11  O   UNL     1      10.538  -1.752  21.886  0.00  0.00    -0.506 OA
ATOM     12  H   UNL     1       9.919  -2.202  21.291  0.00  0.00    +0.292 HD
ENDBRANCH   2  11
TORSDOF 2
ENDMDL
MODEL 4
REMARK VINA RESULT:      -4.5      1.469      4.332
REMARK  Name = 
REMARK  5 active torsions:
REMARK  status: ('A' for Active; 'I' for Inactive)
REMARK    1  A    between atoms: C_1  and  C_2
REMARK    2  A    between atoms: C_2  and  C_3
REMARK    3  A    between atoms: C_2  and  C_4
REMARK    4  A    between atoms: C_7  and  C_8
REMARK    5  A    between atoms: C_10  and  O_11
REMARK                            x       y       z     vdW  Elec       q    Type
REMARK                         _______ _______ _______ _____ _____    ______ ____
ROOT
ATOM      1  C   UNL     1       8.999  -0.219  22.873  0.00  0.00    -0.003 A 
ATOM      2  C   UNL     1       9.034  -1.438  22.187  0.00  0.00    +0.121 A 
ATOM      3  C   UNL     1       7.938  -2.309  22.199  0.00  0.00    +0.049 A 
ATOM      4  C   UNL     1       6.781  -1.985  22.915  0.00  0.00    -0.047 A 
ATOM      5  C   UNL     1       5.648  -2.964  22.996  0.00  0.00    +0.044 C 
ATOM      6  C   UNL     1       6.715  -0.753  23.568  0.00  0.00    +0.004 A 
ATOM      7  C   UNL     1       7.809   0.116  23.546  0.00  0.00    +0.008 A 
ENDROOT
BRANCH   1   9
ATOM      8  C   UNL     1      10.035   1.906  22.095  0.00  0.00    +0.012 C 
ATOM      9  C   UNL     1      10.192   0.713  23.044  0.00  0.00    +0.016 C 
ATOM     10  C   UNL     1      10.486   1.192  24.467  0.00  0.00    +0.012 C 
ENDBRANCH   1   9
BRANCH   2  11
ATOM     11  O   UNL     1      10.165  -1.814  21.522  0.00  0.00    -0.506 OA
ATOM     12  H   UNL     1       9.923  -2.112  20.632  0.00  0.00    +0.292 HD
ENDBRANCH   2  11
TORSDOF 2
ENDMDL
MODEL 5
REMARK VINA RESULT:      -4.5      2.565      4.060
REMARK  Name = 
REMARK  5 active torsions:
REMARK  status: ('A' for Active; 'I' for Inactive)
REMARK    1  A    between atoms: C_1  and  C_2
REMARK    2  A    between atoms: C_2  and  C_3
REMARK    3  A    between atoms: C_2  and  C_4
REMARK    4  A    between atoms: C_7  and  C_8
REMARK    5  A    between atoms: C_10  and  O_11
REMARK                            x       y       z     vdW  Elec       q    Type
REMARK                         _______ _______ _______ _____ _____    ______ ____
ROOT
ATOM      1  C   UNL     1       8.064  -3.830  23.400  0.00  0.00    -0.003 A 
ATOM      2  C   UNL     1       9.263  -3.543  24.061  0.00  0.00    +0.121 A 
ATOM      3  C   UNL     1       9.907  -2.311  23.893  0.00  0.00    +0.049 A 
ATOM      4  C   UNL     1       9.370  -1.339  23.042  0.00  0.00    -0.047 A 
ATOM      5  C   UNL     1      10.114  -0.060  22.799  0.00  0.00    +0.044 C 
ATOM      6  C   UNL     1       8.153  -1.594  22.411  0.00  0.00    +0.004 A 
ATOM      7  C   UNL     1       7.510  -2.822  22.588  0.00  0.00    +0.008 A 
ENDROOT
BRANCH   1   9
ATOM      8  C   UNL     1       6.041  -5.077  24.137  0.00  0.00    +0.012 C 
ATOM      9  C   UNL     1       7.379  -5.190  23.400  0.00  0.00    +0.016 C 
ATOM     10  C   UNL     1       7.189  -5.859  22.037  0.00  0.00    +0.012 C 
ENDBRANCH   1   9
BRANCH   2  11
ATOM     11  O   UNL     1       9.847  -4.486  24.856  0.00  0.00    -0.506 OA
ATOM     12  H   UNL     1      10.803  -4.483  24.699  0.00  0.00    +0.292 HD
ENDBRANCH   2  11
TORSDOF 2
ENDMDL
MODEL 6
REMARK VINA RESULT:      -4.4      1.685      2.443
REMARK  Name = 
REMARK  5 active torsions:
REMARK  status: ('A' for Active; 'I' for Inactive)
REMARK    1  A    between atoms: C_1  and  C_2
REMARK    2  A    between atoms: C_2  and  C_3
REMARK    3  A    between atoms: C_2  and  C_4
REMARK    4  A    between atoms: C_7  and  C_8
REMARK    5  A    between atoms: C_10  and  O_11
REMARK                            x       y       z     vdW  Elec       q    Type
REMARK                         _______ _______ _______ _____ _____    ______ ____
ROOT
ATOM      1  C   UNL     1       9.219  -0.356  23.536  0.00  0.00    -0.003 A 
ATOM      2  C   UNL     1       9.473   0.439  24.660  0.00  0.00    +0.121 A 
ATOM      3  C   UNL     1      10.031   1.717  24.534  0.00  0.00    +0.049 A 
ATOM      4  C   UNL     1      10.366   2.225  23.275  0.00  0.00    -0.047 A 
ATOM      5  C   UNL     1      11.047   3.556  23.158  0.00  0.00    +0.044 C 
ATOM      6  C   UNL     1      10.079   1.462  22.142  0.00  0.00    +0.004 A 
ATOM      7  C   UNL     1       9.514   0.191  22.272  0.00  0.00    +0.008 A 
ENDROOT
BRANCH   1   9
ATOM      8  C   UNL     1       8.121  -2.178  22.247  0.00  0.00    +0.012 C 
ATOM      9  C   UNL     1       8.763  -1.808  23.587  0.00  0.00    +0.016 C 
ATOM     10  C   UNL     1       9.819  -2.842  23.983  0.00  0.00    +0.012 C 
ENDBRANCH   1   9
BRANCH   2  11
ATOM     11  O   UNL     1       9.211  -0.044  25.910  0.00  0.00    -0.506 OA
ATOM     12  H   UNL     1      10.033  -0.381  26.296  0.00  0.00    +0.292 HD
ENDBRANCH   2  11
TORSDOF 2
ENDMDL
MODEL 7
REMARK VINA RESULT:      -4.4      2.744      5.328
REMARK  Name = 
REMARK  5 active torsions:
REMARK  status: ('A' for Active; 'I' for Inactive)
REMARK    1  A    between atoms: C_1  and  C_2
REMARK    2  A    between atoms: C_2  and  C_3
REMARK    3  A    between atoms: C_2  and  C_4
REMARK    4  A    between atoms: C_7  and  C_8
REMARK    5  A    between atoms: C_10  and  O_11
REMARK                            x       y       z     vdW  Elec       q    Type
REMARK                         _______ _______ _______ _____ _____    ______ ____
ROOT
ATOM      1  C   UNL     1       8.532   3.856  23.343  0.00  0.00    -0.003 A 
ATOM      2  C   UNL     1       7.723   3.343  22.323  0.00  0.00    +0.121 A 
ATOM      3  C   UNL     1       8.009   2.113  21.718  0.00  0.00    +0.049 A 
ATOM      4  C   UNL     1       9.128   1.372  22.111  0.00  0.00    -0.047 A 
ATOM      5  C   UNL     1       9.476   0.101  21.395  0.00  0.00    +0.044 C 
ATOM      6  C   UNL     1       9.920   1.849  23.156  0.00  0.00    +0.004 A 
ATOM      7  C   UNL     1       9.625   3.073  23.763  0.00  0.00    +0.008 A 
ENDROOT
BRANCH   1   9
ATOM      8  C   UNL     1       8.558   5.153  25.466  0.00  0.00    +0.012 C 
ATOM      9  C   UNL     1       8.389   5.246  23.946  0.00  0.00    +0.016 C 
ATOM     10  C   UNL     1       9.293   6.338  23.370  0.00  0.00    +0.012 C 
ENDBRANCH   1   9
BRANCH   2  11
ATOM     11  O   UNL     1       6.653   4.063  21.874  0.00  0.00    -0.506 OA
ATOM     12  H   UNL     1       6.722   4.163  20.913  0.00  0.00    +0.292 HD
ENDBRANCH   2  11
TORSDOF 2
ENDMDL
MODEL 8
REMARK VINA RESULT:      -4.4      1.576      4.435
REMARK  Name = 
REMARK  5 active torsions:
REMARK  status: ('A' for Active; 'I' for Inactive)
REMARK    1  A    between atoms: C_1  and  C_2
REMARK    2  A    between atoms: C_2  and  C_3
REMARK    3  A    between atoms: C_2  and  C_4
REMARK    4  A    between atoms: C_7  and  C_8
REMARK    5  A    between atoms: C_10  and  O_11
REMARK                            x       y       z     vdW  Elec       q    Type
REMARK                         _______ _______ _______ _____ _____    ______ ____
ROOT
ATOM      1  C   UNL     1       8.899  -0.584  23.567  0.00  0.00    -0.003 A 
ATOM      2  C   UNL     1       7.612  -1.052  23.281  0.00  0.00    +0.121 A 
ATOM      3  C   UNL     1       7.299  -2.414  23.370  0.00  0.00    +0.049 A 
ATOM      4  C   UNL     1       8.277  -3.346  23.733  0.00  0.00    -0.047 A 
ATOM      5  C   UNL     1       7.956  -4.810  23.737  0.00  0.00    +0.044 C 
ATOM      6  C   UNL     1       9.554  -2.889  24.063  0.00  0.00    +0.004 A 
ATOM      7  C   UNL     1       9.859  -1.527  23.981  0.00  0.00    +0.008 A 
ENDROOT
BRANCH   1   9
ATOM      8  C   UNL     1      10.489   1.166  24.341  0.00  0.00    +0.012 C 
ATOM      9  C   UNL     1       9.368   0.848  23.347  0.00  0.00    +0.016 C 
ATOM     10  C   UNL     1       9.789   1.218  21.924  0.00  0.00    +0.012 C 
ENDBRANCH   1   9
BRANCH   2  11
ATOM     11  O   UNL     1       6.644  -0.181  22.871  0.00  0.00    -0.506 OA
ATOM     12  H   UNL     1       6.871   0.148  21.988  0.00  0.00    +0.292 HD
ENDBRANCH   2  11
TORSDOF 2
ENDMDL
MODEL 9
REMARK VINA RESULT:      -4.3      2.150      3.024
REMARK  Name = 
REMARK  5 active torsions:
REMARK  status: ('A' for Active; 'I' for Inactive)
REMARK    1  A    between atoms: C_1  and  C_2
REMARK    2  A    between atoms: C_2  and  C_3
REMARK    3  A    between atoms: C_2  and  C_4
REMARK    4  A    between atoms: C_7  and  C_8
REMARK    5  A    between atoms: C_10  and  O_11
REMARK                            x       y       z     vdW  Elec       q    Type
REMARK                         _______ _______ _______ _____ _____    ______ ____
ROOT
ATOM      1  C   UNL     1       7.602  -1.760  22.635  0.00  0.00    -0.003 A 
ATOM      2  C   UNL     1       7.178  -0.495  23.058  0.00  0.00    +0.121 A 
ATOM      3  C   UNL     1       7.956   0.646  22.826  0.00  0.00    +0.049 A 
ATOM      4  C   UNL     1       9.191   0.543  22.178  0.00  0.00    -0.047 A 
ATOM      5  C   UNL     1      10.058   1.756  22.016  0.00  0.00    +0.044 C 
ATOM      6  C   UNL     1       9.607  -0.705  21.712  0.00  0.00    +0.004 A 
ATOM      7  C   UNL     1       8.823  -1.839  21.938  0.00  0.00    +0.008 A 
ENDROOT
BRANCH   1   9
ATOM      8  C   UNL     1       6.020  -3.488  21.798  0.00  0.00    +0.012 C 
ATOM      9  C   UNL     1       6.900  -3.067  22.978  0.00  0.00    +0.016 C 
ATOM     10  C   UNL     1       7.795  -4.226  23.423  0.00  0.00    +0.012 C 
ENDBRANCH   1   9
BRANCH   2  11
ATOM     11  O   UNL     1       6.004  -0.362  23.742  0.00  0.00    -0.506 OA
ATOM     12  H   UNL     1       6.135   0.261  24.473  0.00  0.00    +0.292 HD
ENDBRANCH   2  11
TORSDOF 2
ENDMDL
