MODEL 1
REMARK VINA RESULT:      -7.5      0.000      0.000
REMARK  Name = 
REMARK  4 active torsions:
REMARK  status: ('A' for Active; 'I' for Inactive)
REMARK    1  A    between atoms: O_1  and  C_2
REMARK    2  A    between atoms: C_5  and  C_6
REMARK    3  A    between atoms: C_6  and  C_7
REMARK    4  A    between atoms: C_13  and  C_16
REMARK                            x       y       z     vdW  Elec       q    Type
REMARK                         _______ _______ _______ _____ _____    ______ ____
ROOT
ATOM      1  C   UNL     1       8.718  -1.463  24.382  0.00  0.00    +0.159 A 
ATOM      2  N   UNL     1       9.108  -0.337  23.687  0.00  0.00    -0.196 N 
ATOM      3  C   UNL     1       9.016  -0.700  22.358  0.00  0.00    +0.178 A 
ATOM      4  C   UNL     1       9.408   0.244  21.396  0.00  0.00    +0.052 A 
ATOM      5  C   UNL     1       9.796   1.461  21.789  0.00  0.00    +0.034 A 
ATOM      6  C   UNL     1       9.778   1.766  23.258  0.00  0.00    +0.092 A 
ATOM      7  N   UNL     1       8.537  -1.917  22.254  0.00  0.00    -0.128 NA
ATOM      8  N   UNL     1       9.465   0.898  24.184  0.00  0.00    -0.163 NA
ATOM      9  N   UNL     1       8.341  -2.397  23.525  0.00  0.00    -0.132 NA
ENDROOT
BRANCH   6  10
ATOM     10  C   UNL     1      10.090   3.187  23.633  0.00  0.00    +0.002 A 
ATOM     11  C   UNL     1      11.318   3.795  23.330  0.00  0.00    +0.010 A 
ATOM     12  C   UNL     1      11.529   5.150  23.613  0.00  0.00    +0.001 A 
ATOM     13  C   UNL     1      10.525   5.902  24.215  0.00  0.00    +0.000 A 
ATOM     14  C   UNL     1       9.315   5.299  24.550  0.00  0.00    +0.001 A 
ATOM     15  C   UNL     1       9.096   3.948  24.263  0.00  0.00    +0.010 A 
ENDBRANCH   6  10
BRANCH   1  16
ATOM     16  C   UNL     1       8.677  -1.572  25.861  0.00  0.00    +0.113 C 
BRANCH  16  20
ATOM     17  C   UNL     1       6.774  -5.214  27.170  0.00  0.00    +0.117 A 
ATOM     18  C   UNL     1       8.125  -5.228  26.838  0.00  0.00    +0.045 A 
ATOM     19  C   UNL     1       8.752  -4.042  26.445  0.00  0.00    +0.007 A 
ATOM     20  C   UNL     1       8.025  -2.842  26.362  0.00  0.00    -0.040 A 
ATOM     21  C   UNL     1       6.671  -2.846  26.739  0.00  0.00    +0.007 A 
ATOM     22  C   UNL     1       6.045  -4.030  27.135  0.00  0.00    +0.045 A 
BRANCH  17  23
ATOM     23  O   UNL     1       6.191  -6.399  27.514  0.00  0.00    -0.507 OA
ATOM     24  H   UNL     1       5.934  -6.862  26.700  0.00  0.00    +0.292 HD
ENDBRANCH  17  23
ENDBRANCH  16  20
ENDBRANCH   1  16
TORSDOF 4
ENDMDL
MODEL 2
REMARK VINA RESULT:      -7.3      2.691      3.217
REMARK  Name = 
REMARK  4 active torsions:
REMARK  status: ('A' for Active; 'I' for Inactive)
REMARK    1  A    between atoms: O_1  and  C_2
REMARK    2  A    between atoms: C_5  and  C_6
REMARK    3  A    between atoms: C_6  and  C_7
REMARK    4  A    between atoms: C_13  and  C_16
REMARK                            x       y       z     vdW  Elec       q    Type
REMARK                         _______ _______ _______ _____ _____    ______ ____
ROOT
ATOM      1  C   UNL     1       8.009  -1.852  23.145  0.00  0.00    +0.159 A 
ATOM      2  N   UNL     1       8.591  -0.629  23.412  0.00  0.00    -0.196 N 
ATOM      3  C   UNL     1       9.826  -0.942  23.944  0.00  0.00    +0.178 A 
ATOM      4  C   UNL     1      10.641   0.119  24.368  0.00  0.00    +0.052 A 
ATOM      5  C   UNL     1      10.225   1.378  24.194  0.00  0.00    +0.034 A 
ATOM      6  C   UNL     1       8.897   1.595  23.530  0.00  0.00    +0.092 A 
ATOM      7  N   UNL     1      10.010  -2.242  23.929  0.00  0.00    -0.128 NA
ATOM      8  N   UNL     1       8.092   0.632  23.166  0.00  0.00    -0.163 NA
ATOM      9  N   UNL     1       8.871  -2.816  23.419  0.00  0.00    -0.132 NA
ENDROOT
BRANCH   6  10
ATOM     10  C   UNL     1       8.542   3.024  23.235  0.00  0.00    +0.002 A 
ATOM     11  C   UNL     1       7.513   3.379  22.348  0.00  0.00    +0.010 A 
ATOM     12  C   UNL     1       7.152   4.721  22.178  0.00  0.00    +0.001 A 
ATOM     13  C   UNL     1       7.826   5.718  22.876  0.00  0.00    +0.000 A 
ATOM     14  C   UNL     1       8.871   5.379  23.733  0.00  0.00    +0.001 A 
ATOM     15  C   UNL     1       9.230   4.040  23.913  0.00  0.00    +0.010 A 
ENDBRANCH   6  10
BRANCH   1  16
ATOM     16  C   UNL     1       6.650  -2.035  22.581  0.00  0.00    +0.113 C 
BRANCH  16  20
ATOM     17  C   UNL     1       5.109  -5.997  23.310  0.00  0.00    +0.117 A 
ATOM     18  C   UNL     1       4.992  -5.024  24.297  0.00  0.00    +0.045 A 
ATOM     19  C   UNL     1       5.461  -3.731  24.051  0.00  0.00    +0.007 A 
ATOM     20  C   UNL     1       6.068  -3.411  22.825  0.00  0.00    -0.040 A 
ATOM     21  C   UNL     1       6.140  -4.399  21.830  0.00  0.00    +0.007 A 
ATOM     22  C   UNL     1       5.668  -5.692  22.073  0.00  0.00    +0.045 A 
BRANCH  17  23
ATOM     23  O   UNL     1       4.673  -7.256  23.602  0.00  0.00    -0.507 OA
ATOM     24  H   UNL     1       3.719  -7.217  23.783  0.00  0.00    +0.292 HD
ENDBRANCH  17  23
ENDBRANCH  16  20
ENDBRANCH   1  16
TORSDOF 4
ENDMDL
MODEL 3
REMARK VINA RESULT:      -7.1      3.561      8.142
REMARK  Name = 
REMARK  4 active torsions:
REMARK  status: ('A' for Active; 'I' for Inactive)
REMARK    1  A    between atoms: O_1  and  C_2
REMARK    2  A    between atoms: C_5  and  C_6
REMARK    3  A    between atoms: C_6  and  C_7
REMARK    4  A    between atoms: C_13  and  C_16
REMARK                            x       y       z     vdW  Elec       q    Type
REMARK                         _______ _______ _______ _____ _____    ______ ____
ROOT
ATOM      1  C   UNL     1       8.792  -2.634  23.201  0.00  0.00    +0.159 A 
ATOM      2  N   UNL     1       7.829  -3.440  23.773  0.00  0.00    -0.196 N 
ATOM      3  C   UNL     1       8.531  -4.271  24.622  0.00  0.00    +0.178 A 
ATOM      4  C   UNL     1       7.810  -5.254  25.316  0.00  0.00    +0.052 A 
ATOM      5  C   UNL     1       6.481  -5.315  25.178  0.00  0.00    +0.034 A 
ATOM      6  C   UNL     1       5.819  -4.305  24.289  0.00  0.00    +0.092 A 
ATOM      7  N   UNL     1       9.803  -3.947  24.623  0.00  0.00    -0.128 NA
ATOM      8  N   UNL     1       6.463  -3.407  23.591  0.00  0.00    -0.163 NA
ATOM      9  N   UNL     1       9.969  -2.912  23.737  0.00  0.00    -0.132 NA
ENDROOT
BRANCH   6  10
ATOM     10  C   UNL     1       4.317  -4.330  24.278  0.00  0.00    +0.002 A 
ATOM     11  C   UNL     1       3.582  -5.147  23.403  0.00  0.00    +0.010 A 
ATOM     12  C   UNL     1       2.187  -5.210  23.494  0.00  0.00    +0.001 A 
ATOM     13  C   UNL     1       1.514  -4.448  24.444  0.00  0.00    +0.000 A 
ATOM     14  C   UNL     1       2.232  -3.610  25.295  0.00  0.00    +0.001 A 
ATOM     15  C   UNL     1       3.626  -3.548  25.213  0.00  0.00    +0.010 A 
ENDBRANCH   6  10
BRANCH   1  16
ATOM     16  C   UNL     1       8.523  -1.584  22.189  0.00  0.00    +0.113 C 
BRANCH  16  20
ATOM     17  C   UNL     1       9.650   2.416  23.345  0.00  0.00    +0.117 A 
ATOM     18  C   UNL     1       8.865   1.650  24.201  0.00  0.00    +0.045 A 
ATOM     19  C   UNL     1       8.526   0.342  23.843  0.00  0.00    +0.007 A 
ATOM     20  C   UNL     1       8.952  -0.198  22.618  0.00  0.00    -0.040 A 
ATOM     21  C   UNL     1       9.776   0.581  21.788  0.00  0.00    +0.007 A 
ATOM     22  C   UNL     1      10.118   1.887  22.146  0.00  0.00    +0.045 A 
BRANCH  17  23
ATOM     23  O   UNL     1       9.929   3.699  23.713  0.00  0.00    -0.507 OA
ATOM     24  H   UNL     1       9.281   3.975  24.382  0.00  0.00    +0.292 HD
ENDBRANCH  17  23
ENDBRANCH  16  20
ENDBRANCH   1  16
TORSDOF 4
ENDMDL
MODEL 4
REMARK VINA RESULT:      -7.1      3.838      9.041
REMARK  Name = 
REMARK  4 active torsions:
REMARK  status: ('A' for Active; 'I' for Inactive)
REMARK    1  A    between atoms: O_1  and  C_2
REMARK    2  A    between atoms: C_5  and  C_6
REMARK    3  A    between atoms: C_6  and  C_7
REMARK    4  A    between atoms: C_13  and  C_16
REMARK                            x       y       z     vdW  Elec       q    Type
REMARK                         _______ _______ _______ _____ _____    ______ ____
ROOT
ATOM      1  C   UNL     1       8.178  -3.263  24.176  0.00  0.00    +0.159 A 
ATOM      2  N   UNL     1       7.307  -4.160  24.761  0.00  0.00    -0.196 N 
ATOM      3  C   UNL     1       7.704  -4.219  26.082  0.00  0.00    +0.178 A 
ATOM      4  C   UNL     1       7.023  -5.106  26.928  0.00  0.00    +0.052 A 
ATOM      5  C   UNL     1       5.992  -5.810  26.450  0.00  0.00    +0.034 A 
ATOM      6  C   UNL     1       5.601  -5.602  25.017  0.00  0.00    +0.092 A 
ATOM      7  N   UNL     1       8.684  -3.372  26.298  0.00  0.00    -0.128 NA
ATOM      8  N   UNL     1       6.242  -4.820  24.188  0.00  0.00    -0.163 NA
ATOM      9  N   UNL     1       8.979  -2.764  25.103  0.00  0.00    -0.132 NA
ENDROOT
BRANCH   6  10
ATOM     10  C   UNL     1       4.355  -6.312  24.570  0.00  0.00    +0.002 A 
ATOM     11  C   UNL     1       3.819  -7.407  25.267  0.00  0.00    +0.010 A 
ATOM     12  C   UNL     1       2.604  -7.977  24.870  0.00  0.00    +0.001 A 
ATOM     13  C   UNL     1       1.925  -7.472  23.765  0.00  0.00    +0.000 A 
ATOM     14  C   UNL     1       2.465  -6.407  23.047  0.00  0.00    +0.001 A 
ATOM     15  C   UNL     1       3.675  -5.829  23.444  0.00  0.00    +0.010 A 
ENDBRANCH   6  10
BRANCH   1  16
ATOM     16  C   UNL     1       8.166  -2.886  22.742  0.00  0.00    +0.113 C 
BRANCH  16  20
ATOM     17  C   UNL     1       8.662   1.321  21.932  0.00  0.00    +0.117 A 
ATOM     18  C   UNL     1       7.514   0.879  22.581  0.00  0.00    +0.045 A 
ATOM     19  C   UNL     1       7.366  -0.479  22.874  0.00  0.00    +0.007 A 
ATOM     20  C   UNL     1       8.355  -1.404  22.500  0.00  0.00    -0.040 A 
ATOM     21  C   UNL     1       9.523  -0.929  21.879  0.00  0.00    +0.007 A 
ATOM     22  C   UNL     1       9.673   0.430  21.589  0.00  0.00    +0.045 A 
BRANCH  17  23
ATOM     23  O   UNL     1       8.753   2.649  21.631  0.00  0.00    -0.507 OA
ATOM     24  H   UNL     1       9.529   2.783  21.062  0.00  0.00    +0.292 HD
ENDBRANCH  17  23
ENDBRANCH  16  20
ENDBRANCH   1  16
TORSDOF 4
ENDMDL
MODEL 5
REMARK VINA RESULT:      -7.0      3.275      3.937
REMARK  Name = 
REMARK  4 active torsions:
REMARK  status: ('A' for Active; 'I' for Inactive)
REMARK    1  A    between atoms: O_1  and  C_2
REMARK    2  A    between atoms: C_5  and  C_6
REMARK    3  A    between atoms: C_6  and  C_7
REMARK    4  A    between atoms: C_13  and  C_16
REMARK                            x       y       z     vdW  Elec       q    Type
REMARK                         _______ _______ _______ _____ _____    ______ ____
ROOT
ATOM      1  C   UNL     1       9.133  -2.250  23.618  0.00  0.00    +0.159 A 
ATOM      2  N   UNL     1       8.814  -0.965  23.229  0.00  0.00    -0.196 N 
ATOM      3  C   UNL     1       9.842  -0.593  22.387  0.00  0.00    +0.178 A 
ATOM      4  C   UNL     1       9.819   0.710  21.867  0.00  0.00    +0.052 A 
ATOM      5  C   UNL     1       8.789   1.514  22.152  0.00  0.00    +0.034 A 
ATOM      6  C   UNL     1       7.688   0.969  23.013  0.00  0.00    +0.092 A 
ATOM      7  N   UNL     1      10.675  -1.593  22.219  0.00  0.00    -0.128 NA
ATOM      8  N   UNL     1       7.700  -0.221  23.554  0.00  0.00    -0.163 NA
ATOM      9  N   UNL     1      10.226  -2.640  22.986  0.00  0.00    -0.132 NA
ENDROOT
BRANCH   6  10
ATOM     10  C   UNL     1       6.494   1.863  23.189  0.00  0.00    +0.002 A 
ATOM     11  C   UNL     1       5.602   1.729  24.265  0.00  0.00    +0.010 A 
ATOM     12  C   UNL     1       4.559   2.645  24.441  0.00  0.00    +0.001 A 
ATOM     13  C   UNL     1       4.386   3.689  23.538  0.00  0.00    +0.000 A 
ATOM     14  C   UNL     1       5.246   3.811  22.448  0.00  0.00    +0.001 A 
ATOM     15  C   UNL     1       6.295   2.903  22.271  0.00  0.00    +0.010 A 
ENDBRANCH   6  10
BRANCH   1  16
ATOM     16  C   UNL     1       8.330  -3.073  24.555  0.00  0.00    +0.113 C 
BRANCH  16  20
ATOM     17  C   UNL     1       5.205  -5.426  22.738  0.00  0.00    +0.117 A 
ATOM     18  C   UNL     1       4.878  -4.248  23.401  0.00  0.00    +0.045 A 
ATOM     19  C   UNL     1       5.892  -3.467  23.963  0.00  0.00    +0.007 A 
ATOM     20  C   UNL     1       7.235  -3.872  23.882  0.00  0.00    -0.040 A 
ATOM     21  C   UNL     1       7.544  -5.045  23.173  0.00  0.00    +0.007 A 
ATOM     22  C   UNL     1       6.531  -5.825  22.609  0.00  0.00    +0.045 A 
BRANCH  17  23
ATOM     23  O   UNL     1       4.184  -6.179  22.235  0.00  0.00    -0.507 OA
ATOM     24  H   UNL     1       3.349  -5.710  22.394  0.00  0.00    +0.292 HD
ENDBRANCH  17  23
ENDBRANCH  16  20
ENDBRANCH   1  16
TORSDOF 4
ENDMDL
MODEL 6
REMARK VINA RESULT:      -7.0      2.473      2.985
REMARK  Name = 
REMARK  4 active torsions:
REMARK  status: ('A' for Active; 'I' for Inactive)
REMARK    1  A    between atoms: O_1  and  C_2
REMARK    2  A    between atoms: C_5  and  C_6
REMARK    3  A    between atoms: C_6  and  C_7
REMARK    4  A    between atoms: C_13  and  C_16
REMARK                            x       y       z     vdW  Elec       q    Type
REMARK                         _______ _______ _______ _____ _____    ______ ____
ROOT
ATOM      1  C   UNL     1       7.661  -1.693  22.741  0.00  0.00    +0.159 A 
ATOM      2  N   UNL     1       7.862  -0.341  22.557  0.00  0.00    -0.196 N 
ATOM      3  C   UNL     1       9.114  -0.251  21.983  0.00  0.00    +0.178 A 
ATOM      4  C   UNL     1       9.622   1.031  21.723  0.00  0.00    +0.052 A 
ATOM      5  C   UNL     1       8.866   2.103  21.982  0.00  0.00    +0.034 A 
ATOM      6  C   UNL     1       7.488   1.876  22.529  0.00  0.00    +0.092 A 
ATOM      7  N   UNL     1       9.600  -1.451  21.767  0.00  0.00    -0.128 NA
ATOM      8  N   UNL     1       7.001   0.700  22.828  0.00  0.00    -0.163 NA
ATOM      9  N   UNL     1       8.684  -2.361  22.236  0.00  0.00    -0.132 NA
ENDROOT
BRANCH   6  10
ATOM     10  C   UNL     1       6.633   3.103  22.672  0.00  0.00    +0.002 A 
ATOM     11  C   UNL     1       7.145   4.402  22.522  0.00  0.00    +0.010 A 
ATOM     12  C   UNL     1       6.292   5.511  22.568  0.00  0.00    +0.001 A 
ATOM     13  C   UNL     1       4.929   5.335  22.781  0.00  0.00    +0.000 A 
ATOM     14  C   UNL     1       4.416   4.053  22.964  0.00  0.00    +0.001 A 
ATOM     15  C   UNL     1       5.261   2.940  22.913  0.00  0.00    +0.010 A 
ENDBRANCH   6  10
BRANCH   1  16
ATOM     16  C   UNL     1       6.452  -2.291  23.359  0.00  0.00    +0.113 C 
BRANCH  16  20
ATOM     17  C   UNL     1       7.408  -5.010  26.568  0.00  0.00    +0.117 A 
ATOM     18  C   UNL     1       7.900  -3.710  26.602  0.00  0.00    +0.045 A 
ATOM     19  C   UNL     1       7.565  -2.817  25.580  0.00  0.00    +0.007 A 
ATOM     20  C   UNL     1       6.754  -3.228  24.509  0.00  0.00    -0.040 A 
ATOM     21  C   UNL     1       6.238  -4.534  24.516  0.00  0.00    +0.007 A 
ATOM     22  C   UNL     1       6.569  -5.426  25.539  0.00  0.00    +0.045 A 
BRANCH  17  23
ATOM     23  O   UNL     1       7.787  -5.861  27.564  0.00  0.00    -0.507 OA
ATOM     24  H   UNL     1       7.072  -6.502  27.710  0.00  0.00    +0.292 HD
ENDBRANCH  17  23
ENDBRANCH  16  20
ENDBRANCH   1  16
TORSDOF 4
ENDMDL
MODEL 7
REMARK VINA RESULT:      -6.9      2.671      3.176
REMARK  Name = 
REMARK  4 active torsions:
REMARK  status: ('A' for Active; 'I' for Inactive)
REMARK    1  A    between atoms: O_1  and  C_2
REMARK    2  A    between atoms: C_5  and  C_6
REMARK    3  A    between atoms: C_6  and  C_7
REMARK    4  A    between atoms: C_13  and  C_16
REMARK                            x       y       z     vdW  Elec       q    Type
REMARK                         _______ _______ _______ _____ _____    ______ ____
ROOT
ATOM      1  C   UNL     1       8.885  -1.292  23.267  0.00  0.00    +0.159 A 
ATOM      2  N   UNL     1       8.988   0.080  23.377  0.00  0.00    -0.196 N 
ATOM      3  C   UNL     1       9.631   0.473  22.220  0.00  0.00    +0.178 A 
ATOM      4  C   UNL     1       9.927   1.836  22.070  0.00  0.00    +0.052 A 
ATOM      5  C   UNL     1       9.532   2.702  23.009  0.00  0.00    +0.034 A 
ATOM      6  C   UNL     1       8.768   2.167  24.184  0.00  0.00    +0.092 A 
ATOM      7  N   UNL     1       9.833  -0.563  21.440  0.00  0.00    -0.128 NA
ATOM      8  N   UNL     1       8.517   0.899  24.380  0.00  0.00    -0.163 NA
ATOM      9  N   UNL     1       9.357  -1.674  22.093  0.00  0.00    -0.132 NA
ENDROOT
BRANCH   6  10
ATOM     10  C   UNL     1       8.231   3.197  25.136  0.00  0.00    +0.002 A 
ATOM     11  C   UNL     1       7.420   2.861  26.232  0.00  0.00    +0.010 A 
ATOM     12  C   UNL     1       7.022   3.842  27.148  0.00  0.00    +0.001 A 
ATOM     13  C   UNL     1       7.414   5.165  26.969  0.00  0.00    +0.000 A 
ATOM     14  C   UNL     1       8.192   5.513  25.867  0.00  0.00    +0.001 A 
ATOM     15  C   UNL     1       8.598   4.537  24.952  0.00  0.00    +0.010 A 
ENDBRANCH   6  10
BRANCH   1  16
ATOM     16  C   UNL     1       8.282  -2.178  24.292  0.00  0.00    +0.113 C 
BRANCH  16  20
ATOM     17  C   UNL     1       5.588  -5.066  22.559  0.00  0.00    +0.117 A 
ATOM     18  C   UNL     1       6.829  -5.482  23.029  0.00  0.00    +0.045 A 
ATOM     19  C   UNL     1       7.690  -4.555  23.621  0.00  0.00    +0.007 A 
ATOM     20  C   UNL     1       7.323  -3.203  23.725  0.00  0.00    -0.040 A 
ATOM     21  C   UNL     1       6.049  -2.813  23.278  0.00  0.00    +0.007 A 
ATOM     22  C   UNL     1       5.186  -3.740  22.689  0.00  0.00    +0.045 A 
BRANCH  17  23
ATOM     23  O   UNL     1       4.791  -5.994  21.955  0.00  0.00    -0.507 OA
ATOM     24  H   UNL     1       4.009  -5.542  21.598  0.00  0.00    +0.292 HD
ENDBRANCH  17  23
ENDBRANCH  16  20
ENDBRANCH   1  16
TORSDOF 4
ENDMDL
MODEL 8
REMARK VINA RESULT:      -6.8      3.183      8.109
REMARK  Name = 
REMARK  4 active torsions:
REMARK  status: ('A' for Active; 'I' for Inactive)
REMARK    1  A    between atoms: O_1  and  C_2
REMARK    2  A    between atoms: C_5  and  C_6
REMARK    3  A    between atoms: C_6  and  C_7
REMARK    4  A    between atoms: C_13  and  C_16
REMARK                            x       y       z     vdW  Elec       q    Type
REMARK                         _______ _______ _______ _____ _____    ______ ____
ROOT
ATOM      1  C   UNL     1       9.095  -1.382  23.849  0.00  0.00    +0.159 A 
ATOM      2  N   UNL     1       8.315  -2.519  23.906  0.00  0.00    -0.196 N 
ATOM      3  C   UNL     1       8.315  -3.004  22.613  0.00  0.00    +0.178 A 
ATOM      4  C   UNL     1       7.547  -4.147  22.347  0.00  0.00    +0.052 A 
ATOM      5  C   UNL     1       6.898  -4.752  23.347  0.00  0.00    +0.034 A 
ATOM      6  C   UNL     1       7.040  -4.178  24.726  0.00  0.00    +0.092 A 
ATOM      7  N   UNL     1       9.091  -2.267  21.853  0.00  0.00    -0.128 NA
ATOM      8  N   UNL     1       7.707  -3.089  25.003  0.00  0.00    -0.163 NA
ATOM      9  N   UNL     1       9.590  -1.250  22.630  0.00  0.00    -0.132 NA
ENDROOT
BRANCH   6  10
ATOM     10  C   UNL     1       6.405  -4.973  25.831  0.00  0.00    +0.002 A 
ATOM     11  C   UNL     1       5.324  -5.842  25.612  0.00  0.00    +0.010 A 
ATOM     12  C   UNL     1       4.827  -6.635  26.653  0.00  0.00    +0.001 A 
ATOM     13  C   UNL     1       5.391  -6.554  27.922  0.00  0.00    +0.000 A 
ATOM     14  C   UNL     1       6.442  -5.671  28.158  0.00  0.00    +0.001 A 
ATOM     15  C   UNL     1       6.947  -4.881  27.120  0.00  0.00    +0.010 A 
ENDBRANCH   6  10
BRANCH   1  16
ATOM     16  C   UNL     1       9.373  -0.490  25.001  0.00  0.00    +0.113 C 
BRANCH  16  20
ATOM     17  C   UNL     1       9.817   3.627  23.795  0.00  0.00    +0.117 A 
ATOM     18  C   UNL     1       8.609   3.197  24.333  0.00  0.00    +0.045 A 
ATOM     19  C   UNL     1       8.473   1.872  24.755  0.00  0.00    +0.007 A 
ATOM     20  C   UNL     1       9.538   0.966  24.621  0.00  0.00    -0.040 A 
ATOM     21  C   UNL     1      10.761   1.433  24.110  0.00  0.00    +0.007 A 
ATOM     22  C   UNL     1      10.899   2.758  23.691  0.00  0.00    +0.045 A 
BRANCH  17  23
ATOM     23  O   UNL     1       9.899   4.918  23.361  0.00  0.00    -0.507 OA
ATOM     24  H   UNL     1      10.184   5.475  24.104  0.00  0.00    +0.292 HD
ENDBRANCH  17  23
ENDBRANCH  16  20
ENDBRANCH   1  16
TORSDOF 4
ENDMDL
MODEL 9
REMARK VINA RESULT:      -6.8      3.806      7.830
REMARK  Name = 
REMARK  4 active torsions:
REMARK  status: ('A' for Active; 'I' for Inactive)
REMARK    1  A    between atoms: O_1  and  C_2
REMARK    2  A    between atoms: C_5  and  C_6
REMARK    3  A    between atoms: C_6  and  C_7
REMARK    4  A    between atoms: C_13  and  C_16
REMARK                            x       y       z     vdW  Elec       q    Type
REMARK                         _______ _______ _______ _____ _____    ______ ____
ROOT
ATOM      1  C   UNL     1       7.628  -0.610  26.683  0.00  0.00    +0.159 A 
ATOM      2  N   UNL     1       6.772  -1.556  26.158  0.00  0.00    -0.196 N 
ATOM      3  C   UNL     1       5.542  -1.253  26.707  0.00  0.00    +0.178 A 
ATOM      4  C   UNL     1       4.462  -2.092  26.391  0.00  0.00    +0.052 A 
ATOM      5  C   UNL     1       4.645  -3.106  25.540  0.00  0.00    +0.034 A 
ATOM      6  C   UNL     1       6.010  -3.288  24.944  0.00  0.00    +0.092 A 
ATOM      7  N   UNL     1       5.628  -0.168  27.441  0.00  0.00    -0.128 NA
ATOM      8  N   UNL     1       7.048  -2.556  25.251  0.00  0.00    -0.163 NA
ATOM      9  N   UNL     1       6.938   0.243  27.421  0.00  0.00    -0.132 NA
ENDROOT
BRANCH   6  10
ATOM     10  C   UNL     1       6.126  -4.354  23.891  0.00  0.00    +0.002 A 
ATOM     11  C   UNL     1       5.004  -4.944  23.288  0.00  0.00    +0.010 A 
ATOM     12  C   UNL     1       5.160  -5.864  22.244  0.00  0.00    +0.001 A 
ATOM     13  C   UNL     1       6.433  -6.214  21.807  0.00  0.00    +0.000 A 
ATOM     14  C   UNL     1       7.554  -5.658  22.422  0.00  0.00    +0.001 A 
ATOM     15  C   UNL     1       7.404  -4.734  23.460  0.00  0.00    +0.010 A 
ENDBRANCH   6  10
BRANCH   1  16
ATOM     16  C   UNL     1       9.083  -0.539  26.403  0.00  0.00    +0.113 C 
BRANCH  16  20
ATOM     17  C   UNL     1       9.939   1.447  22.671  0.00  0.00    +0.117 A 
ATOM     18  C   UNL     1       9.391   2.172  23.723  0.00  0.00    +0.045 A 
ATOM     19  C   UNL     1       9.143   1.539  24.944  0.00  0.00    +0.007 A 
ATOM     20  C   UNL     1       9.422   0.172  25.111  0.00  0.00    -0.040 A 
ATOM     21  C   UNL     1      10.012  -0.531  24.046  0.00  0.00    +0.007 A 
ATOM     22  C   UNL     1      10.263   0.103  22.827  0.00  0.00    +0.045 A 
BRANCH  17  23
ATOM     23  O   UNL     1      10.132   2.092  21.485  0.00  0.00    -0.507 OA
ATOM     24  H   UNL     1      11.007   2.513  21.502  0.00  0.00    +0.292 HD
ENDBRANCH  17  23
ENDBRANCH  16  20
ENDBRANCH   1  16
TORSDOF 4
ENDMDL
