MODEL 1
REMARK VINA RESULT:      -7.1      0.000      0.000
REMARK  Name = 
REMARK  7 active torsions:
REMARK  status: ('A' for Active; 'I' for Inactive)
REMARK    1  A    between atoms: C_2  and  C_4
REMARK    2  A    between atoms: C_4  and  N_22
REMARK    3  A    between atoms: N_7  and  C_8
REMARK    4  A    between atoms: C_8  and  C_9
REMARK    5  A    between atoms: C_9  and  C_10
REMARK    6  A    between atoms: C_10  and  C_11
REMARK    7  A    between atoms: C_11  and  C_13
REMARK                            x       y       z     vdW  Elec       q    Type
REMARK                         _______ _______ _______ _____ _____    ______ ____
ROOT
ATOM      1  C   UNL     1       8.509   1.289  23.372  0.00  0.00    +0.101 C 
ATOM      2  C   UNL     1       9.644   1.259  24.454  0.00  0.00    +0.047 C 
ATOM      3  C   UNL     1      10.324  -0.110  24.556  0.00  0.00    +0.086 C 
ATOM      4  N   UNL     1       9.378  -1.213  24.785  0.00  0.00    -0.302 NA
ATOM      5  C   UNL     1       8.412  -1.260  23.685  0.00  0.00    +0.086 C 
ATOM      6  C   UNL     1       7.624   0.034  23.552  0.00  0.00    +0.047 C 
ENDROOT
BRANCH   1   7
ATOM      7  N   UNL     1       7.706   2.569  23.352  0.00  0.00    -0.289 NA
ATOM      8  C   UNL     1       7.880   3.493  24.476  0.00  0.00    +0.085 C 
ATOM      9  C   UNL     1       7.169   3.013  25.741  0.00  0.00    +0.015 C 
ATOM     10  C   UNL     1       5.682   2.768  25.518  0.00  0.00    +0.002 C 
ATOM     11  C   UNL     1       5.336   2.123  24.175  0.00  0.00    +0.015 C 
ATOM     12  C   UNL     1       6.279   2.500  23.015  0.00  0.00    +0.085 C 
ENDBRANCH   1   7
BRANCH   1  16
ATOM     13  N   UNL     1      10.221   2.225  21.749  0.00  0.00    -0.328 N 
ATOM     14  H   UNL     1      10.669   2.750  22.484  0.00  0.00    +0.145 HD
ATOM     15  H   UNL     1      10.723   2.117  20.877  0.00  0.00    +0.145 HD
ATOM     16  C   UNL     1       9.308   1.245  22.012  0.00  0.00    +0.231 C 
ATOM     17  O   UNL     1       9.160   0.366  21.155  0.00  0.00    -0.274 OA
ENDBRANCH   1  16
BRANCH   4  18
ATOM     18  C   UNL     1       8.766  -1.153  26.125  0.00  0.00    +0.085 C 
BRANCH  18  19
ATOM     19  C   UNL     1       7.878  -2.357  26.452  0.00  0.00    +0.023 C 
BRANCH  19  20
ATOM     20  C   UNL     1       8.693  -3.643  26.540  0.00  0.00    +0.081 C 
BRANCH  20  21
ATOM     21  C   UNL     1       7.816  -4.872  26.483  0.00  0.00    +0.163 C 
ATOM     22  O   UNL     1       7.642  -5.617  27.444  0.00  0.00    -0.292 OA
BRANCH  21  23
ATOM     23  C   UNL     1       7.181  -5.210  25.180  0.00  0.00    +0.018 A 
ATOM     24  C   UNL     1       5.839  -5.622  25.088  0.00  0.00    +0.014 A 
ATOM     25  C   UNL     1       5.288  -5.905  23.839  0.00  0.00    +0.039 A 
ATOM     26  C   UNL     1       6.068  -5.775  22.698  0.00  0.00    +0.123 A 
ATOM     27  F   UNL     1       5.532  -6.035  21.498  0.00  0.00    -0.205 F 
ATOM     28  C   UNL     1       7.400  -5.379  22.778  0.00  0.00    +0.039 A 
ATOM     29  C   UNL     1       7.957  -5.102  24.023  0.00  0.00    +0.014 A 
ENDBRANCH  21  23
ENDBRANCH  20  21
ENDBRANCH  19  20
ENDBRANCH  18  19
ENDBRANCH   4  18
TORSDOF 7
ENDMDL
MODEL 2
REMARK VINA RESULT:      -7.0      4.008      7.604
REMARK  Name = 
REMARK  7 active torsions:
REMARK  status: ('A' for Active; 'I' for Inactive)
REMARK    1  A    between atoms: C_2  and  C_4
REMARK    2  A    between atoms: C_4  and  N_22
REMARK    3  A    between atoms: N_7  and  C_8
REMARK    4  A    between atoms: C_8  and  C_9
REMARK    5  A    between atoms: C_9  and  C_10
REMARK    6  A    between atoms: C_10  and  C_11
REMARK    7  A    between atoms: C_11  and  C_13
REMARK                            x       y       z     vdW  Elec       q    Type
REMARK                         _______ _______ _______ _____ _____    ______ ____
ROOT
ATOM      1  C   UNL     1       5.495  -5.330  25.239  0.00  0.00    +0.101 C 
ATOM      2  C   UNL     1       4.346  -4.325  24.877  0.00  0.00    +0.047 C 
ATOM      3  C   UNL     1       3.827  -4.515  23.447  0.00  0.00    +0.086 C 
ATOM      4  N   UNL     1       4.889  -4.455  22.432  0.00  0.00    -0.302 NA
ATOM      5  C   UNL     1       5.880  -5.499  22.703  0.00  0.00    +0.086 C 
ATOM      6  C   UNL     1       6.515  -5.349  24.077  0.00  0.00    +0.047 C 
ENDROOT
BRANCH   1   7
ATOM      7  N   UNL     1       6.144  -5.072  26.578  0.00  0.00    -0.289 NA
ATOM      8  C   UNL     1       5.927  -3.759  27.193  0.00  0.00    +0.085 C 
ATOM      9  C   UNL     1       6.755  -2.660  26.528  0.00  0.00    +0.015 C 
ATOM     10  C   UNL     1       8.246  -2.972  26.527  0.00  0.00    +0.002 C 
ATOM     11  C   UNL     1       8.590  -4.437  26.254  0.00  0.00    +0.015 C 
ATOM     12  C   UNL     1       7.550  -5.452  26.766  0.00  0.00    +0.085 C 
ENDBRANCH   1   7
BRANCH   1  16
ATOM     13  N   UNL     1       4.272  -7.093  26.594  0.00  0.00    -0.328 N 
ATOM     14  H   UNL     1       4.059  -6.425  27.319  0.00  0.00    +0.145 HD
ATOM     15  H   UNL     1       3.766  -7.969  26.601  0.00  0.00    +0.145 HD
ATOM     16  C   UNL     1       4.740  -6.709  25.370  0.00  0.00    +0.231 C 
ATOM     17  O   UNL     1       4.539  -7.477  24.423  0.00  0.00    -0.274 OA
ENDBRANCH   1  16
BRANCH   4  18
ATOM     18  C   UNL     1       5.458  -3.101  22.299  0.00  0.00    +0.085 C 
BRANCH  18  19
ATOM     19  C   UNL     1       6.983  -3.083  22.168  0.00  0.00    +0.023 C 
BRANCH  19  20
ATOM     20  C   UNL     1       7.603  -1.983  23.023  0.00  0.00    +0.081 C 
BRANCH  20  21
ATOM     21  C   UNL     1       9.022  -1.674  22.607  0.00  0.00    +0.163 C 
ATOM     22  O   UNL     1       9.757  -2.499  22.071  0.00  0.00    -0.292 OA
BRANCH  21  23
ATOM     23  C   UNL     1       9.555  -0.319  22.913  0.00  0.00    +0.018 A 
ATOM     24  C   UNL     1      10.012   0.031  24.197  0.00  0.00    +0.014 A 
ATOM     25  C   UNL     1      10.522   1.309  24.424  0.00  0.00    +0.039 A 
ATOM     26  C   UNL     1      10.576   2.222  23.380  0.00  0.00    +0.123 A 
ATOM     27  F   UNL     1      11.078   3.446  23.598  0.00  0.00    -0.205 F 
ATOM     28  C   UNL     1      10.115   1.891  22.109  0.00  0.00    +0.039 A 
ATOM     29  C   UNL     1       9.599   0.619  21.879  0.00  0.00    +0.014 A 
ENDBRANCH  21  23
ENDBRANCH  20  21
ENDBRANCH  19  20
ENDBRANCH  18  19
ENDBRANCH   4  18
TORSDOF 7
ENDMDL
MODEL 3
REMARK VINA RESULT:      -6.9      3.417      6.796
REMARK  Name = 
REMARK  7 active torsions:
REMARK  status: ('A' for Active; 'I' for Inactive)
REMARK    1  A    between atoms: C_2  and  C_4
REMARK    2  A    between atoms: C_4  and  N_22
REMARK    3  A    between atoms: N_7  and  C_8
REMARK    4  A    between atoms: C_8  and  C_9
REMARK    5  A    between atoms: C_9  and  C_10
REMARK    6  A    between atoms: C_10  and  C_11
REMARK    7  A    between atoms: C_11  and  C_13
REMARK                            x       y       z     vdW  Elec       q    Type
REMARK                         _______ _______ _______ _____ _____    ______ ____
ROOT
ATOM      1  C   UNL     1       6.194  -4.462  24.930  0.00  0.00    +0.101 C 
ATOM      2  C   UNL     1       6.737  -3.791  26.239  0.00  0.00    +0.047 C 
ATOM      3  C   UNL     1       5.614  -3.297  27.158  0.00  0.00    +0.086 C 
ATOM      4  N   UNL     1       4.667  -2.396  26.484  0.00  0.00    -0.302 NA
ATOM      5  C   UNL     1       4.060  -3.092  25.347  0.00  0.00    +0.086 C 
ATOM      6  C   UNL     1       5.094  -3.554  24.332  0.00  0.00    +0.047 C 
ENDROOT
BRANCH   1   7
ATOM      7  N   UNL     1       7.265  -4.816  23.926  0.00  0.00    -0.289 NA
ATOM      8  C   UNL     1       8.601  -5.128  24.443  0.00  0.00    +0.085 C 
ATOM      9  C   UNL     1       9.363  -3.879  24.885  0.00  0.00    +0.015 C 
ATOM     10  C   UNL     1       9.485  -2.847  23.771  0.00  0.00    +0.002 C 
ATOM     11  C   UNL     1       8.236  -2.694  22.903  0.00  0.00    +0.015 C 
ATOM     12  C   UNL     1       7.410  -3.983  22.725  0.00  0.00    +0.085 C 
ENDBRANCH   1   7
BRANCH   1  16
ATOM     13  N   UNL     1       4.649  -6.462  24.696  0.00  0.00    -0.328 N 
ATOM     14  H   UNL     1       4.566  -6.314  23.702  0.00  0.00    +0.145 HD
ATOM     15  H   UNL     1       4.338  -7.351  25.066  0.00  0.00    +0.145 HD
ATOM     16  C   UNL     1       5.600  -5.829  25.446  0.00  0.00    +0.231 C 
ATOM     17  O   UNL     1       5.944  -6.376  26.500  0.00  0.00    -0.274 OA
ENDBRANCH   1  16
BRANCH   4  18
ATOM     18  C   UNL     1       5.279  -1.099  26.141  0.00  0.00    +0.085 C 
BRANCH  18  19
ATOM     19  C   UNL     1       5.768  -0.307  27.357  0.00  0.00    +0.023 C 
BRANCH  19  20
ATOM     20  C   UNL     1       6.892   0.652  26.982  0.00  0.00    +0.081 C 
BRANCH  20  21
ATOM     21  C   UNL     1       8.121  -0.080  26.496  0.00  0.00    +0.163 C 
ATOM     22  O   UNL     1       8.645  -0.998  27.120  0.00  0.00    -0.292 OA
BRANCH  21  23
ATOM     23  C   UNL     1       8.743   0.380  25.225  0.00  0.00    +0.018 A 
ATOM     24  C   UNL     1      10.138   0.425  25.049  0.00  0.00    +0.014 A 
ATOM     25  C   UNL     1      10.668   0.843  23.828  0.00  0.00    +0.039 A 
ATOM     26  C   UNL     1       9.812   1.209  22.798  0.00  0.00    +0.123 A 
ATOM     27  F   UNL     1      10.323   1.598  21.622  0.00  0.00    -0.205 F 
ATOM     28  C   UNL     1       8.430   1.179  22.964  0.00  0.00    +0.039 A 
ATOM     29  C   UNL     1       7.897   0.769  24.183  0.00  0.00    +0.014 A 
ENDBRANCH  21  23
ENDBRANCH  20  21
ENDBRANCH  19  20
ENDBRANCH  18  19
ENDBRANCH   4  18
TORSDOF 7
ENDMDL
MODEL 4
REMARK VINA RESULT:      -6.9      3.219      7.726
REMARK  Name = 
REMARK  7 active torsions:
REMARK  status: ('A' for Active; 'I' for Inactive)
REMARK    1  A    between atoms: C_2  and  C_4
REMARK    2  A    between atoms: C_4  and  N_22
REMARK    3  A    between atoms: N_7  and  C_8
REMARK    4  A    between atoms: C_8  and  C_9
REMARK    5  A    between atoms: C_9  and  C_10
REMARK    6  A    between atoms: C_10  and  C_11
REMARK    7  A    between atoms: C_11  and  C_13
REMARK                            x       y       z     vdW  Elec       q    Type
REMARK                         _______ _______ _______ _____ _____    ______ ____
ROOT
ATOM      1  C   UNL     1       7.049  -4.516  25.011  0.00  0.00    +0.101 C 
ATOM      2  C   UNL     1       8.364  -4.526  24.157  0.00  0.00    +0.047 C 
ATOM      3  C   UNL     1       9.232  -3.286  24.397  0.00  0.00    +0.086 C 
ATOM      4  N   UNL     1       8.508  -2.023  24.193  0.00  0.00    -0.302 NA
ATOM      5  C   UNL     1       7.363  -1.966  25.105  0.00  0.00    +0.086 C 
ATOM      6  C   UNL     1       6.395  -3.120  24.889  0.00  0.00    +0.047 C 
ENDROOT
BRANCH   1   7
ATOM      7  N   UNL     1       6.090  -5.637  24.686  0.00  0.00    -0.289 NA
ATOM      8  C   UNL     1       5.812  -5.899  23.271  0.00  0.00    +0.085 C 
ATOM      9  C   UNL     1       4.875  -4.859  22.658  0.00  0.00    +0.015 C 
ATOM     10  C   UNL     1       3.558  -4.742  23.415  0.00  0.00    +0.002 C 
ATOM     11  C   UNL     1       3.687  -4.829  24.936  0.00  0.00    +0.015 C 
ATOM     12  C   UNL     1       4.833  -5.730  25.438  0.00  0.00    +0.085 C 
ENDBRANCH   1   7
BRANCH   1  16
ATOM     13  N   UNL     1       8.561  -5.705  26.666  0.00  0.00    -0.328 N 
ATOM     14  H   UNL     1       9.213  -5.946  25.936  0.00  0.00    +0.145 HD
ATOM     15  H   UNL     1       8.872  -5.803  27.624  0.00  0.00    +0.145 HD
ATOM     16  C   UNL     1       7.568  -4.787  26.476  0.00  0.00    +0.231 C 
ATOM     17  O   UNL     1       7.130  -4.213  27.480  0.00  0.00    -0.274 OA
ENDBRANCH   1  16
BRANCH   4  18
ATOM     18  C   UNL     1       8.163  -1.800  22.776  0.00  0.00    +0.085 C 
BRANCH  18  19
ATOM     19  C   UNL     1       9.376  -1.533  21.881  0.00  0.00    +0.023 C 
BRANCH  19  20
ATOM     20  C   UNL     1       9.460  -0.065  21.479  0.00  0.00    +0.081 C 
BRANCH  20  21
ATOM     21  C   UNL     1       9.906   0.811  22.626  0.00  0.00    +0.163 C 
ATOM     22  O   UNL     1      10.756   0.466  23.442  0.00  0.00    -0.292 OA
BRANCH  21  23
ATOM     23  C   UNL     1       9.238   2.131  22.789  0.00  0.00    +0.018 A 
ATOM     24  C   UNL     1       8.061   2.464  22.094  0.00  0.00    +0.014 A 
ATOM     25  C   UNL     1       7.464   3.706  22.300  0.00  0.00    +0.039 A 
ATOM     26  C   UNL     1       8.036   4.603  23.193  0.00  0.00    +0.123 A 
ATOM     27  F   UNL     1       7.453   5.792  23.399  0.00  0.00    -0.205 F 
ATOM     28  C   UNL     1       9.207   4.290  23.877  0.00  0.00    +0.039 A 
ATOM     29  C   UNL     1       9.810   3.053  23.669  0.00  0.00    +0.014 A 
ENDBRANCH  21  23
ENDBRANCH  20  21
ENDBRANCH  19  20
ENDBRANCH  18  19
ENDBRANCH   4  18
TORSDOF 7
ENDMDL
MODEL 5
REMARK VINA RESULT:      -6.8      2.684      7.154
REMARK  Name = 
REMARK  7 active torsions:
REMARK  status: ('A' for Active; 'I' for Inactive)
REMARK    1  A    between atoms: C_2  and  C_4
REMARK    2  A    between atoms: C_4  and  N_22
REMARK    3  A    between atoms: N_7  and  C_8
REMARK    4  A    between atoms: C_8  and  C_9
REMARK    5  A    between atoms: C_9  and  C_10
REMARK    6  A    between atoms: C_10  and  C_11
REMARK    7  A    between atoms: C_11  and  C_13
REMARK                            x       y       z     vdW  Elec       q    Type
REMARK                         _______ _______ _______ _____ _____    ______ ____
ROOT
ATOM      1  C   UNL     1       7.128  -4.681  25.140  0.00  0.00    +0.101 C 
ATOM      2  C   UNL     1       8.546  -4.948  24.526  0.00  0.00    +0.047 C 
ATOM      3  C   UNL     1       9.539  -3.819  24.822  0.00  0.00    +0.086 C 
ATOM      4  N   UNL     1       9.051  -2.494  24.409  0.00  0.00    -0.302 NA
ATOM      5  C   UNL     1       7.797  -2.199  25.105  0.00  0.00    +0.086 C 
ATOM      6  C   UNL     1       6.716  -3.228  24.810  0.00  0.00    +0.047 C 
ENDROOT
BRANCH   1   7
ATOM      7  N   UNL     1       6.078  -5.689  24.736  0.00  0.00    -0.289 NA
ATOM      8  C   UNL     1       5.766  -5.804  23.308  0.00  0.00    +0.085 C 
ATOM      9  C   UNL     1       4.911  -4.643  22.802  0.00  0.00    +0.015 C 
ATOM     10  C   UNL     1       3.616  -4.486  23.588  0.00  0.00    +0.002 C 
ATOM     11  C   UNL     1       3.751  -4.715  25.094  0.00  0.00    +0.015 C 
ATOM     12  C   UNL     1       4.825  -5.745  25.498  0.00  0.00    +0.085 C 
ENDBRANCH   1   7
BRANCH   1  16
ATOM     13  N   UNL     1       8.094  -5.950  27.114  0.00  0.00    -0.328 N 
ATOM     14  H   UNL     1       8.775  -6.401  26.523  0.00  0.00    +0.145 HD
ATOM     15  H   UNL     1       8.236  -5.998  28.114  0.00  0.00    +0.145 HD
ATOM     16  C   UNL     1       7.362  -4.879  26.688  0.00  0.00    +0.231 C 
ATOM     17  O   UNL     1       6.920  -4.117  27.555  0.00  0.00    -0.274 OA
ENDBRANCH   1  16
BRANCH   4  18
ATOM     18  C   UNL     1       8.974  -2.362  22.942  0.00  0.00    +0.085 C 
BRANCH  18  19
ATOM     19  C   UNL     1      10.068  -1.474  22.344  0.00  0.00    +0.023 C 
BRANCH  19  20
ATOM     20  C   UNL     1       9.476  -0.379  21.463  0.00  0.00    +0.081 C 
BRANCH  20  21
ATOM     21  C   UNL     1       9.435   0.956  22.170  0.00  0.00    +0.163 C 
ATOM     22  O   UNL     1      10.184   1.888  21.887  0.00  0.00    -0.292 OA
BRANCH  21  23
ATOM     23  C   UNL     1       8.472   1.115  23.293  0.00  0.00    +0.018 A 
ATOM     24  C   UNL     1       8.891   1.438  24.596  0.00  0.00    +0.014 A 
ATOM     25  C   UNL     1       7.944   1.597  25.608  0.00  0.00    +0.039 A 
ATOM     26  C   UNL     1       6.596   1.437  25.317  0.00  0.00    +0.123 A 
ATOM     27  F   UNL     1       5.687   1.603  26.288  0.00  0.00    -0.205 F 
ATOM     28  C   UNL     1       6.171   1.105  24.034  0.00  0.00    +0.039 A 
ATOM     29  C   UNL     1       7.113   0.939  23.023  0.00  0.00    +0.014 A 
ENDBRANCH  21  23
ENDBRANCH  20  21
ENDBRANCH  19  20
ENDBRANCH  18  19
ENDBRANCH   4  18
TORSDOF 7
ENDMDL
MODEL 6
REMARK VINA RESULT:      -6.8      2.775      6.666
REMARK  Name = 
REMARK  7 active torsions:
REMARK  status: ('A' for Active; 'I' for Inactive)
REMARK    1  A    between atoms: C_2  and  C_4
REMARK    2  A    between atoms: C_4  and  N_22
REMARK    3  A    between atoms: N_7  and  C_8
REMARK    4  A    between atoms: C_8  and  C_9
REMARK    5  A    between atoms: C_9  and  C_10
REMARK    6  A    between atoms: C_10  and  C_11
REMARK    7  A    between atoms: C_11  and  C_13
REMARK                            x       y       z     vdW  Elec       q    Type
REMARK                         _______ _______ _______ _____ _____    ______ ____
ROOT
ATOM      1  C   UNL     1       6.999  -4.313  25.589  0.00  0.00    +0.101 C 
ATOM      2  C   UNL     1       7.780  -2.992  25.265  0.00  0.00    +0.047 C 
ATOM      3  C   UNL     1       7.724  -1.978  26.413  0.00  0.00    +0.086 C 
ATOM      4  N   UNL     1       6.354  -1.662  26.843  0.00  0.00    -0.302 NA
ATOM      5  C   UNL     1       5.687  -2.891  27.281  0.00  0.00    +0.086 C 
ATOM      6  C   UNL     1       5.621  -3.937  26.179  0.00  0.00    +0.047 C 
ENDROOT
BRANCH   1   7
ATOM      7  N   UNL     1       6.893  -5.271  24.426  0.00  0.00    -0.289 NA
ATOM      8  C   UNL     1       7.771  -5.038  23.276  0.00  0.00    +0.085 C 
ATOM      9  C   UNL     1       7.304  -3.866  22.413  0.00  0.00    +0.015 C 
ATOM     10  C   UNL     1       5.871  -4.036  21.924  0.00  0.00    +0.002 C 
ATOM     11  C   UNL     1       4.913  -4.636  22.954  0.00  0.00    +0.015 C 
ATOM     12  C   UNL     1       5.559  -5.636  23.933  0.00  0.00    +0.085 C 
ENDBRANCH   1   7
BRANCH   1  16
ATOM     13  N   UNL     1       9.272  -4.894  26.558  0.00  0.00    -0.328 N 
ATOM     14  H   UNL     1       9.703  -4.118  26.081  0.00  0.00    +0.145 HD
ATOM     15  H   UNL     1       9.798  -5.340  27.299  0.00  0.00    +0.145 HD
ATOM     16  C   UNL     1       7.916  -5.018  26.663  0.00  0.00    +0.231 C 
ATOM     17  O   UNL     1       7.481  -5.686  27.608  0.00  0.00    -0.274 OA
ENDBRANCH   1  16
BRANCH   4  18
ATOM     18  C   UNL     1       5.610  -0.903  25.821  0.00  0.00    +0.085 C 
BRANCH  18  19
ATOM     19  C   UNL     1       5.547   0.602  26.094  0.00  0.00    +0.023 C 
BRANCH  19  20
ATOM     20  C   UNL     1       5.864   1.410  24.840  0.00  0.00    +0.081 C 
BRANCH  20  21
ATOM     21  C   UNL     1       7.322   1.800  24.773  0.00  0.00    +0.163 C 
ATOM     22  O   UNL     1       7.751   2.867  25.201  0.00  0.00    -0.292 OA
BRANCH  21  23
ATOM     23  C   UNL     1       8.261   0.856  24.107  0.00  0.00    +0.018 A 
ATOM     24  C   UNL     1       7.908   0.147  22.944  0.00  0.00    +0.014 A 
ATOM     25  C   UNL     1       8.834  -0.708  22.348  0.00  0.00    +0.039 A 
ATOM     26  C   UNL     1      10.097  -0.850  22.908  0.00  0.00    +0.123 A 
ATOM     27  F   UNL     1      10.989  -1.664  22.326  0.00  0.00    -0.205 F 
ATOM     28  C   UNL     1      10.453  -0.163  24.065  0.00  0.00    +0.039 A 
ATOM     29  C   UNL     1       9.530   0.686  24.667  0.00  0.00    +0.014 A 
ENDBRANCH  21  23
ENDBRANCH  20  21
ENDBRANCH  19  20
ENDBRANCH  18  19
ENDBRANCH   4  18
TORSDOF 7
ENDMDL
MODEL 7
REMARK VINA RESULT:      -6.8      2.116      3.668
REMARK  Name = 
REMARK  7 active torsions:
REMARK  status: ('A' for Active; 'I' for Inactive)
REMARK    1  A    between atoms: C_2  and  C_4
REMARK    2  A    between atoms: C_4  and  N_22
REMARK    3  A    between atoms: N_7  and  C_8
REMARK    4  A    between atoms: C_8  and  C_9
REMARK    5  A    between atoms: C_9  and  C_10
REMARK    6  A    between atoms: C_10  and  C_11
REMARK    7  A    between atoms: C_11  and  C_13
REMARK                            x       y       z     vdW  Elec       q    Type
REMARK                         _______ _______ _______ _____ _____    ______ ____
ROOT
ATOM      1  C   UNL     1       8.306   1.463  23.446  0.00  0.00    +0.101 C 
ATOM      2  C   UNL     1       7.099   0.478  23.628  0.00  0.00    +0.047 C 
ATOM      3  C   UNL     1       5.991   1.061  24.512  0.00  0.00    +0.086 C 
ATOM      4  N   UNL     1       6.475   1.515  25.825  0.00  0.00    -0.302 NA
ATOM      5  C   UNL     1       7.501   2.542  25.636  0.00  0.00    +0.086 C 
ATOM      6  C   UNL     1       8.688   2.033  24.832  0.00  0.00    +0.047 C 
ENDROOT
BRANCH   1   7
ATOM      7  N   UNL     1       9.487   0.867  22.717  0.00  0.00    -0.289 NA
ATOM      8  C   UNL     1       9.206   0.017  21.557  0.00  0.00    +0.085 C 
ATOM      9  C   UNL     1       8.696  -1.367  21.957  0.00  0.00    +0.015 C 
ATOM     10  C   UNL     1       9.654  -2.095  22.891  0.00  0.00    +0.002 C 
ATOM     11  C   UNL     1      10.314  -1.206  23.946  0.00  0.00    +0.015 C 
ATOM     12  C   UNL     1      10.562   0.249  23.503  0.00  0.00    +0.085 C 
ENDBRANCH   1   7
BRANCH   1  16
ATOM     13  N   UNL     1       8.368   3.781  22.413  0.00  0.00    -0.328 N 
ATOM     14  H   UNL     1       9.352   3.873  22.616  0.00  0.00    +0.145 HD
ATOM     15  H   UNL     1       7.960   4.439  21.763  0.00  0.00    +0.145 HD
ATOM     16  C   UNL     1       7.720   2.582  22.501  0.00  0.00    +0.231 C 
ATOM     17  O   UNL     1       6.695   2.443  21.823  0.00  0.00    -0.274 OA
ENDBRANCH   1  16
BRANCH   4  18
ATOM     18  C   UNL     1       6.895   0.391  26.683  0.00  0.00    +0.085 C 
BRANCH  18  19
ATOM     19  C   UNL     1       5.792  -0.640  26.933  0.00  0.00    +0.023 C 
BRANCH  19  20
ATOM     20  C   UNL     1       6.180  -2.013  26.394  0.00  0.00    +0.081 C 
BRANCH  20  21
ATOM     21  C   UNL     1       5.272  -2.457  25.271  0.00  0.00    +0.163 C 
ATOM     22  O   UNL     1       4.076  -2.181  25.227  0.00  0.00    -0.292 OA
BRANCH  21  23
ATOM     23  C   UNL     1       5.858  -3.310  24.203  0.00  0.00    +0.018 A 
ATOM     24  C   UNL     1       5.414  -3.249  22.869  0.00  0.00    +0.014 A 
ATOM     25  C   UNL     1       6.013  -4.055  21.903  0.00  0.00    +0.039 A 
ATOM     26  C   UNL     1       7.046  -4.910  22.266  0.00  0.00    +0.123 A 
ATOM     27  F   UNL     1       7.629  -5.675  21.332  0.00  0.00    -0.205 F 
ATOM     28  C   UNL     1       7.486  -4.988  23.584  0.00  0.00    +0.039 A 
ATOM     29  C   UNL     1       6.886  -4.190  24.553  0.00  0.00    +0.014 A 
ENDBRANCH  21  23
ENDBRANCH  20  21
ENDBRANCH  19  20
ENDBRANCH  18  19
ENDBRANCH   4  18
TORSDOF 7
ENDMDL
MODEL 8
REMARK VINA RESULT:      -6.7      3.483      7.325
REMARK  Name = 
REMARK  7 active torsions:
REMARK  status: ('A' for Active; 'I' for Inactive)
REMARK    1  A    between atoms: C_2  and  C_4
REMARK    2  A    between atoms: C_4  and  N_22
REMARK    3  A    between atoms: N_7  and  C_8
REMARK    4  A    between atoms: C_8  and  C_9
REMARK    5  A    between atoms: C_9  and  C_10
REMARK    6  A    between atoms: C_10  and  C_11
REMARK    7  A    between atoms: C_11  and  C_13
REMARK                            x       y       z     vdW  Elec       q    Type
REMARK                         _______ _______ _______ _____ _____    ______ ____
ROOT
ATOM      1  C   UNL     1       5.386  -4.680  24.115  0.00  0.00    +0.101 C 
ATOM      2  C   UNL     1       5.232  -3.184  23.671  0.00  0.00    +0.047 C 
ATOM      3  C   UNL     1       6.116  -2.831  22.470  0.00  0.00    +0.086 C 
ATOM      4  N   UNL     1       7.536  -3.152  22.681  0.00  0.00    -0.302 NA
ATOM      5  C   UNL     1       7.675  -4.585  22.950  0.00  0.00    +0.086 C 
ATOM      6  C   UNL     1       6.892  -5.021  24.180  0.00  0.00    +0.047 C 
ENDROOT
BRANCH   1   7
ATOM      7  N   UNL     1       4.656  -5.025  25.392  0.00  0.00    -0.289 NA
ATOM      8  C   UNL     1       4.320  -3.923  26.298  0.00  0.00    +0.085 C 
ATOM      9  C   UNL     1       5.534  -3.415  27.075  0.00  0.00    +0.015 C 
ATOM     10  C   UNL     1       6.225  -4.519  27.864  0.00  0.00    +0.002 C 
ATOM     11  C   UNL     1       6.309  -5.864  27.141  0.00  0.00    +0.015 C 
ATOM     12  C   UNL     1       5.132  -6.162  26.191  0.00  0.00    +0.085 C 
ENDBRANCH   1   7
BRANCH   1  16
ATOM     13  N   UNL     1       5.351  -6.442  22.290  0.00  0.00    -0.328 N 
ATOM     14  H   UNL     1       6.139  -6.920  22.700  0.00  0.00    +0.145 HD
ATOM     15  H   UNL     1       4.817  -6.937  21.587  0.00  0.00    +0.145 HD
ATOM     16  C   UNL     1       4.661  -5.474  22.961  0.00  0.00    +0.231 C 
ATOM     17  O   UNL     1       3.490  -5.276  22.619  0.00  0.00    -0.274 OA
ENDBRANCH   1  16
BRANCH   4  18
ATOM     18  C   UNL     1       8.159  -2.283  23.696  0.00  0.00    +0.085 C 
BRANCH  18  19
ATOM     19  C   UNL     1       9.685  -2.391  23.748  0.00  0.00    +0.023 C 
BRANCH  19  20
ATOM     20  C   UNL     1      10.351  -1.271  22.955  0.00  0.00    +0.081 C 
BRANCH  20  21
ATOM     21  C   UNL     1      10.332   0.041  23.705  0.00  0.00    +0.163 C 
ATOM     22  O   UNL     1      10.955   0.227  24.746  0.00  0.00    -0.292 OA
BRANCH  21  23
ATOM     23  C   UNL     1       9.473   1.131  23.169  0.00  0.00    +0.018 A 
ATOM     24  C   UNL     1       8.738   0.987  21.978  0.00  0.00    +0.014 A 
ATOM     25  C   UNL     1       7.931   2.033  21.533  0.00  0.00    +0.039 A 
ATOM     26  C   UNL     1       7.859   3.207  22.271  0.00  0.00    +0.123 A 
ATOM     27  F   UNL     1       7.073   4.207  21.847  0.00  0.00    -0.205 F 
ATOM     28  C   UNL     1       8.591   3.366  23.444  0.00  0.00    +0.039 A 
ATOM     29  C   UNL     1       9.403   2.327  23.889  0.00  0.00    +0.014 A 
ENDBRANCH  21  23
ENDBRANCH  20  21
ENDBRANCH  19  20
ENDBRANCH  18  19
ENDBRANCH   4  18
TORSDOF 7
ENDMDL
MODEL 9
REMARK VINA RESULT:      -6.5      2.340      3.172
REMARK  Name = 
REMARK  7 active torsions:
REMARK  status: ('A' for Active; 'I' for Inactive)
REMARK    1  A    between atoms: C_2  and  C_4
REMARK    2  A    between atoms: C_4  and  N_22
REMARK    3  A    between atoms: N_7  and  C_8
REMARK    4  A    between atoms: C_8  and  C_9
REMARK    5  A    between atoms: C_9  and  C_10
REMARK    6  A    between atoms: C_10  and  C_11
REMARK    7  A    between atoms: C_11  and  C_13
REMARK                            x       y       z     vdW  Elec       q    Type
REMARK                         _______ _______ _______ _____ _____    ______ ____
ROOT
ATOM      1  C   UNL     1       7.788   2.121  23.598  0.00  0.00    +0.101 C 
ATOM      2  C   UNL     1       9.268   2.415  24.027  0.00  0.00    +0.047 C 
ATOM      3  C   UNL     1      10.264   2.226  22.878  0.00  0.00    +0.086 C 
ATOM      4  N   UNL     1      10.175   0.901  22.245  0.00  0.00    -0.302 NA
ATOM      5  C   UNL     1       8.823   0.704  21.719  0.00  0.00    +0.086 C 
ATOM      6  C   UNL     1       7.762   0.794  22.805  0.00  0.00    +0.047 C 
ENDROOT
BRANCH   1   7
ATOM      7  N   UNL     1       6.798   2.138  24.738  0.00  0.00    -0.289 NA
ATOM      8  C   UNL     1       7.324   1.955  26.094  0.00  0.00    +0.085 C 
ATOM      9  C   UNL     1       7.702   0.503  26.383  0.00  0.00    +0.015 C 
ATOM     10  C   UNL     1       6.540  -0.457  26.163  0.00  0.00    +0.002 C 
ATOM     11  C   UNL     1       5.670  -0.138  24.946  0.00  0.00    +0.015 C 
ATOM     12  C   UNL     1       5.558   1.362  24.606  0.00  0.00    +0.085 C 
ENDBRANCH   1   7
BRANCH   1  16
ATOM     13  N   UNL     1       8.088   4.533  22.868  0.00  0.00    -0.328 N 
ATOM     14  H   UNL     1       9.005   4.573  23.287  0.00  0.00    +0.145 HD
ATOM     15  H   UNL     1       7.835   5.270  22.222  0.00  0.00    +0.145 HD
ATOM     16  C   UNL     1       7.429   3.352  22.679  0.00  0.00    +0.231 C 
ATOM     17  O   UNL     1       6.577   3.318  21.784  0.00  0.00    -0.274 OA
ENDBRANCH   1  16
BRANCH   4  18
ATOM     18  C   UNL     1      10.640  -0.176  23.139  0.00  0.00    +0.085 C 
BRANCH  18  19
ATOM     19  C   UNL     1      10.363  -1.583  22.604  0.00  0.00    +0.023 C 
BRANCH  19  20
ATOM     20  C   UNL     1       9.830  -2.501  23.699  0.00  0.00    +0.081 C 
BRANCH  20  21
ATOM     21  C   UNL     1       8.427  -2.976  23.405  0.00  0.00    +0.163 C 
ATOM     22  O   UNL     1       7.817  -2.675  22.383  0.00  0.00    -0.292 OA
BRANCH  21  23
ATOM     23  C   UNL     1       7.747  -3.806  24.436  0.00  0.00    +0.018 A 
ATOM     24  C   UNL     1       6.358  -4.031  24.418  0.00  0.00    +0.014 A 
ATOM     25  C   UNL     1       5.775  -4.835  25.396  0.00  0.00    +0.039 A 
ATOM     26  C   UNL     1       6.571  -5.409  26.378  0.00  0.00    +0.123 A 
ATOM     27  F   UNL     1       6.010  -6.192  27.310  0.00  0.00    -0.205 F 
ATOM     28  C   UNL     1       7.945  -5.184  26.413  0.00  0.00    +0.039 A 
ATOM     29  C   UNL     1       8.530  -4.377  25.443  0.00  0.00    +0.014 A 
ENDBRANCH  21  23
ENDBRANCH  20  21
ENDBRANCH  19  20
ENDBRANCH  18  19
ENDBRANCH   4  18
TORSDOF 7
ENDMDL
