MODEL 1
REMARK VINA RESULT:      -6.2      0.000      0.000
REMARK  Name = 
REMARK  5 active torsions:
REMARK  status: ('A' for Active; 'I' for Inactive)
REMARK    1  A    between atoms: N1_6  and  C1*_9
REMARK    2  A    between atoms: C4*_12  and  C5*_14
REMARK    3  A    between atoms: C5*_14  and  O5*_15
REMARK    4  A    between atoms: C3*_16  and  O3*_18
REMARK    5  A    between atoms: C2*_19  and  O2*_21
REMARK                            x       y       z     vdW  Elec       q    Type
REMARK                         _______ _______ _______ _____ _____    ______ ____
ROOT
ATOM      1  C1*   C A   1       7.933  -4.714  24.301  0.00  0.00    +0.255 C 
ATOM      2  C2*   C A   1       8.672  -5.508  25.398  0.00  0.00    +0.195 C 
ATOM      3  C3*   C A   1       8.211  -4.888  26.714  0.00  0.00    +0.178 C 
ATOM      4  C4*   C A   1       6.972  -4.080  26.353  0.00  0.00    +0.177 C 
ATOM      5  O4*   C A   1       6.699  -4.344  24.965  0.00  0.00    -0.346 OA
ENDROOT
BRANCH   1  12
ATOM      6  N4    C A   1       9.860  -0.344  21.510  0.00  0.00    -0.343 N 
ATOM      7  H41   C A   1      10.421   0.341  22.001  0.00  0.00    +0.144 HD
ATOM      8  H42   C A   1       9.128   0.064  20.937  0.00  0.00    +0.144 HD
ATOM      9  C4    C A   1       9.430  -1.439  22.206  0.00  0.00    +0.123 A 
ATOM     10  C5    C A   1      10.214  -1.929  23.350  0.00  0.00    +0.061 A 
ATOM     11  C6    C A   1       9.681  -2.941  24.035  0.00  0.00    +0.096 A 
ATOM     12  N1    C A   1       8.488  -3.519  23.661  0.00  0.00    -0.270 N 
ATOM     13  C2    C A   1       7.852  -3.107  22.470  0.00  0.00    +0.352 A 
ATOM     14  O2    C A   1       6.881  -3.706  22.014  0.00  0.00    -0.244 OA
ATOM     15  N3    C A   1       8.328  -1.993  21.817  0.00  0.00    -0.178 NA
ENDBRANCH   1  12
BRANCH   2  16
ATOM     16  O2*   C A   1      10.087  -5.630  25.329  0.00  0.00    -0.385 OA
ATOM     17  H2*   C A   1      10.283  -6.578  25.193  0.00  0.00    +0.210 HD
ENDBRANCH   2  16
BRANCH   3  18
ATOM     18  O3*   C A   1       7.913  -5.937  27.646  0.00  0.00    -0.386 OA
ATOM     19  H3*   C A   1       8.618  -5.958  28.323  0.00  0.00    +0.210 HD
ENDBRANCH   3  18
BRANCH   4  20
ATOM     20  C5*   C A   1       7.194  -2.575  26.545  0.00  0.00    +0.190 C 
BRANCH  20  21
ATOM     21  O5*   C A   1       6.318  -1.834  25.701  0.00  0.00    -0.392 OA
ATOM     22  H5*   C A   1       5.682  -1.383  26.295  0.00  0.00    +0.210 HD
ENDBRANCH  20  21
ENDBRANCH   4  20
TORSDOF 5
ENDMDL
MODEL 2
REMARK VINA RESULT:      -5.7      3.454      5.671
REMARK  Name = 
REMARK  5 active torsions:
REMARK  status: ('A' for Active; 'I' for Inactive)
REMARK    1  A    between atoms: N1_6  and  C1*_9
REMARK    2  A    between atoms: C4*_12  and  C5*_14
REMARK    3  A    between atoms: C5*_14  and  O5*_15
REMARK    4  A    between atoms: C3*_16  and  O3*_18
REMARK    5  A    between atoms: C2*_19  and  O2*_21
REMARK                            x       y       z     vdW  Elec       q    Type
REMARK                         _______ _______ _______ _____ _____    ______ ____
ROOT
ATOM      1  C1*   C A   1      10.037  -0.223  22.638  0.00  0.00    +0.255 C 
ATOM      2  C2*   C A   1       9.853   1.112  21.884  0.00  0.00    +0.195 C 
ATOM      3  C3*   C A   1       9.661   2.159  22.978  0.00  0.00    +0.178 C 
ATOM      4  C4*   C A   1      10.134   1.482  24.257  0.00  0.00    +0.177 C 
ATOM      5  O4*   C A   1      10.668   0.203  23.871  0.00  0.00    -0.346 OA
ENDROOT
BRANCH   1  12
ATOM      6  N4    C A   1       6.096  -3.930  23.789  0.00  0.00    -0.343 N 
ATOM      7  H41   C A   1       5.188  -3.600  24.087  0.00  0.00    +0.144 HD
ATOM      8  H42   C A   1       6.469  -4.678  24.366  0.00  0.00    +0.144 HD
ATOM      9  C4    C A   1       7.043  -2.998  23.467  0.00  0.00    +0.123 A 
ATOM     10  C5    C A   1       6.626  -1.678  22.968  0.00  0.00    +0.061 A 
ATOM     11  C6    C A   1       7.602  -0.793  22.767  0.00  0.00    +0.096 A 
ATOM     12  N1    C A   1       8.925  -1.116  22.972  0.00  0.00    -0.270 N 
ATOM     13  C2    C A   1       9.280  -2.440  23.309  0.00  0.00    +0.352 A 
ATOM     14  O2    C A   1      10.453  -2.809  23.336  0.00  0.00    -0.244 OA
ATOM     15  N3    C A   1       8.282  -3.331  23.628  0.00  0.00    -0.178 NA
ENDBRANCH   1  12
BRANCH   2  16
ATOM     16  O2*   C A   1       8.860   1.204  20.872  0.00  0.00    -0.385 OA
ATOM     17  H2*   C A   1       8.139   1.757  21.233  0.00  0.00    +0.210 HD
ENDBRANCH   2  16
BRANCH   3  18
ATOM     18  O3*   C A   1      10.450   3.315  22.661  0.00  0.00    -0.386 OA
ATOM     19  H3*   C A   1      11.361   3.164  22.981  0.00  0.00    +0.210 HD
ENDBRANCH   3  18
BRANCH   4  20
ATOM     20  C5*   C A   1       8.984   1.269  25.249  0.00  0.00    +0.190 C 
BRANCH  20  21
ATOM     21  O5*   C A   1       9.277   0.181  26.120  0.00  0.00    -0.392 OA
ATOM     22  H5*   C A   1       8.484  -0.395  26.117  0.00  0.00    +0.210 HD
ENDBRANCH  20  21
ENDBRANCH   4  20
TORSDOF 5
ENDMDL
MODEL 3
REMARK VINA RESULT:      -5.7      2.633      4.627
REMARK  Name = 
REMARK  5 active torsions:
REMARK  status: ('A' for Active; 'I' for Inactive)
REMARK    1  A    between atoms: N1_6  and  C1*_9
REMARK    2  A    between atoms: C4*_12  and  C5*_14
REMARK    3  A    between atoms: C5*_14  and  O5*_15
REMARK    4  A    between atoms: C3*_16  and  O3*_18
REMARK    5  A    between atoms: C2*_19  and  O2*_21
REMARK                            x       y       z     vdW  Elec       q    Type
REMARK                         _______ _______ _______ _____ _____    ______ ____
ROOT
ATOM      1  C1*   C A   1       9.274  -2.515  23.628  0.00  0.00    +0.255 C 
ATOM      2  C2*   C A   1       9.880  -1.406  22.742  0.00  0.00    +0.195 C 
ATOM      3  C3*   C A   1       9.108  -0.141  23.107  0.00  0.00    +0.178 C 
ATOM      4  C4*   C A   1       8.411  -0.474  24.420  0.00  0.00    +0.177 C 
ATOM      5  O4*   C A   1       8.871  -1.779  24.811  0.00  0.00    -0.346 OA
ENDROOT
BRANCH   1  12
ATOM      6  N4    C A   1       5.295  -6.046  22.114  0.00  0.00    -0.343 N 
ATOM      7  H41   C A   1       4.418  -5.677  21.771  0.00  0.00    +0.144 HD
ATOM      8  H42   C A   1       5.185  -6.779  22.809  0.00  0.00    +0.144 HD
ATOM      9  C4    C A   1       6.282  -5.159  22.442  0.00  0.00    +0.123 A 
ATOM     10  C5    C A   1       6.337  -3.851  21.771  0.00  0.00    +0.061 A 
ATOM     11  C6    C A   1       7.268  -3.005  22.211  0.00  0.00    +0.096 A 
ATOM     12  N1    C A   1       8.153  -3.359  23.206  0.00  0.00    -0.270 N 
ATOM     13  C2    C A   1       8.151  -4.676  23.712  0.00  0.00    +0.352 A 
ATOM     14  O2    C A   1       9.027  -5.078  24.475  0.00  0.00    -0.244 OA
ATOM     15  N3    C A   1       7.128  -5.521  23.350  0.00  0.00    -0.178 NA
ENDBRANCH   1  12
BRANCH   2  16
ATOM     16  O2*   C A   1       9.949  -1.605  21.336  0.00  0.00    -0.385 OA
ATOM     17  H2*   C A   1       9.217  -1.093  20.942  0.00  0.00    +0.210 HD
ENDBRANCH   2  16
BRANCH   3  18
ATOM     18  O3*   C A   1      10.034   0.945  23.253  0.00  0.00    -0.386 OA
ATOM     19  H3*   C A   1       9.599   1.765  22.947  0.00  0.00    +0.210 HD
ENDBRANCH   3  18
BRANCH   4  20
ATOM     20  C5*   C A   1       6.886  -0.503  24.264  0.00  0.00    +0.190 C 
BRANCH  20  21
ATOM     21  O5*   C A   1       6.490   0.250  23.122  0.00  0.00    -0.392 OA
ATOM     22  H5*   C A   1       5.560   0.003  22.939  0.00  0.00    +0.210 HD
ENDBRANCH  20  21
ENDBRANCH   4  20
TORSDOF 5
ENDMDL
MODEL 4
REMARK VINA RESULT:      -5.5      1.546      3.035
REMARK  Name = 
REMARK  5 active torsions:
REMARK  status: ('A' for Active; 'I' for Inactive)
REMARK    1  A    between atoms: N1_6  and  C1*_9
REMARK    2  A    between atoms: C4*_12  and  C5*_14
REMARK    3  A    between atoms: C5*_14  and  O5*_15
REMARK    4  A    between atoms: C3*_16  and  O3*_18
REMARK    5  A    between atoms: C2*_19  and  O2*_21
REMARK                            x       y       z     vdW  Elec       q    Type
REMARK                         _______ _______ _______ _____ _____    ______ ____
ROOT
ATOM      1  C1*   C A   1       7.630  -3.024  25.951  0.00  0.00    +0.255 C 
ATOM      2  C2*   C A   1       6.368  -3.900  26.105  0.00  0.00    +0.195 C 
ATOM      3  C3*   C A   1       6.878  -5.338  26.070  0.00  0.00    +0.178 C 
ATOM      4  C4*   C A   1       8.378  -5.227  26.305  0.00  0.00    +0.177 C 
ATOM      5  O4*   C A   1       8.651  -3.841  26.578  0.00  0.00    -0.346 OA
ENDROOT
BRANCH   1  12
ATOM      6  N4    C A   1       9.592  -0.898  21.236  0.00  0.00    -0.343 N 
ATOM      7  H41   C A   1       9.649  -1.491  20.419  0.00  0.00    +0.144 HD
ATOM      8  H42   C A   1      10.436  -0.362  21.412  0.00  0.00    +0.144 HD
ATOM      9  C4    C A   1       9.063  -1.429  22.380  0.00  0.00    +0.123 A 
ATOM     10  C5    C A   1       8.082  -2.521  22.290  0.00  0.00    +0.061 A 
ATOM     11  C6    C A   1       7.685  -3.049  23.448  0.00  0.00    +0.096 A 
ATOM     12  N1    C A   1       8.138  -2.566  24.655  0.00  0.00    -0.270 N 
ATOM     13  C2    C A   1       8.964  -1.422  24.689  0.00  0.00    +0.352 A 
ATOM     14  O2    C A   1       9.252  -0.862  25.744  0.00  0.00    -0.244 OA
ATOM     15  N3    C A   1       9.470  -0.937  23.505  0.00  0.00    -0.178 NA
ENDBRANCH   1  12
BRANCH   2  16
ATOM     16  O2*   C A   1       5.274  -3.697  25.220  0.00  0.00    -0.385 OA
ATOM     17  H2*   C A   1       5.651  -3.418  24.363  0.00  0.00    +0.210 HD
ENDBRANCH   2  16
BRANCH   3  18
ATOM     18  O3*   C A   1       6.228  -6.089  27.106  0.00  0.00    -0.386 OA
ATOM     19  H3*   C A   1       6.153  -7.018  26.814  0.00  0.00    +0.210 HD
ENDBRANCH   3  18
BRANCH   4  20
ATOM     20  C5*   C A   1       9.183  -5.666  25.076  0.00  0.00    +0.190 C 
BRANCH  20  21
ATOM     21  O5*   C A   1      10.534  -5.231  25.188  0.00  0.00    -0.392 OA
ATOM     22  H5*   C A   1      10.995  -5.903  25.732  0.00  0.00    +0.210 HD
ENDBRANCH  20  21
ENDBRANCH   4  20
TORSDOF 5
ENDMDL
MODEL 5
REMARK VINA RESULT:      -5.5      2.019      3.282
REMARK  Name = 
REMARK  5 active torsions:
REMARK  status: ('A' for Active; 'I' for Inactive)
REMARK    1  A    between atoms: N1_6  and  C1*_9
REMARK    2  A    between atoms: C4*_12  and  C5*_14
REMARK    3  A    between atoms: C5*_14  and  O5*_15
REMARK    4  A    between atoms: C3*_16  and  O3*_18
REMARK    5  A    between atoms: C2*_19  and  O2*_21
REMARK                            x       y       z     vdW  Elec       q    Type
REMARK                         _______ _______ _______ _____ _____    ______ ____
ROOT
ATOM      1  C1*   C A   1       8.717  -2.714  23.944  0.00  0.00    +0.255 C 
ATOM      2  C2*   C A   1       7.894  -3.037  25.210  0.00  0.00    +0.195 C 
ATOM      3  C3*   C A   1       6.553  -3.547  24.690  0.00  0.00    +0.178 C 
ATOM      4  C4*   C A   1       6.800  -3.873  23.223  0.00  0.00    +0.177 C 
ATOM      5  O4*   C A   1       8.206  -3.678  22.990  0.00  0.00    -0.346 OA
ENDROOT
BRANCH   1  12
ATOM      6  N4    C A   1       9.190   2.231  21.511  0.00  0.00    -0.343 N 
ATOM      7  H41   C A   1       8.358   2.788  21.371  0.00  0.00    +0.144 HD
ATOM      8  H42   C A   1       9.782   2.167  20.688  0.00  0.00    +0.144 HD
ATOM      9  C4    C A   1       9.059   1.031  22.153  0.00  0.00    +0.123 A 
ATOM     10  C5    C A   1       7.968   0.839  23.121  0.00  0.00    +0.061 A 
ATOM     11  C6    C A   1       7.849  -0.386  23.634  0.00  0.00    +0.096 A 
ATOM     12  N1    C A   1       8.728  -1.395  23.307  0.00  0.00    -0.270 N 
ATOM     13  C2    C A   1       9.843  -1.117  22.487  0.00  0.00    +0.352 A 
ATOM     14  O2    C A   1      10.736  -1.942  22.309  0.00  0.00    -0.244 OA
ATOM     15  N3    C A   1       9.915   0.106  21.863  0.00  0.00    -0.178 NA
ENDBRANCH   1  12
BRANCH   2  16
ATOM     16  O2*   C A   1       7.737  -2.035  26.207  0.00  0.00    -0.385 OA
ATOM     17  H2*   C A   1       8.379  -2.238  26.914  0.00  0.00    +0.210 HD
ENDBRANCH   2  16
BRANCH   3  18
ATOM     18  O3*   C A   1       6.173  -4.710  25.440  0.00  0.00    -0.386 OA
ATOM     19  H3*   C A   1       6.733  -4.758  26.240  0.00  0.00    +0.210 HD
ENDBRANCH   3  18
BRANCH   4  20
ATOM     20  C5*   C A   1       6.003  -2.952  22.292  0.00  0.00    +0.190 C 
BRANCH  20  21
ATOM     21  O5*   C A   1       5.505  -3.686  21.177  0.00  0.00    -0.392 OA
ATOM     22  H5*   C A   1       6.249  -4.236  20.856  0.00  0.00    +0.210 HD
ENDBRANCH  20  21
ENDBRANCH   4  20
TORSDOF 5
ENDMDL
MODEL 6
REMARK VINA RESULT:      -5.4      2.800      5.229
REMARK  Name = 
REMARK  5 active torsions:
REMARK  status: ('A' for Active; 'I' for Inactive)
REMARK    1  A    between atoms: N1_6  and  C1*_9
REMARK    2  A    between atoms: C4*_12  and  C5*_14
REMARK    3  A    between atoms: C5*_14  and  O5*_15
REMARK    4  A    between atoms: C3*_16  and  O3*_18
REMARK    5  A    between atoms: C2*_19  and  O2*_21
REMARK                            x       y       z     vdW  Elec       q    Type
REMARK                         _______ _______ _______ _____ _____    ______ ____
ROOT
ATOM      1  C1*   C A   1       9.366  -0.959  23.740  0.00  0.00    +0.255 C 
ATOM      2  C2*   C A   1      10.088  -0.450  22.474  0.00  0.00    +0.195 C 
ATOM      3  C3*   C A   1       9.185   0.649  21.920  0.00  0.00    +0.178 C 
ATOM      4  C4*   C A   1       8.240   0.993  23.064  0.00  0.00    +0.177 C 
ATOM      5  O4*   C A   1       8.677   0.230  24.202  0.00  0.00    -0.346 OA
ENDROOT
BRANCH   1  12
ATOM      6  N4    C A   1       5.951  -5.297  24.070  0.00  0.00    -0.343 N 
ATOM      7  H41   C A   1       5.276  -5.445  23.331  0.00  0.00    +0.144 HD
ATOM      8  H42   C A   1       5.556  -5.370  25.003  0.00  0.00    +0.144 HD
ATOM      9  C4    C A   1       6.815  -4.245  23.949  0.00  0.00    +0.123 A 
ATOM     10  C5    C A   1       7.188  -3.759  22.612  0.00  0.00    +0.061 A 
ATOM     11  C6    C A   1       7.958  -2.672  22.577  0.00  0.00    +0.096 A 
ATOM     12  N1    C A   1       8.413  -2.071  23.730  0.00  0.00    -0.270 N 
ATOM     13  C2    C A   1       8.147  -2.664  24.983  0.00  0.00    +0.352 A 
ATOM     14  O2    C A   1       8.671  -2.256  26.017  0.00  0.00    -0.244 OA
ATOM     15  N3    C A   1       7.263  -3.717  25.041  0.00  0.00    -0.178 NA
ENDBRANCH   1  12
BRANCH   2  16
ATOM     16  O2*   C A   1      10.470  -1.384  21.473  0.00  0.00    -0.385 OA
ATOM     17  H2*   C A   1      10.650  -2.229  21.930  0.00  0.00    +0.210 HD
ENDBRANCH   2  16
BRANCH   3  18
ATOM     18  O3*   C A   1       9.995   1.771  21.540  0.00  0.00    -0.386 OA
ATOM     19  H3*   C A   1       9.859   1.941  20.587  0.00  0.00    +0.210 HD
ENDBRANCH   3  18
BRANCH   4  20
ATOM     20  C5*   C A   1       6.789   0.622  22.736  0.00  0.00    +0.190 C 
BRANCH  20  21
ATOM     21  O5*   C A   1       6.050   0.409  23.935  0.00  0.00    -0.392 OA
ATOM     22  H5*   C A   1       5.104   0.425  23.681  0.00  0.00    +0.210 HD
ENDBRANCH  20  21
ENDBRANCH   4  20
TORSDOF 5
ENDMDL
MODEL 7
REMARK VINA RESULT:      -5.4      2.559      5.009
REMARK  Name = 
REMARK  5 active torsions:
REMARK  status: ('A' for Active; 'I' for Inactive)
REMARK    1  A    between atoms: N1_6  and  C1*_9
REMARK    2  A    between atoms: C4*_12  and  C5*_14
REMARK    3  A    between atoms: C5*_14  and  O5*_15
REMARK    4  A    between atoms: C3*_16  and  O3*_18
REMARK    5  A    between atoms: C2*_19  and  O2*_21
REMARK                            x       y       z     vdW  Elec       q    Type
REMARK                         _______ _______ _______ _____ _____    ______ ____
ROOT
ATOM      1  C1*   C A   1       8.125  -2.160  23.401  0.00  0.00    +0.255 C 
ATOM      2  C2*   C A   1       6.937  -1.452  22.716  0.00  0.00    +0.195 C 
ATOM      3  C3*   C A   1       6.737  -0.162  23.505  0.00  0.00    +0.178 C 
ATOM      4  C4*   C A   1       8.019   0.008  24.309  0.00  0.00    +0.177 C 
ATOM      5  O4*   C A   1       8.908  -1.043  23.892  0.00  0.00    -0.346 OA
ENDROOT
BRANCH   1  12
ATOM      6  N4    C A   1       7.860  -6.030  27.345  0.00  0.00    -0.343 N 
ATOM      7  H41   C A   1       7.128  -5.968  28.041  0.00  0.00    +0.144 HD
ATOM      8  H42   C A   1       8.781  -6.205  27.734  0.00  0.00    +0.144 HD
ATOM      9  C4    C A   1       7.883  -5.089  26.353  0.00  0.00    +0.123 A 
ATOM     10  C5    C A   1       6.630  -4.440  25.936  0.00  0.00    +0.061 A 
ATOM     11  C6    C A   1       6.747  -3.468  25.032  0.00  0.00    +0.096 A 
ATOM     12  N1    C A   1       7.966  -3.126  24.490  0.00  0.00    -0.270 N 
ATOM     13  C2    C A   1       9.115  -3.880  24.816  0.00  0.00    +0.352 A 
ATOM     14  O2    C A   1      10.183  -3.717  24.232  0.00  0.00    -0.244 OA
ATOM     15  N3    C A   1       9.030  -4.809  25.828  0.00  0.00    -0.178 NA
ENDBRANCH   1  12
BRANCH   2  16
ATOM     16  O2*   C A   1       5.720  -2.164  22.535  0.00  0.00    -0.385 OA
ATOM     17  H2*   C A   1       5.921  -2.926  21.957  0.00  0.00    +0.210 HD
ENDBRANCH   2  16
BRANCH   3  18
ATOM     18  O3*   C A   1       6.534   0.921  22.586  0.00  0.00    -0.386 OA
ATOM     19  H3*   C A   1       6.999   1.709  22.929  0.00  0.00    +0.210 HD
ENDBRANCH   3  18
BRANCH   4  20
ATOM     20  C5*   C A   1       7.768  -0.113  25.817  0.00  0.00    +0.190 C 
BRANCH  20  21
ATOM     21  O5*   C A   1       9.001  -0.260  26.513  0.00  0.00    -0.392 OA
ATOM     22  H5*   C A   1       8.943  -1.108  27.000  0.00  0.00    +0.210 HD
ENDBRANCH  20  21
ENDBRANCH   4  20
TORSDOF 5
ENDMDL
MODEL 8
REMARK VINA RESULT:      -5.3      3.306      4.384
REMARK  Name = 
REMARK  5 active torsions:
REMARK  status: ('A' for Active; 'I' for Inactive)
REMARK    1  A    between atoms: N1_6  and  C1*_9
REMARK    2  A    between atoms: C4*_12  and  C5*_14
REMARK    3  A    between atoms: C5*_14  and  O5*_15
REMARK    4  A    between atoms: C3*_16  and  O3*_18
REMARK    5  A    between atoms: C2*_19  and  O2*_21
REMARK                            x       y       z     vdW  Elec       q    Type
REMARK                         _______ _______ _______ _____ _____    ______ ____
ROOT
ATOM      1  C1*   C A   1       8.386  -0.611  22.991  0.00  0.00    +0.255 C 
ATOM      2  C2*   C A   1       9.336  -1.805  22.754  0.00  0.00    +0.195 C 
ATOM      3  C3*   C A   1       9.638  -2.351  24.147  0.00  0.00    +0.178 C 
ATOM      4  C4*   C A   1       8.573  -1.739  25.047  0.00  0.00    +0.177 C 
ATOM      5  O4*   C A   1       7.675  -1.014  24.188  0.00  0.00    -0.346 OA
ENDROOT
BRANCH   1  12
ATOM      6  N4    C A   1       9.854   4.707  23.388  0.00  0.00    -0.343 N 
ATOM      7  H41   C A   1      10.628   4.956  23.989  0.00  0.00    +0.144 HD
ATOM      8  H42   C A   1       9.034   5.294  23.512  0.00  0.00    +0.144 HD
ATOM      9  C4    C A   1       9.534   3.383  23.269  0.00  0.00    +0.123 A 
ATOM     10  C5    C A   1      10.576   2.363  23.456  0.00  0.00    +0.061 A 
ATOM     11  C6    C A   1      10.168   1.094  23.418  0.00  0.00    +0.096 A 
ATOM     12  N1    C A   1       8.854   0.765  23.173  0.00  0.00    -0.270 N 
ATOM     13  C2    C A   1       7.924   1.778  22.854  0.00  0.00    +0.352 A 
ATOM     14  O2    C A   1       6.787   1.515  22.467  0.00  0.00    -0.244 OA
ATOM     15  N3    C A   1       8.303   3.092  22.999  0.00  0.00    -0.178 NA
ENDBRANCH   1  12
BRANCH   2  16
ATOM     16  O2*   C A   1      10.516  -1.608  21.987  0.00  0.00    -0.385 OA
ATOM     17  H2*   C A   1      11.096  -1.019  22.508  0.00  0.00    +0.210 HD
ENDBRANCH   2  16
BRANCH   3  18
ATOM     18  O3*   C A   1       9.554  -3.783  24.115  0.00  0.00    -0.386 OA
ATOM     19  H3*   C A   1      10.083  -4.140  24.855  0.00  0.00    +0.210 HD
ENDBRANCH   3  18
BRANCH   4  20
ATOM     20  C5*   C A   1       9.178  -0.773  26.073  0.00  0.00    +0.190 C 
BRANCH  20  21
ATOM     21  O5*   C A   1       8.219   0.207  26.455  0.00  0.00    -0.392 OA
ATOM     22  H5*   C A   1       7.912   0.630  25.627  0.00  0.00    +0.210 HD
ENDBRANCH  20  21
ENDBRANCH   4  20
TORSDOF 5
ENDMDL
MODEL 9
REMARK VINA RESULT:      -5.3      3.230      4.932
REMARK  Name = 
REMARK  5 active torsions:
REMARK  status: ('A' for Active; 'I' for Inactive)
REMARK    1  A    between atoms: N1_6  and  C1*_9
REMARK    2  A    between atoms: C4*_12  and  C5*_14
REMARK    3  A    between atoms: C5*_14  and  O5*_15
REMARK    4  A    between atoms: C3*_16  and  O3*_18
REMARK    5  A    between atoms: C2*_19  and  O2*_21
REMARK                            x       y       z     vdW  Elec       q    Type
REMARK                         _______ _______ _______ _____ _____    ______ ____
ROOT
ATOM      1  C1*   C A   1       7.688  -0.762  24.371  0.00  0.00    +0.255 C 
ATOM      2  C2*   C A   1       7.061  -1.961  23.628  0.00  0.00    +0.195 C 
ATOM      3  C3*   C A   1       8.242  -2.695  22.998  0.00  0.00    +0.178 C 
ATOM      4  C4*   C A   1       9.470  -2.152  23.715  0.00  0.00    +0.177 C 
ATOM      5  O4*   C A   1       8.987  -1.279  24.753  0.00  0.00    -0.346 OA
ENDROOT
BRANCH   1  12
ATOM      6  N4    C A   1       8.241   4.383  22.418  0.00  0.00    -0.343 N 
ATOM      7  H41   C A   1       8.585   4.514  21.476  0.00  0.00    +0.144 HD
ATOM      8  H42   C A   1       8.694   4.978  23.104  0.00  0.00    +0.144 HD
ATOM      9  C4    C A   1       8.069   3.104  22.867  0.00  0.00    +0.123 A 
ATOM     10  C5    C A   1       7.783   2.027  21.907  0.00  0.00    +0.061 A 
ATOM     11  C6    C A   1       7.723   0.794  22.410  0.00  0.00    +0.096 A 
ATOM     12  N1    C A   1       7.877   0.555  23.757  0.00  0.00    -0.270 N 
ATOM     13  C2    C A   1       8.003   1.638  24.653  0.00  0.00    +0.352 A 
ATOM     14  O2    C A   1       7.974   1.478  25.871  0.00  0.00    -0.244 OA
ATOM     15  N3    C A   1       8.178   2.903  24.140  0.00  0.00    -0.178 NA
ENDBRANCH   1  12
BRANCH   2  16
ATOM     16  O2*   C A   1       6.015  -1.727  22.695  0.00  0.00    -0.385 OA
ATOM     17  H2*   C A   1       5.338  -1.195  23.158  0.00  0.00    +0.210 HD
ENDBRANCH   2  16
BRANCH   3  18
ATOM     18  O3*   C A   1       8.080  -4.106  23.207  0.00  0.00    -0.386 OA
ATOM     19  H3*   C A   1       8.863  -4.564  22.843  0.00  0.00    +0.210 HD
ENDBRANCH   3  18
BRANCH   4  20
ATOM     20  C5*   C A   1      10.378  -1.356  22.770  0.00  0.00    +0.190 C 
BRANCH  20  21
ATOM     21  O5*   C A   1      10.039  -1.627  21.414  0.00  0.00    -0.392 OA
ATOM     22  H5*   C A   1      10.436  -2.497  21.200  0.00  0.00    +0.210 HD
ENDBRANCH  20  21
ENDBRANCH   4  20
TORSDOF 5
ENDMDL
