MODEL 1
REMARK VINA RESULT:      -6.8      0.000      0.000
REMARK  Name = 
REMARK  7 active torsions:
REMARK  status: ('A' for Active; 'I' for Inactive)
REMARK    1  A    between atoms: C_2  and  C_3
REMARK    2  A    between atoms: C_2  and  C_5
REMARK    3  A    between atoms: C_2  and  N_17
REMARK    4  A    between atoms: C_3  and  O_4
REMARK    5  A    between atoms: C_5  and  C_6
REMARK    6  A    between atoms: C_6  and  C_7
REMARK    7  A    between atoms: C_20  and  C_22
REMARK                            x       y       z     vdW  Elec       q    Type
REMARK                         _______ _______ _______ _____ _____    ______ ____
ROOT
ATOM      1  C   UNL     1       7.136  -3.477  26.284  0.00  0.00    +0.114 C 
ENDROOT
BRANCH   1   2
ATOM      2  N   UNL     1       6.518  -3.685  24.983  0.00  0.00    -0.331 N 
ATOM      3  C   UNL     1       6.802  -4.716  24.132  0.00  0.00    +0.120 A 
ATOM      4  C   UNL     1       6.026  -4.497  23.012  0.00  0.00    +0.143 A 
ATOM      5  N   UNL     1       5.263  -3.350  23.185  0.00  0.00    -0.231 NA
ATOM      6  C   UNL     1       5.577  -2.897  24.380  0.00  0.00    +0.200 A 
BRANCH   4   7
ATOM      7  C   UNL     1       5.998  -5.322  21.806  0.00  0.00    +0.261 C 
ATOM      8  O   UNL     1       5.868  -4.881  20.671  0.00  0.00    -0.269 OA
ATOM      9  N   UNL     1       6.122  -6.658  22.052  0.00  0.00    -0.324 N 
ATOM     10  H   UNL     1       6.087  -7.309  21.283  0.00  0.00    +0.145 HD
ATOM     11  H   UNL     1       6.211  -6.980  23.008  0.00  0.00    +0.145 HD
ENDBRANCH   4   7
ENDBRANCH   1   2
BRANCH   1  12
ATOM     12  C   UNL     1       7.113  -4.770  27.117  0.00  0.00    +0.180 C 
BRANCH  12  13
ATOM     13  O   UNL     1       8.417  -5.336  27.227  0.00  0.00    -0.393 OA
ATOM     14  H   UNL     1       8.826  -5.329  26.343  0.00  0.00    +0.209 HD
ENDBRANCH  12  13
ENDBRANCH   1  12
BRANCH   1  15
ATOM     15  C   UNL     1       8.559  -2.892  26.200  0.00  0.00    +0.032 C 
BRANCH  15  16
ATOM     16  C   UNL     1       8.569  -1.403  25.824  0.00  0.00    +0.038 C 
BRANCH  16  17
ATOM     17  C   UNL     1       9.076  -1.047  24.434  0.00  0.00    -0.040 A 
ATOM     18  C   UNL     1       9.246   0.324  24.070  0.00  0.00    -0.015 A 
ATOM     19  C   UNL     1       8.954   1.408  24.932  0.00  0.00    +0.009 A 
ATOM     20  C   UNL     1       9.117   2.737  24.529  0.00  0.00    +0.001 A 
ATOM     21  C   UNL     1       9.587   3.021  23.256  0.00  0.00    +0.001 A 
ATOM     22  C   UNL     1       9.895   1.978  22.386  0.00  0.00    +0.008 A 
ATOM     23  C   UNL     1       9.729   0.638  22.774  0.00  0.00    -0.018 A 
ATOM     24  C   UNL     1      10.035  -0.389  21.872  0.00  0.00    +0.008 A 
ATOM     25  C   UNL     1       9.858  -1.721  22.227  0.00  0.00    +0.001 A 
ATOM     26  C   UNL     1       9.381  -2.046  23.493  0.00  0.00    +0.004 A 
ENDBRANCH  16  17
ENDBRANCH  15  16
ENDBRANCH   1  15
TORSDOF 7
ENDMDL
MODEL 2
REMARK VINA RESULT:      -6.8      2.634      4.886
REMARK  Name = 
REMARK  7 active torsions:
REMARK  status: ('A' for Active; 'I' for Inactive)
REMARK    1  A    between atoms: C_2  and  C_3
REMARK    2  A    between atoms: C_2  and  C_5
REMARK    3  A    between atoms: C_2  and  N_17
REMARK    4  A    between atoms: C_3  and  O_4
REMARK    5  A    between atoms: C_5  and  C_6
REMARK    6  A    between atoms: C_6  and  C_7
REMARK    7  A    between atoms: C_20  and  C_22
REMARK                            x       y       z     vdW  Elec       q    Type
REMARK                         _______ _______ _______ _____ _____    ______ ____
ROOT
ATOM      1  C   UNL     1       9.915  -1.031  23.436  0.00  0.00    +0.114 C 
ENDROOT
BRANCH   1   2
ATOM      2  N   UNL     1       9.396  -1.975  24.415  0.00  0.00    -0.331 N 
ATOM      3  C   UNL     1       9.558  -3.331  24.366  0.00  0.00    +0.120 A 
ATOM      4  C   UNL     1       8.873  -3.827  25.457  0.00  0.00    +0.143 A 
ATOM      5  N   UNL     1       8.311  -2.780  26.175  0.00  0.00    -0.231 NA
ATOM      6  C   UNL     1       8.653  -1.687  25.528  0.00  0.00    +0.200 A 
BRANCH   4   7
ATOM      7  C   UNL     1       8.733  -5.235  25.820  0.00  0.00    +0.261 C 
ATOM      8  O   UNL     1       7.732  -5.720  26.333  0.00  0.00    -0.269 OA
ATOM      9  N   UNL     1       9.839  -5.986  25.546  0.00  0.00    -0.324 N 
ATOM     10  H   UNL     1       9.846  -6.965  25.787  0.00  0.00    +0.145 HD
ATOM     11  H   UNL     1      10.651  -5.541  25.137  0.00  0.00    +0.145 HD
ENDBRANCH   4   7
ENDBRANCH   1   2
BRANCH   1  12
ATOM     12  C   UNL     1       8.931  -0.853  22.268  0.00  0.00    +0.180 C 
BRANCH  12  13
ATOM     13  O   UNL     1       9.543  -1.181  21.023  0.00  0.00    -0.393 OA
ATOM     14  H   UNL     1       9.836  -2.108  21.065  0.00  0.00    +0.209 HD
ENDBRANCH  12  13
ENDBRANCH   1  12
BRANCH   1  15
ATOM     15  C   UNL     1      10.313   0.327  24.045  0.00  0.00    +0.032 C 
BRANCH  15  16
ATOM     16  C   UNL     1      10.094   1.499  23.078  0.00  0.00    +0.038 C 
BRANCH  16  17
ATOM     17  C   UNL     1       9.539   2.787  23.670  0.00  0.00    -0.040 A 
ATOM     18  C   UNL     1      10.373   3.944  23.760  0.00  0.00    -0.015 A 
ATOM     19  C   UNL     1      11.724   3.974  23.339  0.00  0.00    +0.009 A 
ATOM     20  C   UNL     1      12.510   5.123  23.464  0.00  0.00    +0.001 A 
ATOM     21  C   UNL     1      11.967   6.278  24.003  0.00  0.00    +0.001 A 
ATOM     22  C   UNL     1      10.637   6.287  24.417  0.00  0.00    +0.008 A 
ATOM     23  C   UNL     1       9.836   5.138  24.306  0.00  0.00    -0.018 A 
ATOM     24  C   UNL     1       8.506   5.173  24.743  0.00  0.00    +0.008 A 
ATOM     25  C   UNL     1       7.702   4.043  24.661  0.00  0.00    +0.001 A 
ATOM     26  C   UNL     1       8.214   2.862  24.133  0.00  0.00    +0.004 A 
ENDBRANCH  16  17
ENDBRANCH  15  16
ENDBRANCH   1  15
TORSDOF 7
ENDMDL
MODEL 3
REMARK VINA RESULT:      -6.7      2.536      4.400
REMARK  Name = 
REMARK  7 active torsions:
REMARK  status: ('A' for Active; 'I' for Inactive)
REMARK    1  A    between atoms: C_2  and  C_3
REMARK    2  A    between atoms: C_2  and  C_5
REMARK    3  A    between atoms: C_2  and  N_17
REMARK    4  A    between atoms: C_3  and  O_4
REMARK    5  A    between atoms: C_5  and  C_6
REMARK    6  A    between atoms: C_6  and  C_7
REMARK    7  A    between atoms: C_20  and  C_22
REMARK                            x       y       z     vdW  Elec       q    Type
REMARK                         _______ _______ _______ _____ _____    ______ ____
ROOT
ATOM      1  C   UNL     1       9.250  -0.792  23.557  0.00  0.00    +0.114 C 
ENDROOT
BRANCH   1   2
ATOM      2  N   UNL     1       8.829  -2.169  23.763  0.00  0.00    -0.331 N 
ATOM      3  C   UNL     1       9.123  -2.927  24.862  0.00  0.00    +0.120 A 
ATOM      4  C   UNL     1       8.567  -4.167  24.617  0.00  0.00    +0.143 A 
ATOM      5  N   UNL     1       7.926  -4.160  23.386  0.00  0.00    -0.231 NA
ATOM      6  C   UNL     1       8.094  -2.946  22.909  0.00  0.00    +0.200 A 
BRANCH   4   7
ATOM      7  C   UNL     1       8.638  -5.332  25.496  0.00  0.00    +0.261 C 
ATOM      8  O   UNL     1       7.697  -5.757  26.156  0.00  0.00    -0.269 OA
ATOM      9  N   UNL     1       9.869  -5.920  25.533  0.00  0.00    -0.324 N 
ATOM     10  H   UNL     1      10.020  -6.716  26.133  0.00  0.00    +0.145 HD
ATOM     11  H   UNL     1      10.622  -5.525  24.984  0.00  0.00    +0.145 HD
ENDBRANCH   4   7
ENDBRANCH   1   2
BRANCH   1  12
ATOM     12  C   UNL     1      10.207  -0.337  24.671  0.00  0.00    +0.180 C 
BRANCH  12  13
ATOM     13  O   UNL     1       9.582   0.616  25.530  0.00  0.00    -0.393 OA
ATOM     14  H   UNL     1       9.807   0.387  26.449  0.00  0.00    +0.209 HD
ENDBRANCH  12  13
ENDBRANCH   1  12
BRANCH   1  15
ATOM     15  C   UNL     1       9.854  -0.538  22.163  0.00  0.00    +0.032 C 
BRANCH  15  16
ATOM     16  C   UNL     1       9.294   0.724  21.492  0.00  0.00    +0.038 C 
BRANCH  16  17
ATOM     17  C   UNL     1       9.398   2.025  22.274  0.00  0.00    -0.040 A 
ATOM     18  C   UNL     1       8.220   2.788  22.544  0.00  0.00    -0.015 A 
ATOM     19  C   UNL     1       6.925   2.414  22.109  0.00  0.00    +0.009 A 
ATOM     20  C   UNL     1       5.801   3.200  22.378  0.00  0.00    +0.001 A 
ATOM     21  C   UNL     1       5.936   4.377  23.099  0.00  0.00    +0.001 A 
ATOM     22  C   UNL     1       7.194   4.768  23.552  0.00  0.00    +0.008 A 
ATOM     23  C   UNL     1       8.334   3.993  23.283  0.00  0.00    -0.018 A 
ATOM     24  C   UNL     1       9.587   4.418  23.740  0.00  0.00    +0.008 A 
ATOM     25  C   UNL     1      10.732   3.678  23.467  0.00  0.00    +0.001 A 
ATOM     26  C   UNL     1      10.638   2.496  22.740  0.00  0.00    +0.004 A 
ENDBRANCH  16  17
ENDBRANCH  15  16
ENDBRANCH   1  15
TORSDOF 7
ENDMDL
MODEL 4
REMARK VINA RESULT:      -6.6      2.207      3.684
REMARK  Name = 
REMARK  7 active torsions:
REMARK  status: ('A' for Active; 'I' for Inactive)
REMARK    1  A    between atoms: C_2  and  C_3
REMARK    2  A    between atoms: C_2  and  C_5
REMARK    3  A    between atoms: C_2  and  N_17
REMARK    4  A    between atoms: C_3  and  O_4
REMARK    5  A    between atoms: C_5  and  C_6
REMARK    6  A    between atoms: C_6  and  C_7
REMARK    7  A    between atoms: C_20  and  C_22
REMARK                            x       y       z     vdW  Elec       q    Type
REMARK                         _______ _______ _______ _____ _____    ______ ____
ROOT
ATOM      1  C   UNL     1       8.357  -1.291  23.076  0.00  0.00    +0.114 C 
ENDROOT
BRANCH   1   2
ATOM      2  N   UNL     1       7.972  -2.690  22.967  0.00  0.00    -0.331 N 
ATOM      3  C   UNL     1       7.090  -3.195  22.053  0.00  0.00    +0.120 A 
ATOM      4  C   UNL     1       6.991  -4.542  22.339  0.00  0.00    +0.143 A 
ATOM      5  N   UNL     1       7.818  -4.858  23.408  0.00  0.00    -0.231 NA
ATOM      6  C   UNL     1       8.397  -3.728  23.751  0.00  0.00    +0.200 A 
BRANCH   4   7
ATOM      7  C   UNL     1       6.145  -5.511  21.646  0.00  0.00    +0.261 C 
ATOM      8  O   UNL     1       6.001  -5.558  20.430  0.00  0.00    -0.269 OA
ATOM      9  N   UNL     1       5.502  -6.377  22.483  0.00  0.00    -0.324 N 
ATOM     10  H   UNL     1       4.874  -7.065  22.097  0.00  0.00    +0.145 HD
ATOM     11  H   UNL     1       5.638  -6.292  23.483  0.00  0.00    +0.145 HD
ENDBRANCH   4   7
ENDBRANCH   1   2
BRANCH   1  12
ATOM     12  C   UNL     1       8.769  -0.943  24.516  0.00  0.00    +0.180 C 
BRANCH  12  13
ATOM     13  O   UNL     1      10.173  -0.716  24.610  0.00  0.00    -0.393 OA
ATOM     14  H   UNL     1      10.436  -0.822  25.542  0.00  0.00    +0.209 HD
ENDBRANCH  12  13
ENDBRANCH   1  12
BRANCH   1  15
ATOM     15  C   UNL     1       9.446  -0.875  22.068  0.00  0.00    +0.032 C 
BRANCH  15  16
ATOM     16  C   UNL     1       9.135   0.457  21.371  0.00  0.00    +0.038 C 
BRANCH  16  17
ATOM     17  C   UNL     1       9.337   1.726  22.187  0.00  0.00    -0.040 A 
ATOM     18  C   UNL     1       8.218   2.561  22.491  0.00  0.00    -0.015 A 
ATOM     19  C   UNL     1       6.897   2.291  22.062  0.00  0.00    +0.009 A 
ATOM     20  C   UNL     1       5.833   3.145  22.367  0.00  0.00    +0.001 A 
ATOM     21  C   UNL     1       6.057   4.289  23.117  0.00  0.00    +0.001 A 
ATOM     22  C   UNL     1       7.343   4.579  23.565  0.00  0.00    +0.008 A 
ATOM     23  C   UNL     1       8.424   3.735  23.261  0.00  0.00    -0.018 A 
ATOM     24  C   UNL     1       9.708   4.059  23.714  0.00  0.00    +0.008 A 
ATOM     25  C   UNL     1      10.796   3.249  23.408  0.00  0.00    +0.001 A 
ATOM     26  C   UNL     1      10.612   2.097  22.650  0.00  0.00    +0.004 A 
ENDBRANCH  16  17
ENDBRANCH  15  16
ENDBRANCH   1  15
TORSDOF 7
ENDMDL
MODEL 5
REMARK VINA RESULT:      -6.6      2.411      4.226
REMARK  Name = 
REMARK  7 active torsions:
REMARK  status: ('A' for Active; 'I' for Inactive)
REMARK    1  A    between atoms: C_2  and  C_3
REMARK    2  A    between atoms: C_2  and  C_5
REMARK    3  A    between atoms: C_2  and  N_17
REMARK    4  A    between atoms: C_3  and  O_4
REMARK    5  A    between atoms: C_5  and  C_6
REMARK    6  A    between atoms: C_6  and  C_7
REMARK    7  A    between atoms: C_20  and  C_22
REMARK                            x       y       z     vdW  Elec       q    Type
REMARK                         _______ _______ _______ _____ _____    ______ ____
ROOT
ATOM      1  C   UNL     1       9.164  -0.735  23.780  0.00  0.00    +0.114 C 
ENDROOT
BRANCH   1   2
ATOM      2  N   UNL     1       8.798  -2.134  23.945  0.00  0.00    -0.331 N 
ATOM      3  C   UNL     1       9.096  -2.903  25.034  0.00  0.00    +0.120 A 
ATOM      4  C   UNL     1       8.602  -4.160  24.748  0.00  0.00    +0.143 A 
ATOM      5  N   UNL     1       7.992  -4.152  23.500  0.00  0.00    -0.231 NA
ATOM      6  C   UNL     1       8.120  -2.922  23.054  0.00  0.00    +0.200 A 
BRANCH   4   7
ATOM      7  C   UNL     1       8.699  -5.341  25.603  0.00  0.00    +0.261 C 
ATOM      8  O   UNL     1       7.773  -5.792  26.265  0.00  0.00    -0.269 OA
ATOM      9  N   UNL     1       9.939  -5.911  25.612  0.00  0.00    -0.324 N 
ATOM     10  H   UNL     1      10.109  -6.717  26.195  0.00  0.00    +0.145 HD
ATOM     11  H   UNL     1      10.680  -5.496  25.061  0.00  0.00    +0.145 HD
ENDBRANCH   4   7
ENDBRANCH   1   2
BRANCH   1  12
ATOM     12  C   UNL     1       9.829  -0.187  25.054  0.00  0.00    +0.180 C 
BRANCH  12  13
ATOM     13  O   UNL     1       9.050   0.858  25.632  0.00  0.00    -0.393 OA
ATOM     14  H   UNL     1       8.384   1.137  24.978  0.00  0.00    +0.209 HD
ENDBRANCH  12  13
ENDBRANCH   1  12
BRANCH   1  15
ATOM     15  C   UNL     1      10.036  -0.472  22.537  0.00  0.00    +0.032 C 
BRANCH  15  16
ATOM     16  C   UNL     1       9.357   0.455  21.519  0.00  0.00    +0.038 C 
BRANCH  16  17
ATOM     17  C   UNL     1       8.564   1.628  22.076  0.00  0.00    -0.040 A 
ATOM     18  C   UNL     1       9.251   2.730  22.673  0.00  0.00    -0.015 A 
ATOM     19  C   UNL     1      10.659   2.803  22.800  0.00  0.00    +0.009 A 
ATOM     20  C   UNL     1      11.290   3.892  23.408  0.00  0.00    +0.001 A 
ATOM     21  C   UNL     1      10.533   4.944  23.899  0.00  0.00    +0.001 A 
ATOM     22  C   UNL     1       9.146   4.910  23.780  0.00  0.00    +0.008 A 
ATOM     23  C   UNL     1       8.497   3.820  23.179  0.00  0.00    -0.018 A 
ATOM     24  C   UNL     1       7.100   3.808  23.085  0.00  0.00    +0.008 A 
ATOM     25  C   UNL     1       6.435   2.730  22.513  0.00  0.00    +0.001 A 
ATOM     26  C   UNL     1       7.160   1.651  22.016  0.00  0.00    +0.004 A 
ENDBRANCH  16  17
ENDBRANCH  15  16
ENDBRANCH   1  15
TORSDOF 7
ENDMDL
MODEL 6
REMARK VINA RESULT:      -6.5      2.697      4.993
REMARK  Name = 
REMARK  7 active torsions:
REMARK  status: ('A' for Active; 'I' for Inactive)
REMARK    1  A    between atoms: C_2  and  C_3
REMARK    2  A    between atoms: C_2  and  C_5
REMARK    3  A    between atoms: C_2  and  N_17
REMARK    4  A    between atoms: C_3  and  O_4
REMARK    5  A    between atoms: C_5  and  C_6
REMARK    6  A    between atoms: C_6  and  C_7
REMARK    7  A    between atoms: C_20  and  C_22
REMARK                            x       y       z     vdW  Elec       q    Type
REMARK                         _______ _______ _______ _____ _____    ______ ____
ROOT
ATOM      1  C   UNL     1      10.216  -0.439  23.395  0.00  0.00    +0.114 C 
ENDROOT
BRANCH   1   2
ATOM      2  N   UNL     1       9.428  -1.511  23.986  0.00  0.00    -0.331 N 
ATOM      3  C   UNL     1       9.901  -2.752  24.307  0.00  0.00    +0.120 A 
ATOM      4  C   UNL     1       8.814  -3.449  24.793  0.00  0.00    +0.143 A 
ATOM      5  N   UNL     1       7.690  -2.635  24.784  0.00  0.00    -0.231 NA
ATOM      6  C   UNL     1       8.097  -1.480  24.304  0.00  0.00    +0.200 A 
BRANCH   4   7
ATOM      7  C   UNL     1       8.812  -4.839  25.246  0.00  0.00    +0.261 C 
ATOM      8  O   UNL     1       7.800  -5.508  25.417  0.00  0.00    -0.269 OA
ATOM      9  N   UNL     1      10.059  -5.343  25.479  0.00  0.00    -0.324 N 
ATOM     10  H   UNL     1      10.156  -6.287  25.820  0.00  0.00    +0.145 HD
ATOM     11  H   UNL     1      10.867  -4.749  25.339  0.00  0.00    +0.145 HD
ENDBRANCH   4   7
ENDBRANCH   1   2
BRANCH   1  12
ATOM     12  C   UNL     1       9.699  -0.086  21.990  0.00  0.00    +0.180 C 
BRANCH  12  13
ATOM     13  O   UNL     1       9.790  -1.206  21.112  0.00  0.00    -0.393 OA
ATOM     14  H   UNL     1       9.918  -2.006  21.652  0.00  0.00    +0.209 HD
ENDBRANCH  12  13
ENDBRANCH   1  12
BRANCH   1  15
ATOM     15  C   UNL     1      10.313   0.813  24.286  0.00  0.00    +0.032 C 
BRANCH  15  16
ATOM     16  C   UNL     1       9.471   1.985  23.760  0.00  0.00    +0.038 C 
BRANCH  16  17
ATOM     17  C   UNL     1      10.136   3.353  23.728  0.00  0.00    -0.040 A 
ATOM     18  C   UNL     1       9.394   4.513  24.109  0.00  0.00    -0.015 A 
ATOM     19  C   UNL     1       8.038   4.480  24.514  0.00  0.00    +0.009 A 
ATOM     20  C   UNL     1       7.344   5.642  24.862  0.00  0.00    +0.001 A 
ATOM     21  C   UNL     1       7.987   6.870  24.824  0.00  0.00    +0.001 A 
ATOM     22  C   UNL     1       9.324   6.937  24.442  0.00  0.00    +0.008 A 
ATOM     23  C   UNL     1      10.033   5.779  24.083  0.00  0.00    -0.018 A 
ATOM     24  C   UNL     1      11.374   5.879  23.690  0.00  0.00    +0.008 A 
ATOM     25  C   UNL     1      12.089   4.749  23.310  0.00  0.00    +0.001 A 
ATOM     26  C   UNL     1      11.475   3.501  23.326  0.00  0.00    +0.004 A 
ENDBRANCH  16  17
ENDBRANCH  15  16
ENDBRANCH   1  15
TORSDOF 7
ENDMDL
MODEL 7
REMARK VINA RESULT:      -6.5      2.299      3.790
REMARK  Name = 
REMARK  7 active torsions:
REMARK  status: ('A' for Active; 'I' for Inactive)
REMARK    1  A    between atoms: C_2  and  C_3
REMARK    2  A    between atoms: C_2  and  C_5
REMARK    3  A    between atoms: C_2  and  N_17
REMARK    4  A    between atoms: C_3  and  O_4
REMARK    5  A    between atoms: C_5  and  C_6
REMARK    6  A    between atoms: C_6  and  C_7
REMARK    7  A    between atoms: C_20  and  C_22
REMARK                            x       y       z     vdW  Elec       q    Type
REMARK                         _______ _______ _______ _____ _____    ______ ____
ROOT
ATOM      1  C   UNL     1       9.085  -0.708  23.776  0.00  0.00    +0.114 C 
ENDROOT
BRANCH   1   2
ATOM      2  N   UNL     1       8.677  -2.083  23.535  0.00  0.00    -0.331 N 
ATOM      3  C   UNL     1       7.775  -2.483  22.589  0.00  0.00    +0.120 A 
ATOM      4  C   UNL     1       7.658  -3.850  22.741  0.00  0.00    +0.143 A 
ATOM      5  N   UNL     1       8.495  -4.283  23.761  0.00  0.00    -0.231 NA
ATOM      6  C   UNL     1       9.095  -3.200  24.206  0.00  0.00    +0.200 A 
BRANCH   4   7
ATOM      7  C   UNL     1       6.787  -4.733  21.969  0.00  0.00    +0.261 C 
ATOM      8  O   UNL     1       5.764  -4.370  21.401  0.00  0.00    -0.269 OA
ATOM      9  N   UNL     1       7.209  -6.031  21.937  0.00  0.00    -0.324 N 
ATOM     10  H   UNL     1       6.657  -6.720  21.449  0.00  0.00    +0.145 HD
ATOM     11  H   UNL     1       8.052  -6.290  22.434  0.00  0.00    +0.145 HD
ENDBRANCH   4   7
ENDBRANCH   1   2
BRANCH   1  12
ATOM     12  C   UNL     1       9.411  -0.483  25.262  0.00  0.00    +0.180 C 
BRANCH  12  13
ATOM     13  O   UNL     1      10.451   0.480  25.421  0.00  0.00    -0.393 OA
ATOM     14  H   UNL     1      10.292   1.204  24.790  0.00  0.00    +0.209 HD
ENDBRANCH  12  13
ENDBRANCH   1  12
BRANCH   1  15
ATOM     15  C   UNL     1      10.245  -0.246  22.873  0.00  0.00    +0.032 C 
BRANCH  15  16
ATOM     16  C   UNL     1       9.787   0.696  21.750  0.00  0.00    +0.038 C 
BRANCH  16  17
ATOM     17  C   UNL     1       8.847   1.827  22.140  0.00  0.00    -0.040 A 
ATOM     18  C   UNL     1       9.371   3.005  22.759  0.00  0.00    -0.015 A 
ATOM     19  C   UNL     1      10.741   3.192  23.057  0.00  0.00    +0.009 A 
ATOM     20  C   UNL     1      11.209   4.352  23.681  0.00  0.00    +0.001 A 
ATOM     21  C   UNL     1      10.321   5.363  24.016  0.00  0.00    +0.001 A 
ATOM     22  C   UNL     1       8.967   5.216  23.726  0.00  0.00    +0.008 A 
ATOM     23  C   UNL     1       8.481   4.053  23.106  0.00  0.00    -0.018 A 
ATOM     24  C   UNL     1       7.112   3.928  22.839  0.00  0.00    +0.008 A 
ATOM     25  C   UNL     1       6.606   2.778  22.246  0.00  0.00    +0.001 A 
ATOM     26  C   UNL     1       7.465   1.738  21.903  0.00  0.00    +0.004 A 
ENDBRANCH  16  17
ENDBRANCH  15  16
ENDBRANCH   1  15
TORSDOF 7
ENDMDL
MODEL 8
REMARK VINA RESULT:      -6.5      3.781      7.232
REMARK  Name = 
REMARK  7 active torsions:
REMARK  status: ('A' for Active; 'I' for Inactive)
REMARK    1  A    between atoms: C_2  and  C_3
REMARK    2  A    between atoms: C_2  and  C_5
REMARK    3  A    between atoms: C_2  and  N_17
REMARK    4  A    between atoms: C_3  and  O_4
REMARK    5  A    between atoms: C_5  and  C_6
REMARK    6  A    between atoms: C_6  and  C_7
REMARK    7  A    between atoms: C_20  and  C_22
REMARK                            x       y       z     vdW  Elec       q    Type
REMARK                         _______ _______ _______ _____ _____    ______ ____
ROOT
ATOM      1  C   UNL     1       9.630  -0.875  24.651  0.00  0.00    +0.114 C 
ENDROOT
BRANCH   1   2
ATOM      2  N   UNL     1       9.936   0.316  23.871  0.00  0.00    -0.331 N 
ATOM      3  C   UNL     1      10.367   1.506  24.387  0.00  0.00    +0.120 A 
ATOM      4  C   UNL     1      10.488   2.357  23.307  0.00  0.00    +0.143 A 
ATOM      5  N   UNL     1      10.148   1.687  22.140  0.00  0.00    -0.231 NA
ATOM      6  C   UNL     1       9.833   0.466  22.515  0.00  0.00    +0.200 A 
BRANCH   4   7
ATOM      7  C   UNL     1      10.897   3.759  23.355  0.00  0.00    +0.261 C 
ATOM      8  O   UNL     1      12.062   4.139  23.344  0.00  0.00    -0.269 OA
ATOM      9  N   UNL     1       9.853   4.634  23.424  0.00  0.00    -0.324 N 
ATOM     10  H   UNL     1      10.039   5.624  23.488  0.00  0.00    +0.145 HD
ATOM     11  H   UNL     1       8.906   4.275  23.446  0.00  0.00    +0.145 HD
ENDBRANCH   4   7
ENDBRANCH   1   2
BRANCH   1  12
ATOM     12  C   UNL     1       8.587  -0.568  25.738  0.00  0.00    +0.180 C 
BRANCH  12  13
ATOM     13  O   UNL     1       9.164  -0.640  27.040  0.00  0.00    -0.393 OA
ATOM     14  H   UNL     1       8.944   0.181  27.515  0.00  0.00    +0.209 HD
ENDBRANCH  12  13
ENDBRANCH   1  12
BRANCH   1  15
ATOM     15  C   UNL     1       9.201  -2.078  23.789  0.00  0.00    +0.032 C 
BRANCH  15  16
ATOM     16  C   UNL     1       9.490  -3.426  24.463  0.00  0.00    +0.038 C 
BRANCH  16  17
ATOM     17  C   UNL     1       8.302  -4.171  25.054  0.00  0.00    -0.040 A 
ATOM     18  C   UNL     1       7.332  -4.762  24.187  0.00  0.00    -0.015 A 
ATOM     19  C   UNL     1       7.392  -4.690  22.775  0.00  0.00    +0.009 A 
ATOM     20  C   UNL     1       6.411  -5.266  21.964  0.00  0.00    +0.001 A 
ATOM     21  C   UNL     1       5.346  -5.941  22.540  0.00  0.00    +0.001 A 
ATOM     22  C   UNL     1       5.262  -6.042  23.926  0.00  0.00    +0.008 A 
ATOM     23  C   UNL     1       6.236  -5.460  24.755  0.00  0.00    -0.018 A 
ATOM     24  C   UNL     1       6.118  -5.567  26.146  0.00  0.00    +0.008 A 
ATOM     25  C   UNL     1       7.058  -4.982  26.986  0.00  0.00    +0.001 A 
ATOM     26  C   UNL     1       8.137  -4.289  26.445  0.00  0.00    +0.004 A 
ENDBRANCH  16  17
ENDBRANCH  15  16
ENDBRANCH   1  15
TORSDOF 7
ENDMDL
MODEL 9
REMARK VINA RESULT:      -6.5      1.625      3.723
REMARK  Name = 
REMARK  7 active torsions:
REMARK  status: ('A' for Active; 'I' for Inactive)
REMARK    1  A    between atoms: C_2  and  C_3
REMARK    2  A    between atoms: C_2  and  C_5
REMARK    3  A    between atoms: C_2  and  N_17
REMARK    4  A    between atoms: C_3  and  O_4
REMARK    5  A    between atoms: C_5  and  C_6
REMARK    6  A    between atoms: C_6  and  C_7
REMARK    7  A    between atoms: C_20  and  C_22
REMARK                            x       y       z     vdW  Elec       q    Type
REMARK                         _______ _______ _______ _____ _____    ______ ____
ROOT
ATOM      1  C   UNL     1       6.985  -4.586  22.627  0.00  0.00    +0.114 C 
ENDROOT
BRANCH   1   2
ATOM      2  N   UNL     1       6.342  -4.790  23.916  0.00  0.00    -0.331 N 
ATOM      3  C   UNL     1       6.922  -5.384  25.002  0.00  0.00    +0.120 A 
ATOM      4  C   UNL     1       5.948  -5.405  25.979  0.00  0.00    +0.143 A 
ATOM      5  N   UNL     1       4.787  -4.814  25.498  0.00  0.00    -0.231 NA
ATOM      6  C   UNL     1       5.063  -4.450  24.265  0.00  0.00    +0.200 A 
BRANCH   4   7
ATOM      7  C   UNL     1       6.083  -5.967  27.321  0.00  0.00    +0.261 C 
ATOM      8  O   UNL     1       6.814  -5.509  28.191  0.00  0.00    -0.269 OA
ATOM      9  N   UNL     1       5.319  -7.078  27.531  0.00  0.00    -0.324 N 
ATOM     10  H   UNL     1       5.367  -7.551  28.420  0.00  0.00    +0.145 HD
ATOM     11  H   UNL     1       4.741  -7.431  26.779  0.00  0.00    +0.145 HD
ENDBRANCH   4   7
ENDBRANCH   1   2
BRANCH   1  12
ATOM     12  C   UNL     1       6.270  -5.383  21.523  0.00  0.00    +0.180 C 
BRANCH  12  13
ATOM     13  O   UNL     1       6.184  -6.766  21.859  0.00  0.00    -0.393 OA
ATOM     14  H   UNL     1       5.319  -6.923  22.277  0.00  0.00    +0.209 HD
ENDBRANCH  12  13
ENDBRANCH   1  12
BRANCH   1  15
ATOM     15  C   UNL     1       7.129  -3.102  22.242  0.00  0.00    +0.032 C 
BRANCH  15  16
ATOM     16  C   UNL     1       8.568  -2.585  22.389  0.00  0.00    +0.038 C 
BRANCH  16  17
ATOM     17  C   UNL     1       8.854  -1.667  23.567  0.00  0.00    -0.040 A 
ATOM     18  C   UNL     1       9.292  -0.326  23.334  0.00  0.00    -0.015 A 
ATOM     19  C   UNL     1       9.498   0.219  22.044  0.00  0.00    +0.009 A 
ATOM     20  C   UNL     1       9.945   1.531  21.861  0.00  0.00    +0.001 A 
ATOM     21  C   UNL     1      10.190   2.338  22.961  0.00  0.00    +0.001 A 
ATOM     22  C   UNL     1       9.986   1.837  24.244  0.00  0.00    +0.008 A 
ATOM     23  C   UNL     1       9.545   0.519  24.445  0.00  0.00    -0.018 A 
ATOM     24  C   UNL     1       9.361   0.038  25.747  0.00  0.00    +0.008 A 
ATOM     25  C   UNL     1       8.944  -1.269  25.970  0.00  0.00    +0.001 A 
ATOM     26  C   UNL     1       8.697  -2.112  24.891  0.00  0.00    +0.004 A 
ENDBRANCH  16  17
ENDBRANCH  15  16
ENDBRANCH   1  15
TORSDOF 7
ENDMDL
