MODEL 1
REMARK VINA RESULT:      -7.4      0.000      0.000
REMARK  Name = 
REMARK  7 active torsions:
REMARK  status: ('A' for Active; 'I' for Inactive)
REMARK    1  A    between atoms: C_1  and  C_2
REMARK    2  A    between atoms: C_2  and  C_3
REMARK    3  A    between atoms: C_4  and  O_5
REMARK    4  A    between atoms: C_7  and  O_8
REMARK    5  A    between atoms: C_9  and  C_11
REMARK    6  A    between atoms: C_12  and  C_17
REMARK    7  A    between atoms: C_13  and  C_14
REMARK                            x       y       z     vdW  Elec       q    Type
REMARK                         _______ _______ _______ _____ _____    ______ ____
ROOT
ATOM      1  C   UNL     1       8.169   4.997  23.433  0.00  0.00    +0.077 A 
ATOM      2  N   UNL     1       7.118   5.852  23.204  0.00  0.00    -0.276 N 
ATOM      3  H   UNL     1       7.157   6.867  23.261  0.00  0.00    +0.189 HD
ATOM      4  N   UNL     1       5.963   5.280  22.870  0.00  0.00    -0.178 NA
ATOM      5  C   UNL     1       6.278   3.981  22.771  0.00  0.00    +0.068 A 
ATOM      6  C   UNL     1       5.177   3.079  22.346  0.00  0.00    +0.068 C 
ATOM      7  C   UNL     1       7.662   3.729  23.106  0.00  0.00    +0.030 A 
ENDROOT
BRANCH   7   8
ATOM      8  C   UNL     1       8.404   2.458  23.056  0.00  0.00    -0.010 A 
ATOM      9  C   UNL     1       8.310   1.536  24.109  0.00  0.00    +0.058 A 
ATOM     10  C   UNL     1       8.823   0.245  23.979  0.00  0.00    +0.163 A 
ATOM     11  C   UNL     1       9.621  -0.095  22.886  0.00  0.00    +0.162 A 
ATOM     12  O   UNL     1      10.195  -1.329  22.725  0.00  0.00    -0.485 OA
ATOM     13  C   UNL     1       9.936  -2.201  23.836  0.00  0.00    +0.270 C 
ATOM     14  C   UNL     1       8.528  -1.990  24.369  0.00  0.00    +0.270 C 
ATOM     15  C   UNL     1       9.802   0.830  21.868  0.00  0.00    +0.050 A 
ATOM     16  O   UNL     1       8.447  -0.671  24.931  0.00  0.00    -0.485 OA
ATOM     17  C   UNL     1       9.145   2.066  21.924  0.00  0.00    +0.012 A 
ENDBRANCH   7   8
BRANCH   1  20
ATOM     18  C   UNL     1      11.899   5.627  23.950  0.00  0.00    -0.005 A 
ATOM     19  C   UNL     1      10.680   5.109  23.465  0.00  0.00    +0.020 A 
ATOM     20  C   UNL     1       9.439   5.572  23.926  0.00  0.00    +0.042 A 
ATOM     21  C   UNL     1       9.456   6.563  24.932  0.00  0.00    +0.129 A 
ATOM     22  C   UNL     1      10.649   7.025  25.486  0.00  0.00    +0.091 A 
ATOM     23  C   UNL     1      11.858   6.534  25.011  0.00  0.00    +0.124 A 
BRANCH  18  25
ATOM     24  C   UNL     1      13.255   5.679  21.821  0.00  0.00    +0.009 C 
ATOM     25  C   UNL     1      13.184   5.231  23.269  0.00  0.00    +0.035 C 
ENDBRANCH  18  25
BRANCH  21  26
ATOM     26  O   UNL     1       8.274   7.073  25.417  0.00  0.00    -0.506 OA
ATOM     27  H   UNL     1       8.263   6.956  26.384  0.00  0.00    +0.292 HD
ENDBRANCH  21  26
BRANCH  23  28
ATOM     28  O   UNL     1      12.983   6.976  25.645  0.00  0.00    -0.506 OA
ATOM     29  H   UNL     1      13.155   6.386  26.399  0.00  0.00    +0.292 HD
ENDBRANCH  23  28
ENDBRANCH   1  20
TORSDOF 5
ENDMDL
MODEL 2
REMARK VINA RESULT:      -7.2      2.290      5.121
REMARK  Name = 
REMARK  7 active torsions:
REMARK  status: ('A' for Active; 'I' for Inactive)
REMARK    1  A    between atoms: C_1  and  C_2
REMARK    2  A    between atoms: C_2  and  C_3
REMARK    3  A    between atoms: C_4  and  O_5
REMARK    4  A    between atoms: C_7  and  O_8
REMARK    5  A    between atoms: C_9  and  C_11
REMARK    6  A    between atoms: C_12  and  C_17
REMARK    7  A    between atoms: C_13  and  C_14
REMARK                            x       y       z     vdW  Elec       q    Type
REMARK                         _______ _______ _______ _____ _____    ______ ____
ROOT
ATOM      1  C   UNL     1       8.407   4.274  23.677  0.00  0.00    +0.077 A 
ATOM      2  N   UNL     1       8.768   5.580  23.903  0.00  0.00    -0.276 N 
ATOM      3  H   UNL     1       8.136   6.332  24.167  0.00  0.00    +0.189 HD
ATOM      4  N   UNL     1      10.063   5.859  23.769  0.00  0.00    -0.178 NA
ATOM      5  C   UNL     1      10.615   4.659  23.539  0.00  0.00    +0.068 A 
ATOM      6  C   UNL     1      12.095   4.644  23.401  0.00  0.00    +0.068 C 
ATOM      7  C   UNL     1       9.626   3.607  23.476  0.00  0.00    +0.030 A 
ENDROOT
BRANCH   7   8
ATOM      8  C   UNL     1       9.832   2.159  23.308  0.00  0.00    -0.010 A 
ATOM      9  C   UNL     1       9.815   1.303  24.419  0.00  0.00    +0.058 A 
ATOM     10  C   UNL     1       9.787  -0.083  24.256  0.00  0.00    +0.163 A 
ATOM     11  C   UNL     1       9.984  -0.654  22.998  0.00  0.00    +0.162 A 
ATOM     12  O   UNL     1      10.018  -2.006  22.779  0.00  0.00    -0.485 OA
ATOM     13  C   UNL     1       9.893  -2.759  23.995  0.00  0.00    +0.270 C 
ATOM     14  C   UNL     1       8.922  -2.084  24.950  0.00  0.00    +0.270 C 
ATOM     15  C   UNL     1      10.091   0.174  21.889  0.00  0.00    +0.050 A 
ATOM     16  O   UNL     1       9.489  -0.833  25.367  0.00  0.00    -0.485 OA
ATOM     17  C   UNL     1       9.949   1.560  22.038  0.00  0.00    +0.012 A 
ENDBRANCH   7   8
BRANCH   1  20
ATOM     18  C   UNL     1       5.072   2.671  24.618  0.00  0.00    -0.005 A 
ATOM     19  C   UNL     1       6.437   3.023  24.613  0.00  0.00    +0.020 A 
ATOM     20  C   UNL     1       6.967   3.938  23.691  0.00  0.00    +0.042 A 
ATOM     21  C   UNL     1       6.078   4.472  22.733  0.00  0.00    +0.129 A 
ATOM     22  C   UNL     1       4.743   4.070  22.666  0.00  0.00    +0.091 A 
ATOM     23  C   UNL     1       4.260   3.153  23.589  0.00  0.00    +0.124 A 
BRANCH  18  25
ATOM     24  C   UNL     1       5.198   0.483  25.872  0.00  0.00    +0.009 C 
ATOM     25  C   UNL     1       4.535   1.843  25.758  0.00  0.00    +0.035 C 
ENDBRANCH  18  25
BRANCH  21  26
ATOM     26  O   UNL     1       6.528   5.387  21.810  0.00  0.00    -0.506 OA
ATOM     27  H   UNL     1       6.904   6.147  22.289  0.00  0.00    +0.292 HD
ENDBRANCH  21  26
BRANCH  23  28
ATOM     28  O   UNL     1       2.966   2.751  23.423  0.00  0.00    -0.506 OA
ATOM     29  H   UNL     1       2.669   2.343  24.255  0.00  0.00    +0.292 HD
ENDBRANCH  23  28
ENDBRANCH   1  20
TORSDOF 5
ENDMDL
MODEL 3
REMARK VINA RESULT:      -7.0      4.884      7.852
REMARK  Name = 
REMARK  7 active torsions:
REMARK  status: ('A' for Active; 'I' for Inactive)
REMARK    1  A    between atoms: C_1  and  C_2
REMARK    2  A    between atoms: C_2  and  C_3
REMARK    3  A    between atoms: C_4  and  O_5
REMARK    4  A    between atoms: C_7  and  O_8
REMARK    5  A    between atoms: C_9  and  C_11
REMARK    6  A    between atoms: C_12  and  C_17
REMARK    7  A    between atoms: C_13  and  C_14
REMARK                            x       y       z     vdW  Elec       q    Type
REMARK                         _______ _______ _______ _____ _____    ______ ____
ROOT
ATOM      1  C   UNL     1       8.772  -2.395  23.786  0.00  0.00    +0.077 A 
ATOM      2  N   UNL     1      10.050  -2.810  24.069  0.00  0.00    -0.276 N 
ATOM      3  H   UNL     1      10.892  -2.249  23.965  0.00  0.00    +0.189 HD
ATOM      4  N   UNL     1      10.172  -4.055  24.526  0.00  0.00    -0.178 NA
ATOM      5  C   UNL     1       8.902  -4.463  24.652  0.00  0.00    +0.068 A 
ATOM      6  C   UNL     1       8.713  -5.828  25.209  0.00  0.00    +0.068 C 
ATOM      7  C   UNL     1       7.960  -3.459  24.210  0.00  0.00    +0.030 A 
ENDROOT
BRANCH   7   8
ATOM      8  C   UNL     1       6.488  -3.497  24.249  0.00  0.00    -0.010 A 
ATOM      9  C   UNL     1       5.770  -4.266  23.322  0.00  0.00    +0.058 A 
ATOM     10  C   UNL     1       4.401  -4.487  23.481  0.00  0.00    +0.163 A 
ATOM     11  C   UNL     1       3.676  -3.786  24.445  0.00  0.00    +0.162 A 
ATOM     12  O   UNL     1       2.324  -3.921  24.619  0.00  0.00    -0.485 OA
ATOM     13  C   UNL     1       1.736  -4.813  23.658  0.00  0.00    +0.270 C 
ATOM     14  C   UNL     1       2.668  -5.976  23.363  0.00  0.00    +0.270 C 
ATOM     15  C   UNL     1       4.351  -2.951  25.323  0.00  0.00    +0.050 A 
ATOM     16  O   UNL     1       3.836  -5.467  22.701  0.00  0.00    -0.485 OA
ATOM     17  C   UNL     1       5.749  -2.862  25.266  0.00  0.00    +0.012 A 
ENDBRANCH   7   8
BRANCH   1  20
ATOM     18  C   UNL     1       7.422   1.092  23.014  0.00  0.00    -0.005 A 
ATOM     19  C   UNL     1       7.623  -0.165  23.621  0.00  0.00    +0.020 A 
ATOM     20  C   UNL     1       8.593  -1.067  23.161  0.00  0.00    +0.042 A 
ATOM     21  C   UNL     1       9.347  -0.679  22.031  0.00  0.00    +0.129 A 
ATOM     22  C   UNL     1       9.104   0.521  21.364  0.00  0.00    +0.091 A 
ATOM     23  C   UNL     1       8.126   1.382  21.843  0.00  0.00    +0.124 A 
BRANCH  18  25
ATOM     24  C   UNL     1       5.537   1.448  24.656  0.00  0.00    +0.009 C 
ATOM     25  C   UNL     1       6.508   2.088  23.681  0.00  0.00    +0.035 C 
ENDBRANCH  18  25
BRANCH  21  26
ATOM     26  O   UNL     1      10.327  -1.510  21.538  0.00  0.00    -0.506 OA
ATOM     27  H   UNL     1      11.194  -1.140  21.783  0.00  0.00    +0.292 HD
ENDBRANCH  21  26
BRANCH  23  28
ATOM     28  O   UNL     1       7.892   2.506  21.103  0.00  0.00    -0.506 OA
ATOM     29  H   UNL     1       7.351   2.253  20.336  0.00  0.00    +0.292 HD
ENDBRANCH  23  28
ENDBRANCH   1  20
TORSDOF 5
ENDMDL
MODEL 4
REMARK VINA RESULT:      -6.9      4.669      7.555
REMARK  Name = 
REMARK  7 active torsions:
REMARK  status: ('A' for Active; 'I' for Inactive)
REMARK    1  A    between atoms: C_1  and  C_2
REMARK    2  A    between atoms: C_2  and  C_3
REMARK    3  A    between atoms: C_4  and  O_5
REMARK    4  A    between atoms: C_7  and  O_8
REMARK    5  A    between atoms: C_9  and  C_11
REMARK    6  A    between atoms: C_12  and  C_17
REMARK    7  A    between atoms: C_13  and  C_14
REMARK                            x       y       z     vdW  Elec       q    Type
REMARK                         _______ _______ _______ _____ _____    ______ ____
ROOT
ATOM      1  C   UNL     1       6.580  -2.649  23.048  0.00  0.00    +0.077 A 
ATOM      2  N   UNL     1       6.293  -2.738  21.708  0.00  0.00    -0.276 N 
ATOM      3  H   UNL     1       6.495  -2.026  21.010  0.00  0.00    +0.189 HD
ATOM      4  N   UNL     1       5.710  -3.867  21.310  0.00  0.00    -0.178 NA
ATOM      5  C   UNL     1       5.695  -4.616  22.420  0.00  0.00    +0.068 A 
ATOM      6  C   UNL     1       5.142  -5.987  22.270  0.00  0.00    +0.068 C 
ATOM      7  C   UNL     1       6.239  -3.911  23.560  0.00  0.00    +0.030 A 
ENDROOT
BRANCH   7   8
ATOM      8  C   UNL     1       6.455  -4.406  24.930  0.00  0.00    -0.010 A 
ATOM      9  C   UNL     1       5.369  -4.620  25.791  0.00  0.00    +0.058 A 
ATOM     10  C   UNL     1       5.536  -5.292  27.003  0.00  0.00    +0.163 A 
ATOM     11  C   UNL     1       6.813  -5.584  27.483  0.00  0.00    +0.162 A 
ATOM     12  O   UNL     1       7.046  -6.196  28.686  0.00  0.00    -0.485 OA
ATOM     13  C   UNL     1       5.834  -6.441  29.417  0.00  0.00    +0.270 C 
ATOM     14  C   UNL     1       4.707  -6.833  28.477  0.00  0.00    +0.270 C 
ATOM     15  C   UNL     1       7.914  -5.303  26.686  0.00  0.00    +0.050 A 
ATOM     16  O   UNL     1       4.394  -5.705  27.646  0.00  0.00    -0.485 OA
ATOM     17  C   UNL     1       7.729  -4.782  25.398  0.00  0.00    +0.012 A 
ENDBRANCH   7   8
BRANCH   1  20
ATOM     18  C   UNL     1       8.941   0.266  23.756  0.00  0.00    -0.005 A 
ATOM     19  C   UNL     1       8.410  -0.937  23.248  0.00  0.00    +0.020 A 
ATOM     20  C   UNL     1       7.113  -1.370  23.563  0.00  0.00    +0.042 A 
ATOM     21  C   UNL     1       6.364  -0.563  24.447  0.00  0.00    +0.129 A 
ATOM     22  C   UNL     1       6.903   0.584  25.030  0.00  0.00    +0.091 A 
ATOM     23  C   UNL     1       8.194   0.973  24.702  0.00  0.00    +0.124 A 
BRANCH  18  25
ATOM     24  C   UNL     1      10.097   1.747  22.070  0.00  0.00    +0.009 C 
ATOM     25  C   UNL     1      10.257   0.769  23.219  0.00  0.00    +0.035 C 
ENDBRANCH  18  25
BRANCH  21  26
ATOM     26  O   UNL     1       5.079  -0.921  24.785  0.00  0.00    -0.506 OA
ATOM     27  H   UNL     1       4.487  -0.178  24.569  0.00  0.00    +0.292 HD
ENDBRANCH  21  26
BRANCH  23  28
ATOM     28  O   UNL     1       8.684   2.064  25.360  0.00  0.00    -0.506 OA
ATOM     29  H   UNL     1       9.228   1.748  26.102  0.00  0.00    +0.292 HD
ENDBRANCH  23  28
ENDBRANCH   1  20
TORSDOF 5
ENDMDL
MODEL 5
REMARK VINA RESULT:      -6.8      4.223      6.138
REMARK  Name = 
REMARK  7 active torsions:
REMARK  status: ('A' for Active; 'I' for Inactive)
REMARK    1  A    between atoms: C_1  and  C_2
REMARK    2  A    between atoms: C_2  and  C_3
REMARK    3  A    between atoms: C_4  and  O_5
REMARK    4  A    between atoms: C_7  and  O_8
REMARK    5  A    between atoms: C_9  and  C_11
REMARK    6  A    between atoms: C_12  and  C_17
REMARK    7  A    between atoms: C_13  and  C_14
REMARK                            x       y       z     vdW  Elec       q    Type
REMARK                         _______ _______ _______ _____ _____    ______ ____
ROOT
ATOM      1  C   UNL     1       5.844   0.026  24.845  0.00  0.00    +0.077 A 
ATOM      2  N   UNL     1       5.075   0.913  25.557  0.00  0.00    -0.276 N 
ATOM      3  H   UNL     1       5.061   1.922  25.428  0.00  0.00    +0.189 HD
ATOM      4  N   UNL     1       4.281   0.383  26.485  0.00  0.00    -0.178 NA
ATOM      5  C   UNL     1       4.449  -0.936  26.320  0.00  0.00    +0.068 A 
ATOM      6  C   UNL     1       3.628  -1.808  27.198  0.00  0.00    +0.068 C 
ATOM      7  C   UNL     1       5.420  -1.236  25.291  0.00  0.00    +0.030 A 
ENDROOT
BRANCH   7   8
ATOM      8  C   UNL     1       5.831  -2.551  24.770  0.00  0.00    -0.010 A 
ATOM      9  C   UNL     1       5.212  -3.094  23.635  0.00  0.00    +0.058 A 
ATOM     10  C   UNL     1       5.735  -4.224  23.005  0.00  0.00    +0.163 A 
ATOM     11  C   UNL     1       6.760  -4.960  23.601  0.00  0.00    +0.162 A 
ATOM     12  O   UNL     1       7.282  -6.104  23.058  0.00  0.00    -0.485 OA
ATOM     13  C   UNL     1       6.613  -6.489  21.848  0.00  0.00    +0.270 C 
ATOM     14  C   UNL     1       6.233  -5.266  21.029  0.00  0.00    +0.270 C 
ATOM     15  C   UNL     1       7.335  -4.490  24.773  0.00  0.00    +0.050 A 
ATOM     16  O   UNL     1       5.244  -4.521  21.756  0.00  0.00    -0.485 OA
ATOM     17  C   UNL     1       6.918  -3.265  25.312  0.00  0.00    +0.012 A 
ENDBRANCH   7   8
BRANCH   1  20
ATOM     18  C   UNL     1       9.096   0.588  22.926  0.00  0.00    -0.005 A 
ATOM     19  C   UNL     1       8.135   0.058  23.811  0.00  0.00    +0.020 A 
ATOM     20  C   UNL     1       6.832   0.571  23.890  0.00  0.00    +0.042 A 
ATOM     21  C   UNL     1       6.526   1.675  23.064  0.00  0.00    +0.129 A 
ATOM     22  C   UNL     1       7.487   2.269  22.247  0.00  0.00    +0.091 A 
ATOM     23  C   UNL     1       8.769   1.739  22.206  0.00  0.00    +0.124 A 
BRANCH  18  25
ATOM     24  C   UNL     1      10.264  -1.647  22.802  0.00  0.00    +0.009 C 
ATOM     25  C   UNL     1      10.406  -0.137  22.749  0.00  0.00    +0.035 C 
ENDBRANCH  18  25
BRANCH  21  26
ATOM     26  O   UNL     1       5.261   2.217  23.079  0.00  0.00    -0.506 OA
ATOM     27  H   UNL     1       5.076   2.588  22.198  0.00  0.00    +0.292 HD
ENDBRANCH  21  26
BRANCH  23  28
ATOM     28  O   UNL     1       9.679   2.411  21.440  0.00  0.00    -0.506 OA
ATOM     29  H   UNL     1       9.329   3.302  21.270  0.00  0.00    +0.292 HD
ENDBRANCH  23  28
ENDBRANCH   1  20
TORSDOF 5
ENDMDL
MODEL 6
REMARK VINA RESULT:      -6.8      4.376      7.342
REMARK  Name = 
REMARK  7 active torsions:
REMARK  status: ('A' for Active; 'I' for Inactive)
REMARK    1  A    between atoms: C_1  and  C_2
REMARK    2  A    between atoms: C_2  and  C_3
REMARK    3  A    between atoms: C_4  and  O_5
REMARK    4  A    between atoms: C_7  and  O_8
REMARK    5  A    between atoms: C_9  and  C_11
REMARK    6  A    between atoms: C_12  and  C_17
REMARK    7  A    between atoms: C_13  and  C_14
REMARK                            x       y       z     vdW  Elec       q    Type
REMARK                         _______ _______ _______ _____ _____    ______ ____
ROOT
ATOM      1  C   UNL     1       8.981  -2.212  24.308  0.00  0.00    +0.077 A 
ATOM      2  N   UNL     1      10.011  -3.109  24.162  0.00  0.00    -0.276 N 
ATOM      3  H   UNL     1      10.907  -2.915  23.720  0.00  0.00    +0.189 HD
ATOM      4  N   UNL     1       9.800  -4.326  24.657  0.00  0.00    -0.178 NA
ATOM      5  C   UNL     1       8.606  -4.214  25.256  0.00  0.00    +0.068 A 
ATOM      6  C   UNL     1       8.120  -5.427  25.964  0.00  0.00    +0.068 C 
ATOM      7  C   UNL     1       8.032  -2.898  25.082  0.00  0.00    +0.030 A 
ENDROOT
BRANCH   7   8
ATOM      8  C   UNL     1       6.778  -2.362  25.637  0.00  0.00    -0.010 A 
ATOM      9  C   UNL     1       5.543  -2.700  25.064  0.00  0.00    +0.058 A 
ATOM     10  C   UNL     1       4.344  -2.382  25.705  0.00  0.00    +0.163 A 
ATOM     11  C   UNL     1       4.336  -1.546  26.822  0.00  0.00    +0.162 A 
ATOM     12  O   UNL     1       3.191  -1.157  27.466  0.00  0.00    -0.485 OA
ATOM     13  C   UNL     1       2.008  -1.655  26.823  0.00  0.00    +0.270 C 
ATOM     14  C   UNL     1       2.237  -3.058  26.285  0.00  0.00    +0.270 C 
ATOM     15  C   UNL     1       5.544  -1.126  27.360  0.00  0.00    +0.050 A 
ATOM     16  O   UNL     1       3.207  -2.987  25.229  0.00  0.00    -0.485 OA
ATOM     17  C   UNL     1       6.750  -1.585  26.812  0.00  0.00    +0.012 A 
ENDBRANCH   7   8
BRANCH   1  20
ATOM     18  C   UNL     1       8.955   1.567  23.767  0.00  0.00    -0.005 A 
ATOM     19  C   UNL     1       8.860   0.298  24.375  0.00  0.00    +0.020 A 
ATOM     20  C   UNL     1       9.116  -0.886  23.668  0.00  0.00    +0.042 A 
ATOM     21  C   UNL     1       9.441  -0.760  22.299  0.00  0.00    +0.129 A 
ATOM     22  C   UNL     1       9.455   0.479  21.659  0.00  0.00    +0.091 A 
ATOM     23  C   UNL     1       9.185   1.627  22.391  0.00  0.00    +0.124 A 
BRANCH  18  25
ATOM     24  C   UNL     1       7.716   2.754  25.619  0.00  0.00    +0.009 C 
ATOM     25  C   UNL     1       8.867   2.799  24.631  0.00  0.00    +0.035 C 
ENDBRANCH  18  25
BRANCH  21  26
ATOM     26  O   UNL     1       9.720  -1.881  21.551  0.00  0.00    -0.506 OA
ATOM     27  H   UNL     1       9.068  -1.939  20.830  0.00  0.00    +0.292 HD
ENDBRANCH  21  26
BRANCH  23  28
ATOM     28  O   UNL     1       9.146   2.798  21.689  0.00  0.00    -0.506 OA
ATOM     29  H   UNL     1       9.234   2.585  20.744  0.00  0.00    +0.292 HD
ENDBRANCH  23  28
ENDBRANCH   1  20
TORSDOF 5
ENDMDL
MODEL 7
REMARK VINA RESULT:      -6.7      2.101      4.686
REMARK  Name = 
REMARK  7 active torsions:
REMARK  status: ('A' for Active; 'I' for Inactive)
REMARK    1  A    between atoms: C_1  and  C_2
REMARK    2  A    between atoms: C_2  and  C_3
REMARK    3  A    between atoms: C_4  and  O_5
REMARK    4  A    between atoms: C_7  and  O_8
REMARK    5  A    between atoms: C_9  and  C_11
REMARK    6  A    between atoms: C_12  and  C_17
REMARK    7  A    between atoms: C_13  and  C_14
REMARK                            x       y       z     vdW  Elec       q    Type
REMARK                         _______ _______ _______ _____ _____    ______ ____
ROOT
ATOM      1  C   UNL     1       9.087   4.715  24.345  0.00  0.00    +0.077 A 
ATOM      2  N   UNL     1       9.617   5.967  24.534  0.00  0.00    -0.276 N 
ATOM      3  H   UNL     1       9.162   6.736  25.020  0.00  0.00    +0.189 HD
ATOM      4  N   UNL     1      10.837   6.166  24.038  0.00  0.00    -0.178 NA
ATOM      5  C   UNL     1      11.186   4.956  23.581  0.00  0.00    +0.068 A 
ATOM      6  C   UNL     1      12.553   4.849  23.009  0.00  0.00    +0.068 C 
ATOM      7  C   UNL     1      10.128   3.984  23.750  0.00  0.00    +0.030 A 
ENDROOT
BRANCH   7   8
ATOM      8  C   UNL     1      10.143   2.545  23.439  0.00  0.00    -0.010 A 
ATOM      9  C   UNL     1      10.197   1.593  24.468  0.00  0.00    +0.058 A 
ATOM     10  C   UNL     1       9.990   0.239  24.204  0.00  0.00    +0.163 A 
ATOM     11  C   UNL     1       9.930  -0.227  22.890  0.00  0.00    +0.162 A 
ATOM     12  O   UNL     1       9.778  -1.549  22.564  0.00  0.00    -0.485 OA
ATOM     13  C   UNL     1       9.753  -2.398  23.723  0.00  0.00    +0.270 C 
ATOM     14  C   UNL     1       9.018  -1.723  24.869  0.00  0.00    +0.270 C 
ATOM     15  C   UNL     1       9.961   0.687  21.847  0.00  0.00    +0.050 A 
ATOM     16  O   UNL     1       9.779  -0.579  25.287  0.00  0.00    -0.485 OA
ATOM     17  C   UNL     1      10.000   2.060  22.124  0.00  0.00    +0.012 A 
ENDBRANCH   7   8
BRANCH   1  20
ATOM     18  C   UNL     1       5.403   3.716  24.270  0.00  0.00    -0.005 A 
ATOM     19  C   UNL     1       6.746   3.918  23.891  0.00  0.00    +0.020 A 
ATOM     20  C   UNL     1       7.690   4.479  24.765  0.00  0.00    +0.042 A 
ATOM     21  C   UNL     1       7.229   4.872  26.041  0.00  0.00    +0.129 A 
ATOM     22  C   UNL     1       5.887   4.761  26.403  0.00  0.00    +0.091 A 
ATOM     23  C   UNL     1       4.982   4.211  25.506  0.00  0.00    +0.124 A 
BRANCH  18  25
ATOM     24  C   UNL     1       3.759   3.793  22.355  0.00  0.00    +0.009 C 
ATOM     25  C   UNL     1       4.498   2.927  23.359  0.00  0.00    +0.035 C 
ENDBRANCH  18  25
BRANCH  21  26
ATOM     26  O   UNL     1       8.106   5.413  26.953  0.00  0.00    -0.506 OA
ATOM     27  H   UNL     1       8.578   4.684  27.395  0.00  0.00    +0.292 HD
ENDBRANCH  21  26
BRANCH  23  28
ATOM     28  O   UNL     1       3.673   4.197  25.897  0.00  0.00    -0.506 OA
ATOM     29  H   UNL     1       3.650   4.111  26.865  0.00  0.00    +0.292 HD
ENDBRANCH  23  28
ENDBRANCH   1  20
TORSDOF 5
ENDMDL
MODEL 8
REMARK VINA RESULT:      -6.7      4.616      7.817
REMARK  Name = 
REMARK  7 active torsions:
REMARK  status: ('A' for Active; 'I' for Inactive)
REMARK    1  A    between atoms: C_1  and  C_2
REMARK    2  A    between atoms: C_2  and  C_3
REMARK    3  A    between atoms: C_4  and  O_5
REMARK    4  A    between atoms: C_7  and  O_8
REMARK    5  A    between atoms: C_9  and  C_11
REMARK    6  A    between atoms: C_12  and  C_17
REMARK    7  A    between atoms: C_13  and  C_14
REMARK                            x       y       z     vdW  Elec       q    Type
REMARK                         _______ _______ _______ _____ _____    ______ ____
ROOT
ATOM      1  C   UNL     1       7.035  -2.951  23.099  0.00  0.00    +0.077 A 
ATOM      2  N   UNL     1       6.720  -3.143  21.776  0.00  0.00    -0.276 N 
ATOM      3  H   UNL     1       7.121  -2.635  20.992  0.00  0.00    +0.189 HD
ATOM      4  N   UNL     1       5.816  -4.087  21.523  0.00  0.00    -0.178 NA
ATOM      5  C   UNL     1       5.586  -4.627  22.727  0.00  0.00    +0.068 A 
ATOM      6  C   UNL     1       4.639  -5.772  22.754  0.00  0.00    +0.068 C 
ATOM      7  C   UNL     1       6.331  -3.962  23.773  0.00  0.00    +0.030 A 
ENDROOT
BRANCH   7   8
ATOM      8  C   UNL     1       6.402  -4.294  25.206  0.00  0.00    -0.010 A 
ATOM      9  C   UNL     1       5.397  -3.869  26.087  0.00  0.00    +0.058 A 
ATOM     10  C   UNL     1       5.334  -4.358  27.393  0.00  0.00    +0.163 A 
ATOM     11  C   UNL     1       6.379  -5.119  27.917  0.00  0.00    +0.162 A 
ATOM     12  O   UNL     1       6.401  -5.586  29.205  0.00  0.00    -0.485 OA
ATOM     13  C   UNL     1       5.262  -5.151  29.963  0.00  0.00    +0.270 C 
ATOM     14  C   UNL     1       4.014  -5.129  29.096  0.00  0.00    +0.270 C 
ATOM     15  C   UNL     1       7.431  -5.483  27.089  0.00  0.00    +0.050 A 
ATOM     16  O   UNL     1       4.176  -4.115  28.091  0.00  0.00    -0.485 OA
ATOM     17  C   UNL     1       7.406  -5.130  25.733  0.00  0.00    +0.012 A 
ENDBRANCH   7   8
BRANCH   1  20
ATOM     18  C   UNL     1       8.400   0.578  23.604  0.00  0.00    -0.005 A 
ATOM     19  C   UNL     1       7.537  -0.497  23.306  0.00  0.00    +0.020 A 
ATOM     20  C   UNL     1       7.939  -1.833  23.445  0.00  0.00    +0.042 A 
ATOM     21  C   UNL     1       9.268  -2.065  23.864  0.00  0.00    +0.129 A 
ATOM     22  C   UNL     1      10.163  -1.017  24.078  0.00  0.00    +0.091 A 
ATOM     23  C   UNL     1       9.730   0.293  23.919  0.00  0.00    +0.124 A 
BRANCH  18  25
ATOM     24  C   UNL     1       7.629   2.561  22.243  0.00  0.00    +0.009 C 
ATOM     25  C   UNL     1       7.841   1.978  23.628  0.00  0.00    +0.035 C 
ENDBRANCH  18  25
BRANCH  21  26
ATOM     26  O   UNL     1       9.722  -3.352  24.036  0.00  0.00    -0.506 OA
ATOM     27  H   UNL     1       9.024  -3.965  23.742  0.00  0.00    +0.292 HD
ENDBRANCH  21  26
BRANCH  23  28
ATOM     28  O   UNL     1      10.674   1.267  24.077  0.00  0.00    -0.506 OA
ATOM     29  H   UNL     1      10.286   2.111  23.791  0.00  0.00    +0.292 HD
ENDBRANCH  23  28
ENDBRANCH   1  20
TORSDOF 5
ENDMDL
MODEL 9
REMARK VINA RESULT:      -6.6      2.911      6.374
REMARK  Name = 
REMARK  7 active torsions:
REMARK  status: ('A' for Active; 'I' for Inactive)
REMARK    1  A    between atoms: C_1  and  C_2
REMARK    2  A    between atoms: C_2  and  C_3
REMARK    3  A    between atoms: C_4  and  O_5
REMARK    4  A    between atoms: C_7  and  O_8
REMARK    5  A    between atoms: C_9  and  C_11
REMARK    6  A    between atoms: C_12  and  C_17
REMARK    7  A    between atoms: C_13  and  C_14
REMARK                            x       y       z     vdW  Elec       q    Type
REMARK                         _______ _______ _______ _____ _____    ______ ____
ROOT
ATOM      1  C   UNL     1       9.254   3.376  23.749  0.00  0.00    +0.077 A 
ATOM      2  N   UNL     1      10.372   4.152  23.564  0.00  0.00    -0.276 N 
ATOM      3  H   UNL     1      11.291   3.811  23.290  0.00  0.00    +0.189 HD
ATOM      4  N   UNL     1      10.213   5.460  23.756  0.00  0.00    -0.178 NA
ATOM      5  C   UNL     1       8.898   5.581  23.983  0.00  0.00    +0.068 A 
ATOM      6  C   UNL     1       8.401   6.967  24.180  0.00  0.00    +0.068 C 
ATOM      7  C   UNL     1       8.225   4.302  23.985  0.00  0.00    +0.030 A 
ENDROOT
BRANCH   7   8
ATOM      8  C   UNL     1       6.787   4.019  24.132  0.00  0.00    -0.010 A 
ATOM      9  C   UNL     1       5.871   4.467  23.169  0.00  0.00    +0.058 A 
ATOM     10  C   UNL     1       4.548   4.022  23.177  0.00  0.00    +0.163 A 
ATOM     11  C   UNL     1       4.052   3.287  24.254  0.00  0.00    +0.162 A 
ATOM     12  O   UNL     1       2.753   2.864  24.345  0.00  0.00    -0.485 OA
ATOM     13  C   UNL     1       1.952   3.317  23.242  0.00  0.00    +0.270 C 
ATOM     14  C   UNL     1       2.755   3.301  21.952  0.00  0.00    +0.270 C 
ATOM     15  C   UNL     1       4.921   2.901  25.266  0.00  0.00    +0.050 A 
ATOM     16  O   UNL     1       3.800   4.281  22.054  0.00  0.00    -0.485 OA
ATOM     17  C   UNL     1       6.285   3.208  25.169  0.00  0.00    +0.012 A 
ENDBRANCH   7   8
BRANCH   1  20
ATOM     18  C   UNL     1       9.369  -0.311  24.735  0.00  0.00    -0.005 A 
ATOM     19  C   UNL     1       9.200   1.088  24.790  0.00  0.00    +0.020 A 
ATOM     20  C   UNL     1       9.405   1.907  23.670  0.00  0.00    +0.042 A 
ATOM     21  C   UNL     1       9.827   1.274  22.480  0.00  0.00    +0.129 A 
ATOM     22  C   UNL     1      10.085  -0.095  22.429  0.00  0.00    +0.091 A 
ATOM     23  C   UNL     1       9.882  -0.870  23.563  0.00  0.00    +0.124 A 
BRANCH  18  25
ATOM     24  C   UNL     1       8.042  -0.395  26.881  0.00  0.00    +0.009 C 
ATOM     25  C   UNL     1       8.938  -1.146  25.914  0.00  0.00    +0.035 C 
ENDBRANCH  18  25
BRANCH  21  26
ATOM     26  O   UNL     1      10.031   2.017  21.340  0.00  0.00    -0.506 OA
ATOM     27  H   UNL     1      10.730   1.587  20.814  0.00  0.00    +0.292 HD
ENDBRANCH  21  26
BRANCH  23  28
ATOM     28  O   UNL     1      10.220  -2.190  23.464  0.00  0.00    -0.506 OA
ATOM     29  H   UNL     1       9.663  -2.690  24.085  0.00  0.00    +0.292 HD
ENDBRANCH  23  28
ENDBRANCH   1  20
TORSDOF 5
ENDMDL
