MODEL 1
REMARK VINA RESULT:      -6.9      0.000      0.000
REMARK  Name = 
REMARK  8 active torsions:
REMARK  status: ('A' for Active; 'I' for Inactive)
REMARK    1  A    between atoms: C_2  and  C_3
REMARK    2  A    between atoms: C_2  and  O_4
REMARK    3  A    between atoms: C_2  and  C_5
REMARK    4  A    between atoms: C_5  and  C_7
REMARK    5  A    between atoms: C_5  and  N_17
REMARK    6  A    between atoms: C_7  and  C_8
REMARK    7  A    between atoms: C_8  and  C_9
REMARK    8  A    between atoms: C_20  and  C_22
REMARK                            x       y       z     vdW  Elec       q    Type
REMARK                         _______ _______ _______ _____ _____    ______ ____
ROOT
ATOM      1  C   UNL     1       7.842  -4.405  24.191  0.00  0.00    +0.117 C 
ENDROOT
BRANCH   1   2
ATOM      2  N   UNL     1       7.370  -4.994  25.449  0.00  0.00    -0.331 N 
ATOM      3  C   UNL     1       6.136  -5.550  25.656  0.00  0.00    +0.120 A 
ATOM      4  C   UNL     1       6.130  -5.969  26.975  0.00  0.00    +0.143 A 
ATOM      5  N   UNL     1       7.360  -5.691  27.559  0.00  0.00    -0.231 NA
ATOM      6  C   UNL     1       8.074  -5.114  26.617  0.00  0.00    +0.200 A 
BRANCH   4   7
ATOM      7  C   UNL     1       5.023  -6.602  27.684  0.00  0.00    +0.261 C 
ATOM      8  O   UNL     1       3.842  -6.331  27.497  0.00  0.00    -0.269 OA
ATOM      9  N   UNL     1       5.417  -7.533  28.601  0.00  0.00    -0.324 N 
ATOM     10  H   UNL     1       4.721  -7.995  29.167  0.00  0.00    +0.145 HD
ATOM     11  H   UNL     1       6.403  -7.698  28.742  0.00  0.00    +0.145 HD
ENDBRANCH   4   7
ENDBRANCH   1   2
BRANCH   1  12
ATOM     12  C   UNL     1       6.856  -4.712  23.029  0.00  0.00    +0.134 C 
ATOM     13  C   UNL     1       7.326  -5.864  22.142  0.00  0.00    +0.040 C 
BRANCH  12  14
ATOM     14  O   UNL     1       6.696  -3.564  22.190  0.00  0.00    -0.390 OA
ATOM     15  H   UNL     1       7.580  -3.181  22.041  0.00  0.00    +0.210 HD
ENDBRANCH  12  14
ENDBRANCH   1  12
BRANCH   1  16
ATOM     16  C   UNL     1       8.149  -2.898  24.328  0.00  0.00    +0.032 C 
BRANCH  16  17
ATOM     17  C   UNL     1       9.567  -2.522  23.888  0.00  0.00    +0.039 C 
BRANCH  17  18
ATOM     18  C   UNL     1       9.587  -1.193  23.162  0.00  0.00    -0.028 A 
ATOM     19  C   UNL     1       9.875   0.033  23.794  0.00  0.00    +0.062 A 
ATOM     20 CL   UNL     1      10.301   0.061  25.477  0.00  0.00    -0.082 Cl
ATOM     21  C   UNL     1       9.830   1.228  23.055  0.00  0.00    +0.060 A 
ATOM     22 CL   UNL     1      10.136   2.777  23.765  0.00  0.00    -0.082 Cl
ATOM     23  C   UNL     1       9.525   1.203  21.691  0.00  0.00    +0.021 A 
ATOM     24  C   UNL     1       9.282  -0.010  21.052  0.00  0.00    +0.002 A 
ATOM     25  C   UNL     1       9.315  -1.197  21.781  0.00  0.00    +0.005 A 
ENDBRANCH  17  18
ENDBRANCH  16  17
ENDBRANCH   1  16
TORSDOF 7
ENDMDL
MODEL 2
REMARK VINA RESULT:      -6.8      3.171      4.101
REMARK  Name = 
REMARK  8 active torsions:
REMARK  status: ('A' for Active; 'I' for Inactive)
REMARK    1  A    between atoms: C_2  and  C_3
REMARK    2  A    between atoms: C_2  and  O_4
REMARK    3  A    between atoms: C_2  and  C_5
REMARK    4  A    between atoms: C_5  and  C_7
REMARK    5  A    between atoms: C_5  and  N_17
REMARK    6  A    between atoms: C_7  and  C_8
REMARK    7  A    between atoms: C_8  and  C_9
REMARK    8  A    between atoms: C_20  and  C_22
REMARK                            x       y       z     vdW  Elec       q    Type
REMARK                         _______ _______ _______ _____ _____    ______ ____
ROOT
ATOM      1  C   UNL     1       8.251  -1.976  23.973  0.00  0.00    +0.117 C 
ENDROOT
BRANCH   1   2
ATOM      2  N   UNL     1       7.337  -2.745  23.121  0.00  0.00    -0.331 N 
ATOM      3  C   UNL     1       7.534  -4.033  22.699  0.00  0.00    +0.120 A 
ATOM      4  C   UNL     1       6.431  -4.347  21.924  0.00  0.00    +0.143 A 
ATOM      5  N   UNL     1       5.558  -3.266  21.895  0.00  0.00    -0.231 NA
ATOM      6  C   UNL     1       6.130  -2.333  22.624  0.00  0.00    +0.200 A 
BRANCH   4   7
ATOM      7  C   UNL     1       6.188  -5.602  21.221  0.00  0.00    +0.261 C 
ATOM      8  O   UNL     1       5.973  -5.687  20.017  0.00  0.00    -0.269 OA
ATOM      9  N   UNL     1       6.209  -6.699  22.033  0.00  0.00    -0.324 N 
ATOM     10  H   UNL     1       6.012  -7.608  21.641  0.00  0.00    +0.145 HD
ATOM     11  H   UNL     1       6.358  -6.576  23.024  0.00  0.00    +0.145 HD
ENDBRANCH   4   7
ENDBRANCH   1   2
BRANCH   1  12
ATOM     12  C   UNL     1       7.778  -1.989  25.453  0.00  0.00    +0.134 C 
ATOM     13  C   UNL     1       7.932  -0.631  26.136  0.00  0.00    +0.040 C 
BRANCH  12  14
ATOM     14  O   UNL     1       8.530  -2.939  26.213  0.00  0.00    -0.390 OA
ATOM     15  H   UNL     1       8.282  -2.831  27.149  0.00  0.00    +0.210 HD
ENDBRANCH  12  14
ENDBRANCH   1  12
BRANCH   1  16
ATOM     16  C   UNL     1       9.719  -2.427  23.813  0.00  0.00    +0.032 C 
BRANCH  16  17
ATOM     17  C   UNL     1      10.483  -1.653  22.735  0.00  0.00    +0.039 C 
BRANCH  17  18
ATOM     18  C   UNL     1       9.903  -0.268  22.533  0.00  0.00    -0.028 A 
ATOM     19  C   UNL     1      10.086   0.791  23.445  0.00  0.00    +0.062 A 
ATOM     20 CL   UNL     1      11.075   0.560  24.854  0.00  0.00    -0.082 Cl
ATOM     21  C   UNL     1       9.477   2.035  23.203  0.00  0.00    +0.060 A 
ATOM     22 CL   UNL     1       9.623   3.373  24.291  0.00  0.00    -0.082 Cl
ATOM     23  C   UNL     1       8.712   2.233  22.050  0.00  0.00    +0.021 A 
ATOM     24  C   UNL     1       8.565   1.204  21.124  0.00  0.00    +0.002 A 
ATOM     25  C   UNL     1       9.157  -0.035  21.363  0.00  0.00    +0.005 A 
ENDBRANCH  17  18
ENDBRANCH  16  17
ENDBRANCH   1  16
TORSDOF 7
ENDMDL
MODEL 3
REMARK VINA RESULT:      -6.6      3.289      4.745
REMARK  Name = 
REMARK  8 active torsions:
REMARK  status: ('A' for Active; 'I' for Inactive)
REMARK    1  A    between atoms: C_2  and  C_3
REMARK    2  A    between atoms: C_2  and  O_4
REMARK    3  A    between atoms: C_2  and  C_5
REMARK    4  A    between atoms: C_5  and  C_7
REMARK    5  A    between atoms: C_5  and  N_17
REMARK    6  A    between atoms: C_7  and  C_8
REMARK    7  A    between atoms: C_8  and  C_9
REMARK    8  A    between atoms: C_20  and  C_22
REMARK                            x       y       z     vdW  Elec       q    Type
REMARK                         _______ _______ _______ _____ _____    ______ ____
ROOT
ATOM      1  C   UNL     1       8.861  -0.543  23.683  0.00  0.00    +0.117 C 
ENDROOT
BRANCH   1   2
ATOM      2  N   UNL     1       8.509  -1.949  23.454  0.00  0.00    -0.331 N 
ATOM      3  C   UNL     1       7.606  -2.405  22.532  0.00  0.00    +0.120 A 
ATOM      4  C   UNL     1       7.593  -3.783  22.669  0.00  0.00    +0.143 A 
ATOM      5  N   UNL     1       8.500  -4.163  23.652  0.00  0.00    -0.231 NA
ATOM      6  C   UNL     1       9.029  -3.043  24.093  0.00  0.00    +0.200 A 
BRANCH   4   7
ATOM      7  C   UNL     1       6.765  -4.725  21.924  0.00  0.00    +0.261 C 
ATOM      8  O   UNL     1       5.735  -4.419  21.333  0.00  0.00    -0.269 OA
ATOM      9  N   UNL     1       7.235  -6.006  21.946  0.00  0.00    -0.324 N 
ATOM     10  H   UNL     1       6.707  -6.735  21.489  0.00  0.00    +0.145 HD
ATOM     11  H   UNL     1       8.071  -6.215  22.473  0.00  0.00    +0.145 HD
ENDBRANCH   4   7
ENDBRANCH   1   2
BRANCH   1  12
ATOM     12  C   UNL     1       8.955  -0.232  25.203  0.00  0.00    +0.134 C 
ATOM     13  C   UNL     1       7.918   0.790  25.663  0.00  0.00    +0.040 C 
BRANCH  12  14
ATOM     14  O   UNL     1      10.246   0.290  25.529  0.00  0.00    -0.390 OA
ATOM     15  H   UNL     1      10.886  -0.443  25.469  0.00  0.00    +0.210 HD
ENDBRANCH  12  14
ENDBRANCH   1  12
BRANCH   1  16
ATOM     16  C   UNL     1      10.130  -0.124  22.910  0.00  0.00    +0.032 C 
BRANCH  16  17
ATOM     17  C   UNL     1       9.850   0.835  21.750  0.00  0.00    +0.039 C 
BRANCH  17  18
ATOM     18  C   UNL     1       8.975   1.992  22.186  0.00  0.00    -0.028 A 
ATOM     19  C   UNL     1       9.423   3.030  23.028  0.00  0.00    +0.062 A 
ATOM     20 CL   UNL     1      11.075   3.059  23.563  0.00  0.00    -0.082 Cl
ATOM     21  C   UNL     1       8.532   4.044  23.421  0.00  0.00    +0.060 A 
ATOM     22 CL   UNL     1       8.994   5.332  24.481  0.00  0.00    -0.082 Cl
ATOM     23  C   UNL     1       7.213   4.042  22.960  0.00  0.00    +0.021 A 
ATOM     24  C   UNL     1       6.778   3.044  22.093  0.00  0.00    +0.002 A 
ATOM     25  C   UNL     1       7.652   2.029  21.708  0.00  0.00    +0.005 A 
ENDBRANCH  17  18
ENDBRANCH  16  17
ENDBRANCH   1  16
TORSDOF 7
ENDMDL
MODEL 4
REMARK VINA RESULT:      -6.6      1.361      1.895
REMARK  Name = 
REMARK  8 active torsions:
REMARK  status: ('A' for Active; 'I' for Inactive)
REMARK    1  A    between atoms: C_2  and  C_3
REMARK    2  A    between atoms: C_2  and  O_4
REMARK    3  A    between atoms: C_2  and  C_5
REMARK    4  A    between atoms: C_5  and  C_7
REMARK    5  A    between atoms: C_5  and  N_17
REMARK    6  A    between atoms: C_7  and  C_8
REMARK    7  A    between atoms: C_8  and  C_9
REMARK    8  A    between atoms: C_20  and  C_22
REMARK                            x       y       z     vdW  Elec       q    Type
REMARK                         _______ _______ _______ _____ _____    ______ ____
ROOT
ATOM      1  C   UNL     1       6.987  -4.560  23.444  0.00  0.00    +0.117 C 
ENDROOT
BRANCH   1   2
ATOM      2  N   UNL     1       6.779  -5.125  24.781  0.00  0.00    -0.331 N 
ATOM      3  C   UNL     1       5.603  -5.643  25.255  0.00  0.00    +0.120 A 
ATOM      4  C   UNL     1       5.867  -6.052  26.550  0.00  0.00    +0.143 A 
ATOM      5  N   UNL     1       7.201  -5.806  26.854  0.00  0.00    -0.231 NA
ATOM      6  C   UNL     1       7.712  -5.258  25.774  0.00  0.00    +0.200 A 
BRANCH   4   7
ATOM      7  C   UNL     1       4.920  -6.646  27.488  0.00  0.00    +0.261 C 
ATOM      8  O   UNL     1       3.715  -6.416  27.487  0.00  0.00    -0.269 OA
ATOM      9  N   UNL     1       5.496  -7.489  28.393  0.00  0.00    -0.324 N 
ATOM     10  H   UNL     1       4.924  -7.916  29.105  0.00  0.00    +0.145 HD
ATOM     11  H   UNL     1       6.497  -7.621  28.374  0.00  0.00    +0.145 HD
ENDBRANCH   4   7
ENDBRANCH   1   2
BRANCH   1  12
ATOM     12  C   UNL     1       5.881  -5.036  22.460  0.00  0.00    +0.134 C 
ATOM     13  C   UNL     1       6.439  -5.845  21.290  0.00  0.00    +0.040 C 
BRANCH  12  14
ATOM     14  O   UNL     1       5.181  -3.916  21.912  0.00  0.00    -0.390 OA
ATOM     15  H   UNL     1       5.579  -3.713  21.045  0.00  0.00    +0.210 HD
ENDBRANCH  12  14
ENDBRANCH   1  12
BRANCH   1  16
ATOM     16  C   UNL     1       7.135  -3.024  23.473  0.00  0.00    +0.032 C 
BRANCH  16  17
ATOM     17  C   UNL     1       8.382  -2.516  22.744  0.00  0.00    +0.039 C 
BRANCH  17  18
ATOM     18  C   UNL     1       8.966  -1.298  23.427  0.00  0.00    -0.028 A 
ATOM     19  C   UNL     1       9.390  -0.146  22.732  0.00  0.00    +0.062 A 
ATOM     20 CL   UNL     1       9.187  -0.050  21.010  0.00  0.00    -0.082 Cl
ATOM     21  C   UNL     1       9.962   0.926  23.439  0.00  0.00    +0.060 A 
ATOM     22 CL   UNL     1      10.538   2.358  22.657  0.00  0.00    -0.082 Cl
ATOM     23  C   UNL     1      10.091   0.865  24.830  0.00  0.00    +0.021 A 
ATOM     24  C   UNL     1       9.634  -0.252  25.525  0.00  0.00    +0.002 A 
ATOM     25  C   UNL     1       9.076  -1.322  24.830  0.00  0.00    +0.005 A 
ENDBRANCH  17  18
ENDBRANCH  16  17
ENDBRANCH   1  16
TORSDOF 7
ENDMDL
MODEL 5
REMARK VINA RESULT:      -6.6      3.840      4.723
REMARK  Name = 
REMARK  8 active torsions:
REMARK  status: ('A' for Active; 'I' for Inactive)
REMARK    1  A    between atoms: C_2  and  C_3
REMARK    2  A    between atoms: C_2  and  O_4
REMARK    3  A    between atoms: C_2  and  C_5
REMARK    4  A    between atoms: C_5  and  C_7
REMARK    5  A    between atoms: C_5  and  N_17
REMARK    6  A    between atoms: C_7  and  C_8
REMARK    7  A    between atoms: C_8  and  C_9
REMARK    8  A    between atoms: C_20  and  C_22
REMARK                            x       y       z     vdW  Elec       q    Type
REMARK                         _______ _______ _______ _____ _____    ______ ____
ROOT
ATOM      1  C   UNL     1       8.264  -1.351  23.002  0.00  0.00    +0.117 C 
ENDROOT
BRANCH   1   2
ATOM      2  N   UNL     1       7.290  -2.367  22.590  0.00  0.00    -0.331 N 
ATOM      3  C   UNL     1       7.591  -3.590  22.054  0.00  0.00    +0.120 A 
ATOM      4  C   UNL     1       6.374  -4.207  21.817  0.00  0.00    +0.143 A 
ATOM      5  N   UNL     1       5.341  -3.373  22.229  0.00  0.00    -0.231 NA
ATOM      6  C   UNL     1       5.926  -2.289  22.688  0.00  0.00    +0.200 A 
BRANCH   4   7
ATOM      7  C   UNL     1       6.164  -5.522  21.222  0.00  0.00    +0.261 C 
ATOM      8  O   UNL     1       5.964  -5.713  20.027  0.00  0.00    -0.269 OA
ATOM      9  N   UNL     1       6.200  -6.546  22.124  0.00  0.00    -0.324 N 
ATOM     10  H   UNL     1       6.026  -7.489  21.809  0.00  0.00    +0.145 HD
ATOM     11  H   UNL     1       6.336  -6.336  23.102  0.00  0.00    +0.145 HD
ENDBRANCH   4   7
ENDBRANCH   1   2
BRANCH   1  12
ATOM     12  C   UNL     1       8.993  -1.775  24.308  0.00  0.00    +0.134 C 
ATOM     13  C   UNL     1       9.444  -0.582  25.149  0.00  0.00    +0.040 C 
BRANCH  12  14
ATOM     14  O   UNL     1      10.156  -2.550  24.006  0.00  0.00    -0.390 OA
ATOM     15  H   UNL     1      10.336  -3.124  24.773  0.00  0.00    +0.210 HD
ENDBRANCH  12  14
ENDBRANCH   1  12
BRANCH   1  16
ATOM     16  C   UNL     1       9.244  -0.985  21.867  0.00  0.00    +0.032 C 
BRANCH  16  17
ATOM     17  C   UNL     1       8.925   0.351  21.191  0.00  0.00    +0.039 C 
BRANCH  17  18
ATOM     18  C   UNL     1       9.126   1.514  22.141  0.00  0.00    -0.028 A 
ATOM     19  C   UNL     1       8.064   2.247  22.707  0.00  0.00    +0.062 A 
ATOM     20 CL   UNL     1       6.422   1.786  22.380  0.00  0.00    -0.082 Cl
ATOM     21  C   UNL     1       8.339   3.341  23.546  0.00  0.00    +0.060 A 
ATOM     22 CL   UNL     1       7.092   4.313  24.251  0.00  0.00    -0.082 Cl
ATOM     23  C   UNL     1       9.660   3.690  23.840  0.00  0.00    +0.021 A 
ATOM     24  C   UNL     1      10.712   2.942  23.318  0.00  0.00    +0.002 A 
ATOM     25  C   UNL     1      10.447   1.863  22.478  0.00  0.00    +0.005 A 
ENDBRANCH  17  18
ENDBRANCH  16  17
ENDBRANCH   1  16
TORSDOF 7
ENDMDL
MODEL 6
REMARK VINA RESULT:      -6.6      2.776      4.401
REMARK  Name = 
REMARK  8 active torsions:
REMARK  status: ('A' for Active; 'I' for Inactive)
REMARK    1  A    between atoms: C_2  and  C_3
REMARK    2  A    between atoms: C_2  and  O_4
REMARK    3  A    between atoms: C_2  and  C_5
REMARK    4  A    between atoms: C_5  and  C_7
REMARK    5  A    between atoms: C_5  and  N_17
REMARK    6  A    between atoms: C_7  and  C_8
REMARK    7  A    between atoms: C_8  and  C_9
REMARK    8  A    between atoms: C_20  and  C_22
REMARK                            x       y       z     vdW  Elec       q    Type
REMARK                         _______ _______ _______ _____ _____    ______ ____
ROOT
ATOM      1  C   UNL     1       8.864  -0.538  23.962  0.00  0.00    +0.117 C 
ENDROOT
BRANCH   1   2
ATOM      2  N   UNL     1       8.645  -1.987  24.027  0.00  0.00    -0.331 N 
ATOM      3  C   UNL     1       8.914  -2.787  25.106  0.00  0.00    +0.120 A 
ATOM      4  C   UNL     1       8.559  -4.068  24.722  0.00  0.00    +0.143 A 
ATOM      5  N   UNL     1       8.055  -4.044  23.426  0.00  0.00    -0.231 NA
ATOM      6  C   UNL     1       8.118  -2.786  23.048  0.00  0.00    +0.200 A 
BRANCH   4   7
ATOM      7  C   UNL     1       8.686  -5.284  25.518  0.00  0.00    +0.261 C 
ATOM      8  O   UNL     1       7.765  -5.794  26.147  0.00  0.00    -0.269 OA
ATOM      9  N   UNL     1       9.943  -5.815  25.515  0.00  0.00    -0.324 N 
ATOM     10  H   UNL     1      10.135  -6.636  26.069  0.00  0.00    +0.145 HD
ATOM     11  H   UNL     1      10.676  -5.341  25.007  0.00  0.00    +0.145 HD
ENDBRANCH   4   7
ENDBRANCH   1   2
BRANCH   1  12
ATOM     12  C   UNL     1       8.920   0.082  25.386  0.00  0.00    +0.134 C 
ATOM     13  C   UNL     1       7.844   1.143  25.613  0.00  0.00    +0.040 C 
BRANCH  12  14
ATOM     14  O   UNL     1      10.188   0.702  25.615  0.00  0.00    -0.390 OA
ATOM     15  H   UNL     1      10.817   0.336  24.967  0.00  0.00    +0.210 HD
ENDBRANCH  12  14
ENDBRANCH   1  12
BRANCH   1  16
ATOM     16  C   UNL     1      10.093  -0.169  23.104  0.00  0.00    +0.032 C 
BRANCH  16  17
ATOM     17  C   UNL     1       9.745   0.648  21.857  0.00  0.00    +0.039 C 
BRANCH  17  18
ATOM     18  C   UNL     1       8.913   1.865  22.207  0.00  0.00    -0.028 A 
ATOM     19  C   UNL     1       9.416   2.969  22.925  0.00  0.00    +0.062 A 
ATOM     20 CL   UNL     1      11.087   3.008  23.395  0.00  0.00    -0.082 Cl
ATOM     21  C   UNL     1       8.564   4.040  23.247  0.00  0.00    +0.060 A 
ATOM     22 CL   UNL     1       9.094   5.414  24.155  0.00  0.00    -0.082 Cl
ATOM     23  C   UNL     1       7.228   4.026  22.836  0.00  0.00    +0.021 A 
ATOM     24  C   UNL     1       6.738   2.958  22.089  0.00  0.00    +0.002 A 
ATOM     25  C   UNL     1       7.574   1.889  21.776  0.00  0.00    +0.005 A 
ENDBRANCH  17  18
ENDBRANCH  16  17
ENDBRANCH   1  16
TORSDOF 7
ENDMDL
MODEL 7
REMARK VINA RESULT:      -6.5      5.404      8.797
REMARK  Name = 
REMARK  8 active torsions:
REMARK  status: ('A' for Active; 'I' for Inactive)
REMARK    1  A    between atoms: C_2  and  C_3
REMARK    2  A    between atoms: C_2  and  O_4
REMARK    3  A    between atoms: C_2  and  C_5
REMARK    4  A    between atoms: C_5  and  C_7
REMARK    5  A    between atoms: C_5  and  N_17
REMARK    6  A    between atoms: C_7  and  C_8
REMARK    7  A    between atoms: C_8  and  C_9
REMARK    8  A    between atoms: C_20  and  C_22
REMARK                            x       y       z     vdW  Elec       q    Type
REMARK                         _______ _______ _______ _____ _____    ______ ____
ROOT
ATOM      1  C   UNL     1       9.306   1.976  23.475  0.00  0.00    +0.117 C 
ENDROOT
BRANCH   1   2
ATOM      2  N   UNL     1       9.918   3.308  23.548  0.00  0.00    -0.331 N 
ATOM      3  C   UNL     1      11.245   3.587  23.365  0.00  0.00    +0.120 A 
ATOM      4  C   UNL     1      11.368   4.956  23.528  0.00  0.00    +0.143 A 
ATOM      5  N   UNL     1      10.118   5.509  23.785  0.00  0.00    -0.231 NA
ATOM      6  C   UNL     1       9.280   4.496  23.785  0.00  0.00    +0.200 A 
BRANCH   4   7
ATOM      7  C   UNL     1      12.599   5.736  23.458  0.00  0.00    +0.261 C 
ATOM      8  O   UNL     1      13.436   5.621  22.570  0.00  0.00    -0.269 OA
ATOM      9  N   UNL     1      12.750   6.618  24.488  0.00  0.00    -0.324 N 
ATOM     10  H   UNL     1      13.591   7.174  24.544  0.00  0.00    +0.145 HD
ATOM     11  H   UNL     1      12.048   6.653  25.213  0.00  0.00    +0.145 HD
ENDBRANCH   4   7
ENDBRANCH   1   2
BRANCH   1  12
ATOM     12  C   UNL     1       8.294   1.893  22.299  0.00  0.00    +0.134 C 
ATOM     13  C   UNL     1       7.128   0.947  22.587  0.00  0.00    +0.040 C 
BRANCH  12  14
ATOM     14  O   UNL     1       8.940   1.426  21.111  0.00  0.00    -0.390 OA
ATOM     15  H   UNL     1       8.450   1.783  20.348  0.00  0.00    +0.210 HD
ENDBRANCH  12  14
ENDBRANCH   1  12
BRANCH   1  16
ATOM     16  C   UNL     1      10.360   0.849  23.433  0.00  0.00    +0.032 C 
BRANCH  16  17
ATOM     17  C   UNL     1      10.405   0.007  24.711  0.00  0.00    +0.039 C 
BRANCH  17  18
ATOM     18  C   UNL     1       9.458  -1.172  24.630  0.00  0.00    -0.028 A 
ATOM     19  C   UNL     1       8.642  -1.588  25.703  0.00  0.00    +0.062 A 
ATOM     20 CL   UNL     1       8.641  -0.689  27.188  0.00  0.00    -0.082 Cl
ATOM     21  C   UNL     1       7.823  -2.721  25.559  0.00  0.00    +0.060 A 
ATOM     22 CL   UNL     1       6.820  -3.315  26.838  0.00  0.00    -0.082 Cl
ATOM     23  C   UNL     1       7.795  -3.422  24.350  0.00  0.00    +0.021 A 
ATOM     24  C   UNL     1       8.565  -2.990  23.274  0.00  0.00    +0.002 A 
ATOM     25  C   UNL     1       9.388  -1.874  23.413  0.00  0.00    +0.005 A 
ENDBRANCH  17  18
ENDBRANCH  16  17
ENDBRANCH   1  16
TORSDOF 7
ENDMDL
MODEL 8
REMARK VINA RESULT:      -6.4      2.137      4.012
REMARK  Name = 
REMARK  8 active torsions:
REMARK  status: ('A' for Active; 'I' for Inactive)
REMARK    1  A    between atoms: C_2  and  C_3
REMARK    2  A    between atoms: C_2  and  O_4
REMARK    3  A    between atoms: C_2  and  C_5
REMARK    4  A    between atoms: C_5  and  C_7
REMARK    5  A    between atoms: C_5  and  N_17
REMARK    6  A    between atoms: C_7  and  C_8
REMARK    7  A    between atoms: C_8  and  C_9
REMARK    8  A    between atoms: C_20  and  C_22
REMARK                            x       y       z     vdW  Elec       q    Type
REMARK                         _______ _______ _______ _____ _____    ______ ____
ROOT
ATOM      1  C   UNL     1       6.988  -3.773  26.238  0.00  0.00    +0.117 C 
ENDROOT
BRANCH   1   2
ATOM      2  N   UNL     1       6.470  -3.852  24.868  0.00  0.00    -0.331 N 
ATOM      3  C   UNL     1       6.734  -4.853  23.972  0.00  0.00    +0.120 A 
ATOM      4  C   UNL     1       6.046  -4.517  22.819  0.00  0.00    +0.143 A 
ATOM      5  N   UNL     1       5.348  -3.332  23.021  0.00  0.00    -0.231 NA
ATOM      6  C   UNL     1       5.622  -2.969  24.255  0.00  0.00    +0.200 A 
BRANCH   4   7
ATOM      7  C   UNL     1       6.034  -5.259  21.563  0.00  0.00    +0.261 C 
ATOM      8  O   UNL     1       5.898  -4.742  20.460  0.00  0.00    -0.269 OA
ATOM      9  N   UNL     1       6.180  -6.607  21.719  0.00  0.00    -0.324 N 
ATOM     10  H   UNL     1       6.145  -7.205  20.907  0.00  0.00    +0.145 HD
ATOM     11  H   UNL     1       6.256  -6.989  22.650  0.00  0.00    +0.145 HD
ENDBRANCH   4   7
ENDBRANCH   1   2
BRANCH   1  12
ATOM     12  C   UNL     1       6.810  -5.126  26.981  0.00  0.00    +0.134 C 
ATOM     13  C   UNL     1       5.969  -4.999  28.250  0.00  0.00    +0.040 C 
BRANCH  12  14
ATOM     14  O   UNL     1       8.080  -5.662  27.361  0.00  0.00    -0.390 OA
ATOM     15  H   UNL     1       8.162  -6.545  26.955  0.00  0.00    +0.210 HD
ENDBRANCH  12  14
ENDBRANCH   1  12
BRANCH   1  16
ATOM     16  C   UNL     1       8.442  -3.256  26.285  0.00  0.00    +0.032 C 
BRANCH  16  17
ATOM     17  C   UNL     1       8.550  -1.729  26.219  0.00  0.00    +0.039 C 
BRANCH  17  18
ATOM     18  C   UNL     1       9.050  -1.267  24.867  0.00  0.00    -0.028 A 
ATOM     19  C   UNL     1       8.916   0.057  24.400  0.00  0.00    +0.062 A 
ATOM     20 CL   UNL     1       8.208   1.268  25.424  0.00  0.00    -0.082 Cl
ATOM     21  C   UNL     1       9.369   0.393  23.113  0.00  0.00    +0.060 A 
ATOM     22 CL   UNL     1       9.209   1.986  22.454  0.00  0.00    -0.082 Cl
ATOM     23  C   UNL     1       9.973  -0.573  22.303  0.00  0.00    +0.021 A 
ATOM     24  C   UNL     1      10.147  -1.870  22.775  0.00  0.00    +0.002 A 
ATOM     25  C   UNL     1       9.691  -2.214  24.046  0.00  0.00    +0.005 A 
ENDBRANCH  17  18
ENDBRANCH  16  17
ENDBRANCH   1  16
TORSDOF 7
ENDMDL
MODEL 9
REMARK VINA RESULT:      -6.4      3.375      5.059
REMARK  Name = 
REMARK  8 active torsions:
REMARK  status: ('A' for Active; 'I' for Inactive)
REMARK    1  A    between atoms: C_2  and  C_3
REMARK    2  A    between atoms: C_2  and  O_4
REMARK    3  A    between atoms: C_2  and  C_5
REMARK    4  A    between atoms: C_5  and  C_7
REMARK    5  A    between atoms: C_5  and  N_17
REMARK    6  A    between atoms: C_7  and  C_8
REMARK    7  A    between atoms: C_8  and  C_9
REMARK    8  A    between atoms: C_20  and  C_22
REMARK                            x       y       z     vdW  Elec       q    Type
REMARK                         _______ _______ _______ _____ _____    ______ ____
ROOT
ATOM      1  C   UNL     1       8.536   0.046  24.544  0.00  0.00    +0.117 C 
ENDROOT
BRANCH   1   2
ATOM      2  N   UNL     1       8.940  -1.360  24.642  0.00  0.00    -0.331 N 
ATOM      3  C   UNL     1       8.556  -2.234  25.623  0.00  0.00    +0.120 A 
ATOM      4  C   UNL     1       9.174  -3.435  25.319  0.00  0.00    +0.143 A 
ATOM      5  N   UNL     1       9.909  -3.298  24.148  0.00  0.00    -0.231 NA
ATOM      6  C   UNL     1       9.742  -2.049  23.772  0.00  0.00    +0.200 A 
BRANCH   4   7
ATOM      7  C   UNL     1       9.097  -4.674  26.086  0.00  0.00    +0.261 C 
ATOM      8  O   UNL     1       8.361  -4.841  27.053  0.00  0.00    -0.269 OA
ATOM      9  N   UNL     1       9.938  -5.651  25.638  0.00  0.00    -0.324 N 
ATOM     10  H   UNL     1       9.982  -6.531  26.131  0.00  0.00    +0.145 HD
ATOM     11  H   UNL     1      10.549  -5.456  24.858  0.00  0.00    +0.145 HD
ENDBRANCH   4   7
ENDBRANCH   1   2
BRANCH   1  12
ATOM     12  C   UNL     1       7.553   0.424  25.688  0.00  0.00    +0.134 C 
ATOM     13  C   UNL     1       6.139   0.708  25.184  0.00  0.00    +0.040 C 
BRANCH  12  14
ATOM     14  O   UNL     1       8.006   1.595  26.373  0.00  0.00    -0.390 OA
ATOM     15  H   UNL     1       7.426   2.333  26.113  0.00  0.00    +0.210 HD
ENDBRANCH  12  14
ENDBRANCH   1  12
BRANCH   1  16
ATOM     16  C   UNL     1       9.747   1.000  24.462  0.00  0.00    +0.032 C 
BRANCH  16  17
ATOM     17  C   UNL     1       9.816   1.787  23.150  0.00  0.00    +0.039 C 
BRANCH  17  18
ATOM     18  C   UNL     1      10.166   3.240  23.394  0.00  0.00    -0.028 A 
ATOM     19  C   UNL     1       9.206   4.234  23.674  0.00  0.00    +0.062 A 
ATOM     20 CL   UNL     1       7.531   3.802  23.824  0.00  0.00    -0.082 Cl
ATOM     21  C   UNL     1       9.612   5.569  23.845  0.00  0.00    +0.060 A 
ATOM     22 CL   UNL     1       8.492   6.852  24.156  0.00  0.00    -0.082 Cl
ATOM     23  C   UNL     1      10.964   5.911  23.763  0.00  0.00    +0.021 A 
ATOM     24  C   UNL     1      11.921   4.927  23.530  0.00  0.00    +0.002 A 
ATOM     25  C   UNL     1      11.525   3.604  23.349  0.00  0.00    +0.005 A 
ENDBRANCH  17  18
ENDBRANCH  16  17
ENDBRANCH   1  16
TORSDOF 7
ENDMDL
