MODEL 1
REMARK VINA RESULT:      -6.9      0.000      0.000
REMARK  Name = 
REMARK  4 active torsions:
REMARK  status: ('A' for Active; 'I' for Inactive)
REMARK    1  A    between atoms: O_1  and  C_2
REMARK    2  A    between atoms: C_8  and  C_11
REMARK    3  A    between atoms: C_12  and  O_13
REMARK    4  A    between atoms: C_15  and  O_16
REMARK                            x       y       z     vdW  Elec       q    Type
REMARK                         _______ _______ _______ _____ _____    ______ ____
ROOT
ATOM      1  C   UNL     1       7.930  -4.940  26.434  0.00  0.00    +0.120 A 
ATOM      2  C   UNL     1       8.178  -3.598  26.703  0.00  0.00    +0.046 A 
ATOM      3  C   UNL     1       8.184  -2.647  25.671  0.00  0.00    +0.017 A 
ATOM      4  C   UNL     1       7.913  -3.071  24.355  0.00  0.00    +0.049 A 
ATOM      5  C   UNL     1       7.835  -2.497  23.044  0.00  0.00    +0.125 A 
ATOM      6  N   UNL     1       7.556  -3.450  22.134  0.00  0.00    -0.077 NA
ATOM      7  O   UNL     1       7.452  -4.638  22.826  0.00  0.00    -0.354 OA
ATOM      8  C   UNL     1       7.672  -4.419  24.146  0.00  0.00    +0.171 A 
ATOM      9  C   UNL     1       7.669  -5.396  25.143  0.00  0.00    +0.095 A 
ENDROOT
BRANCH   5  10
ATOM     10  C   UNL     1       8.069  -1.112  22.615  0.00  0.00    +0.046 A 
ATOM     11  C   UNL     1       7.169  -0.096  22.969  0.00  0.00    +0.017 A 
ATOM     12  C   UNL     1       7.434   1.242  22.650  0.00  0.00    +0.046 A 
ATOM     13  C   UNL     1       8.598   1.573  21.968  0.00  0.00    +0.120 A 
ATOM     14  C   UNL     1       9.485   0.585  21.564  0.00  0.00    +0.091 A 
ATOM     15  C   UNL     1       9.209  -0.747  21.871  0.00  0.00    +0.130 A 
BRANCH  13  16
ATOM     16  O   UNL     1       8.829   2.890  21.706  0.00  0.00    -0.507 OA
ATOM     17  H   UNL     1       9.711   3.122  22.043  0.00  0.00    +0.292 HD
ENDBRANCH  13  16
BRANCH  15  18
ATOM     18  O   UNL     1      10.117  -1.660  21.397  0.00  0.00    -0.506 OA
ATOM     19  H   UNL     1      10.956  -1.183  21.226  0.00  0.00    +0.292 HD
ENDBRANCH  15  18
ENDBRANCH   5  10
BRANCH   1  20
ATOM     20  O   UNL     1       7.961  -5.805  27.490  0.00  0.00    -0.507 OA
ATOM     21  H   UNL     1       7.827  -5.306  28.314  0.00  0.00    +0.292 HD
ENDBRANCH   1  20
TORSDOF 4
ENDMDL
MODEL 2
REMARK VINA RESULT:      -6.8      2.345      3.153
REMARK  Name = 
REMARK  4 active torsions:
REMARK  status: ('A' for Active; 'I' for Inactive)
REMARK    1  A    between atoms: O_1  and  C_2
REMARK    2  A    between atoms: C_8  and  C_11
REMARK    3  A    between atoms: C_12  and  O_13
REMARK    4  A    between atoms: C_15  and  O_16
REMARK                            x       y       z     vdW  Elec       q    Type
REMARK                         _______ _______ _______ _____ _____    ______ ____
ROOT
ATOM      1  C   UNL     1       5.853  -4.947  22.492  0.00  0.00    +0.120 A 
ATOM      2  C   UNL     1       5.695  -3.664  21.976  0.00  0.00    +0.046 A 
ATOM      3  C   UNL     1       6.666  -2.676  22.198  0.00  0.00    +0.017 A 
ATOM      4  C   UNL     1       7.818  -3.010  22.939  0.00  0.00    +0.049 A 
ATOM      5  C   UNL     1       9.005  -2.362  23.413  0.00  0.00    +0.125 A 
ATOM      6  N   UNL     1       9.755  -3.227  24.123  0.00  0.00    -0.077 NA
ATOM      7  O   UNL     1       9.079  -4.428  24.123  0.00  0.00    -0.354 OA
ATOM      8  C   UNL     1       7.922  -4.302  23.426  0.00  0.00    +0.171 A 
ATOM      9  C   UNL     1       6.974  -5.308  23.238  0.00  0.00    +0.095 A 
ENDROOT
BRANCH   5  10
ATOM     10  C   UNL     1       9.425  -0.961  23.275  0.00  0.00    +0.046 A 
ATOM     11  C   UNL     1       9.632  -0.403  22.005  0.00  0.00    +0.017 A 
ATOM     12  C   UNL     1       9.935   0.957  21.859  0.00  0.00    +0.046 A 
ATOM     13  C   UNL     1      10.041   1.767  22.982  0.00  0.00    +0.120 A 
ATOM     14  C   UNL     1       9.887   1.234  24.254  0.00  0.00    +0.091 A 
ATOM     15  C   UNL     1       9.600  -0.124  24.395  0.00  0.00    +0.130 A 
BRANCH  13  16
ATOM     16  O   UNL     1      10.307   3.089  22.790  0.00  0.00    -0.507 OA
ATOM     17  H   UNL     1       9.486   3.592  22.926  0.00  0.00    +0.292 HD
ENDBRANCH  13  16
BRANCH  15  18
ATOM     18  O   UNL     1       9.507  -0.574  25.687  0.00  0.00    -0.506 OA
ATOM     19  H   UNL     1      10.415  -0.765  26.002  0.00  0.00    +0.292 HD
ENDBRANCH  15  18
ENDBRANCH   5  10
BRANCH   1  20
ATOM     20  O   UNL     1       4.854  -5.845  22.248  0.00  0.00    -0.507 OA
ATOM     21  H   UNL     1       5.205  -6.572  21.706  0.00  0.00    +0.292 HD
ENDBRANCH   1  20
TORSDOF 4
ENDMDL
MODEL 3
REMARK VINA RESULT:      -6.8      2.245      3.036
REMARK  Name = 
REMARK  4 active torsions:
REMARK  status: ('A' for Active; 'I' for Inactive)
REMARK    1  A    between atoms: O_1  and  C_2
REMARK    2  A    between atoms: C_8  and  C_11
REMARK    3  A    between atoms: C_12  and  O_13
REMARK    4  A    between atoms: C_15  and  O_16
REMARK                            x       y       z     vdW  Elec       q    Type
REMARK                         _______ _______ _______ _____ _____    ______ ____
ROOT
ATOM      1  C   UNL     1       5.932  -5.182  22.287  0.00  0.00    +0.120 A 
ATOM      2  C   UNL     1       5.782  -3.865  21.860  0.00  0.00    +0.046 A 
ATOM      3  C   UNL     1       6.723  -2.885  22.209  0.00  0.00    +0.017 A 
ATOM      4  C   UNL     1       7.838  -3.260  22.986  0.00  0.00    +0.049 A 
ATOM      5  C   UNL     1       8.987  -2.635  23.573  0.00  0.00    +0.125 A 
ATOM      6  N   UNL     1       9.711  -3.542  24.258  0.00  0.00    -0.077 NA
ATOM      7  O   UNL     1       9.055  -4.748  24.130  0.00  0.00    -0.354 OA
ATOM      8  C   UNL     1       7.936  -4.584  23.381  0.00  0.00    +0.171 A 
ATOM      9  C   UNL     1       7.017  -5.584  23.065  0.00  0.00    +0.095 A 
ENDROOT
BRANCH   5  10
ATOM     10  C   UNL     1       9.391  -1.223  23.563  0.00  0.00    +0.046 A 
ATOM     11  C   UNL     1       9.511  -0.509  24.764  0.00  0.00    +0.017 A 
ATOM     12  C   UNL     1       9.990   0.807  24.774  0.00  0.00    +0.046 A 
ATOM     13  C   UNL     1      10.347   1.421  23.580  0.00  0.00    +0.120 A 
ATOM     14  C   UNL     1      10.196   0.757  22.371  0.00  0.00    +0.091 A 
ATOM     15  C   UNL     1       9.704  -0.549  22.367  0.00  0.00    +0.130 A 
BRANCH  13  16
ATOM     16  O   UNL     1      10.837   2.691  23.640  0.00  0.00    -0.507 OA
ATOM     17  H   UNL     1      10.904   3.040  22.736  0.00  0.00    +0.292 HD
ENDBRANCH  13  16
BRANCH  15  18
ATOM     18  O   UNL     1       9.547  -1.113  21.126  0.00  0.00    -0.506 OA
ATOM     19  H   UNL     1       8.895  -1.840  21.210  0.00  0.00    +0.292 HD
ENDBRANCH  15  18
ENDBRANCH   5  10
BRANCH   1  20
ATOM     20  O   UNL     1       4.963  -6.071  21.921  0.00  0.00    -0.507 OA
ATOM     21  H   UNL     1       4.815  -6.003  20.963  0.00  0.00    +0.292 HD
ENDBRANCH   1  20
TORSDOF 4
ENDMDL
MODEL 4
REMARK VINA RESULT:      -6.8      1.857      1.962
REMARK  Name = 
REMARK  4 active torsions:
REMARK  status: ('A' for Active; 'I' for Inactive)
REMARK    1  A    between atoms: O_1  and  C_2
REMARK    2  A    between atoms: C_8  and  C_11
REMARK    3  A    between atoms: C_12  and  O_13
REMARK    4  A    between atoms: C_15  and  O_16
REMARK                            x       y       z     vdW  Elec       q    Type
REMARK                         _______ _______ _______ _____ _____    ______ ____
ROOT
ATOM      1  C   UNL     1       7.128  -4.331  26.899  0.00  0.00    +0.120 A 
ATOM      2  C   UNL     1       6.750  -2.994  26.822  0.00  0.00    +0.046 A 
ATOM      3  C   UNL     1       7.429  -2.104  25.976  0.00  0.00    +0.017 A 
ATOM      4  C   UNL     1       8.491  -2.591  25.188  0.00  0.00    +0.049 A 
ATOM      5  C   UNL     1       9.440  -2.079  24.244  0.00  0.00    +0.125 A 
ATOM      6  N   UNL     1      10.264  -3.063  23.833  0.00  0.00    -0.077 NA
ATOM      7  O   UNL     1       9.871  -4.208  24.492  0.00  0.00    -0.354 OA
ATOM      8  C   UNL     1       8.822  -3.930  25.306  0.00  0.00    +0.171 A 
ATOM      9  C   UNL     1       8.181  -4.844  26.143  0.00  0.00    +0.095 A 
ENDROOT
BRANCH   5  10
ATOM     10  C   UNL     1       9.636  -0.704  23.767  0.00  0.00    +0.046 A 
ATOM     11  C   UNL     1       9.829   0.345  24.678  0.00  0.00    +0.017 A 
ATOM     12  C   UNL     1      10.114   1.641  24.232  0.00  0.00    +0.046 A 
ATOM     13  C   UNL     1      10.202   1.900  22.869  0.00  0.00    +0.120 A 
ATOM     14  C   UNL     1       9.971   0.894  21.943  0.00  0.00    +0.091 A 
ATOM     15  C   UNL     1       9.671  -0.393  22.393  0.00  0.00    +0.130 A 
BRANCH  13  16
ATOM     16  O   UNL     1      10.512   3.169  22.482  0.00  0.00    -0.507 OA
ATOM     17  H   UNL     1       9.794   3.761  22.761  0.00  0.00    +0.292 HD
ENDBRANCH  13  16
BRANCH  15  18
ATOM     18  O   UNL     1       9.416  -1.314  21.410  0.00  0.00    -0.506 OA
ATOM     19  H   UNL     1       9.980  -2.097  21.582  0.00  0.00    +0.292 HD
ENDBRANCH  15  18
ENDBRANCH   5  10
BRANCH   1  20
ATOM     20  O   UNL     1       6.429  -5.128  27.760  0.00  0.00    -0.507 OA
ATOM     21  H   UNL     1       6.416  -6.037  27.414  0.00  0.00    +0.292 HD
ENDBRANCH   1  20
TORSDOF 4
ENDMDL
MODEL 5
REMARK VINA RESULT:      -6.7      2.035      2.308
REMARK  Name = 
REMARK  4 active torsions:
REMARK  status: ('A' for Active; 'I' for Inactive)
REMARK    1  A    between atoms: O_1  and  C_2
REMARK    2  A    between atoms: C_8  and  C_11
REMARK    3  A    between atoms: C_12  and  O_13
REMARK    4  A    between atoms: C_15  and  O_16
REMARK                            x       y       z     vdW  Elec       q    Type
REMARK                         _______ _______ _______ _____ _____    ______ ____
ROOT
ATOM      1  C   UNL     1       6.881  -4.277  27.130  0.00  0.00    +0.120 A 
ATOM      2  C   UNL     1       6.510  -2.983  26.776  0.00  0.00    +0.046 A 
ATOM      3  C   UNL     1       7.250  -2.258  25.830  0.00  0.00    +0.017 A 
ATOM      4  C   UNL     1       8.367  -2.870  25.226  0.00  0.00    +0.049 A 
ATOM      5  C   UNL     1       9.384  -2.531  24.274  0.00  0.00    +0.125 A 
ATOM      6  N   UNL     1      10.235  -3.563  24.115  0.00  0.00    -0.077 NA
ATOM      7  O   UNL     1       9.794  -4.570  24.948  0.00  0.00    -0.354 OA
ATOM      8  C   UNL     1       8.688  -4.159  25.617  0.00  0.00    +0.171 A 
ATOM      9  C   UNL     1       7.986  -4.908  26.562  0.00  0.00    +0.095 A 
ENDROOT
BRANCH   5  10
ATOM     10  C   UNL     1       9.615  -1.267  23.563  0.00  0.00    +0.046 A 
ATOM     11  C   UNL     1       9.514  -1.209  22.165  0.00  0.00    +0.017 A 
ATOM     12  C   UNL     1       9.634   0.010  21.486  0.00  0.00    +0.046 A 
ATOM     13  C   UNL     1       9.863   1.180  22.200  0.00  0.00    +0.120 A 
ATOM     14  C   UNL     1      10.013   1.148  23.579  0.00  0.00    +0.091 A 
ATOM     15  C   UNL     1       9.907  -0.071  24.249  0.00  0.00    +0.130 A 
BRANCH  13  16
ATOM     16  O   UNL     1       9.942   2.346  21.500  0.00  0.00    -0.507 OA
ATOM     17  H   UNL     1      10.735   2.827  21.790  0.00  0.00    +0.292 HD
ENDBRANCH  13  16
BRANCH  15  18
ATOM     18  O   UNL     1      10.111  -0.016  25.604  0.00  0.00    -0.506 OA
ATOM     19  H   UNL     1       9.449   0.601  25.979  0.00  0.00    +0.292 HD
ENDBRANCH  15  18
ENDBRANCH   5  10
BRANCH   1  20
ATOM     20  O   UNL     1       6.120  -4.908  28.072  0.00  0.00    -0.507 OA
ATOM     21  H   UNL     1       6.046  -4.338  28.856  0.00  0.00    +0.292 HD
ENDBRANCH   1  20
TORSDOF 4
ENDMDL
MODEL 6
REMARK VINA RESULT:      -6.7      1.731      6.128
REMARK  Name = 
REMARK  4 active torsions:
REMARK  status: ('A' for Active; 'I' for Inactive)
REMARK    1  A    between atoms: O_1  and  C_2
REMARK    2  A    between atoms: C_8  and  C_11
REMARK    3  A    between atoms: C_12  and  O_13
REMARK    4  A    between atoms: C_15  and  O_16
REMARK                            x       y       z     vdW  Elec       q    Type
REMARK                         _______ _______ _______ _____ _____    ______ ____
ROOT
ATOM      1  C   UNL     1      10.299   1.900  23.097  0.00  0.00    +0.120 A 
ATOM      2  C   UNL     1      10.318   1.391  24.393  0.00  0.00    +0.046 A 
ATOM      3  C   UNL     1       9.880   0.085  24.658  0.00  0.00    +0.017 A 
ATOM      4  C   UNL     1       9.437  -0.715  23.585  0.00  0.00    +0.049 A 
ATOM      5  C   UNL     1       8.907  -2.031  23.384  0.00  0.00    +0.125 A 
ATOM      6  N   UNL     1       8.630  -2.227  22.080  0.00  0.00    -0.077 NA
ATOM      7  O   UNL     1       8.970  -1.063  21.425  0.00  0.00    -0.354 OA
ATOM      8  C   UNL     1       9.442  -0.157  22.318  0.00  0.00    +0.171 A 
ATOM      9  C   UNL     1       9.858   1.140  22.015  0.00  0.00    +0.095 A 
ENDROOT
BRANCH   5  10
ATOM     10  C   UNL     1       8.599  -3.075  24.370  0.00  0.00    +0.046 A 
ATOM     11  C   UNL     1       9.624  -3.855  24.925  0.00  0.00    +0.017 A 
ATOM     12  C   UNL     1       9.353  -4.784  25.937  0.00  0.00    +0.046 A 
ATOM     13  C   UNL     1       8.052  -4.945  26.398  0.00  0.00    +0.120 A 
ATOM     14  C   UNL     1       7.010  -4.222  25.837  0.00  0.00    +0.091 A 
ATOM     15  C   UNL     1       7.283  -3.308  24.818  0.00  0.00    +0.130 A 
BRANCH  13  16
ATOM     16  O   UNL     1       7.841  -5.839  27.405  0.00  0.00    -0.507 OA
ATOM     17  H   UNL     1       7.454  -6.645  27.026  0.00  0.00    +0.292 HD
ENDBRANCH  13  16
BRANCH  15  18
ATOM     18  O   UNL     1       6.189  -2.669  24.293  0.00  0.00    -0.506 OA
ATOM     19  H   UNL     1       6.446  -2.310  23.418  0.00  0.00    +0.292 HD
ENDBRANCH  15  18
ENDBRANCH   5  10
BRANCH   1  20
ATOM     20  O   UNL     1      10.724   3.186  22.925  0.00  0.00    -0.507 OA
ATOM     21  H   UNL     1      10.276   3.758  23.571  0.00  0.00    +0.292 HD
ENDBRANCH   1  20
TORSDOF 4
ENDMDL
MODEL 7
REMARK VINA RESULT:      -6.5      2.301      5.858
REMARK  Name = 
REMARK  4 active torsions:
REMARK  status: ('A' for Active; 'I' for Inactive)
REMARK    1  A    between atoms: O_1  and  C_2
REMARK    2  A    between atoms: C_8  and  C_11
REMARK    3  A    between atoms: C_12  and  O_13
REMARK    4  A    between atoms: C_15  and  O_16
REMARK                            x       y       z     vdW  Elec       q    Type
REMARK                         _______ _______ _______ _____ _____    ______ ____
ROOT
ATOM      1  C   UNL     1      10.192   1.813  22.875  0.00  0.00    +0.120 A 
ATOM      2  C   UNL     1       9.501   1.219  21.823  0.00  0.00    +0.046 A 
ATOM      3  C   UNL     1       8.820   0.006  22.006  0.00  0.00    +0.017 A 
ATOM      4  C   UNL     1       8.830  -0.594  23.282  0.00  0.00    +0.049 A 
ATOM      5  C   UNL     1       8.321  -1.779  23.907  0.00  0.00    +0.125 A 
ATOM      6  N   UNL     1       8.697  -1.822  25.200  0.00  0.00    -0.077 NA
ATOM      7  O   UNL     1       9.444  -0.686  25.431  0.00  0.00    -0.354 OA
ATOM      8  C   UNL     1       9.533   0.043  24.290  0.00  0.00    +0.171 A 
ATOM      9  C   UNL     1      10.232   1.242  24.146  0.00  0.00    +0.095 A 
ENDROOT
BRANCH   5  10
ATOM     10  C   UNL     1       7.554  -2.888  23.324  0.00  0.00    +0.046 A 
ATOM     11  C   UNL     1       6.378  -2.637  22.602  0.00  0.00    +0.017 A 
ATOM     12  C   UNL     1       5.693  -3.676  21.959  0.00  0.00    +0.046 A 
ATOM     13  C   UNL     1       6.177  -4.976  22.039  0.00  0.00    +0.120 A 
ATOM     14  C   UNL     1       7.312  -5.263  22.783  0.00  0.00    +0.091 A 
ATOM     15  C   UNL     1       7.981  -4.226  23.435  0.00  0.00    +0.130 A 
BRANCH  13  16
ATOM     16  O   UNL     1       5.496  -5.950  21.372  0.00  0.00    -0.507 OA
ATOM     17  H   UNL     1       6.036  -6.758  21.370  0.00  0.00    +0.292 HD
ENDBRANCH  13  16
BRANCH  15  18
ATOM     18  O   UNL     1       9.068  -4.605  24.181  0.00  0.00    -0.506 OA
ATOM     19  H   UNL     1       9.117  -4.010  24.958  0.00  0.00    +0.292 HD
ENDBRANCH  15  18
ENDBRANCH   5  10
BRANCH   1  20
ATOM     20  O   UNL     1      10.845   2.982  22.611  0.00  0.00    -0.507 OA
ATOM     21  H   UNL     1      11.387   2.871  21.811  0.00  0.00    +0.292 HD
ENDBRANCH   1  20
TORSDOF 4
ENDMDL
MODEL 8
REMARK VINA RESULT:      -6.3      2.917      3.501
REMARK  Name = 
REMARK  4 active torsions:
REMARK  status: ('A' for Active; 'I' for Inactive)
REMARK    1  A    between atoms: O_1  and  C_2
REMARK    2  A    between atoms: C_8  and  C_11
REMARK    3  A    between atoms: C_12  and  O_13
REMARK    4  A    between atoms: C_15  and  O_16
REMARK                            x       y       z     vdW  Elec       q    Type
REMARK                         _______ _______ _______ _____ _____    ______ ____
ROOT
ATOM      1  C   UNL     1       5.084  -5.052  22.724  0.00  0.00    +0.120 A 
ATOM      2  C   UNL     1       6.169  -4.683  21.934  0.00  0.00    +0.046 A 
ATOM      3  C   UNL     1       6.775  -3.427  22.089  0.00  0.00    +0.017 A 
ATOM      4  C   UNL     1       6.279  -2.550  23.075  0.00  0.00    +0.049 A 
ATOM      5  C   UNL     1       6.548  -1.227  23.558  0.00  0.00    +0.125 A 
ATOM      6  N   UNL     1       5.684  -0.906  24.540  0.00  0.00    -0.077 NA
ATOM      7  O   UNL     1       4.854  -1.994  24.707  0.00  0.00    -0.354 OA
ATOM      8  C   UNL     1       5.199  -2.971  23.831  0.00  0.00    +0.171 A 
ATOM      9  C   UNL     1       4.561  -4.205  23.700  0.00  0.00    +0.095 A 
ENDROOT
BRANCH   5  10
ATOM     10  C   UNL     1       7.538  -0.246  23.094  0.00  0.00    +0.046 A 
ATOM     11  C   UNL     1       8.904  -0.559  23.092  0.00  0.00    +0.017 A 
ATOM     12  C   UNL     1       9.846   0.330  22.561  0.00  0.00    +0.046 A 
ATOM     13  C   UNL     1       9.427   1.545  22.032  0.00  0.00    +0.120 A 
ATOM     14  C   UNL     1       8.088   1.904  22.061  0.00  0.00    +0.091 A 
ATOM     15  C   UNL     1       7.156   1.020  22.606  0.00  0.00    +0.130 A 
BRANCH  13  16
ATOM     16  O   UNL     1      10.375   2.366  21.498  0.00  0.00    -0.507 OA
ATOM     17  H   UNL     1      11.250   2.052  21.781  0.00  0.00    +0.292 HD
ENDBRANCH  13  16
BRANCH  15  18
ATOM     18  O   UNL     1       5.861   1.473  22.633  0.00  0.00    -0.506 OA
ATOM     19  H   UNL     1       5.628   1.653  23.568  0.00  0.00    +0.292 HD
ENDBRANCH  15  18
ENDBRANCH   5  10
BRANCH   1  20
ATOM     20  O   UNL     1       4.538  -6.283  22.498  0.00  0.00    -0.507 OA
ATOM     21  H   UNL     1       3.938  -6.231  21.735  0.00  0.00    +0.292 HD
ENDBRANCH   1  20
TORSDOF 4
ENDMDL
MODEL 9
REMARK VINA RESULT:      -6.1      2.306      2.691
REMARK  Name = 
REMARK  4 active torsions:
REMARK  status: ('A' for Active; 'I' for Inactive)
REMARK    1  A    between atoms: O_1  and  C_2
REMARK    2  A    between atoms: C_8  and  C_11
REMARK    3  A    between atoms: C_12  and  O_13
REMARK    4  A    between atoms: C_15  and  O_16
REMARK                            x       y       z     vdW  Elec       q    Type
REMARK                         _______ _______ _______ _____ _____    ______ ____
ROOT
ATOM      1  C   UNL     1       7.843  -4.757  26.879  0.00  0.00    +0.120 A 
ATOM      2  C   UNL     1       8.914  -4.417  26.058  0.00  0.00    +0.046 A 
ATOM      3  C   UNL     1       8.973  -3.160  25.438  0.00  0.00    +0.017 A 
ATOM      4  C   UNL     1       7.937  -2.234  25.678  0.00  0.00    +0.049 A 
ATOM      5  C   UNL     1       7.576  -0.908  25.270  0.00  0.00    +0.125 A 
ATOM      6  N   UNL     1       6.406  -0.551  25.833  0.00  0.00    -0.077 NA
ATOM      7  O   UNL     1       5.994  -1.619  26.601  0.00  0.00    -0.354 OA
ATOM      8  C   UNL     1       6.898  -2.626  26.505  0.00  0.00    +0.171 A 
ATOM      9  C   UNL     1       6.797  -3.870  27.129  0.00  0.00    +0.095 A 
ENDROOT
BRANCH   5  10
ATOM     10  C   UNL     1       8.254  -0.001  24.335  0.00  0.00    +0.046 A 
ATOM     11  C   UNL     1       9.546   0.468  24.609  0.00  0.00    +0.017 A 
ATOM     12  C   UNL     1      10.239   1.253  23.679  0.00  0.00    +0.046 A 
ATOM     13  C   UNL     1       9.641   1.580  22.469  0.00  0.00    +0.120 A 
ATOM     14  C   UNL     1       8.346   1.169  22.187  0.00  0.00    +0.091 A 
ATOM     15  C   UNL     1       7.655   0.401  23.124  0.00  0.00    +0.130 A 
BRANCH  13  16
ATOM     16  O   UNL     1      10.364   2.320  21.581  0.00  0.00    -0.507 OA
ATOM     17  H   UNL     1       9.969   2.216  20.699  0.00  0.00    +0.292 HD
ENDBRANCH  13  16
BRANCH  15  18
ATOM     18  O   UNL     1       6.367   0.075  22.782  0.00  0.00    -0.506 OA
ATOM     19  H   UNL     1       5.919   0.898  22.492  0.00  0.00    +0.292 HD
ENDBRANCH  15  18
ENDBRANCH   5  10
BRANCH   1  20
ATOM     20  O   UNL     1       7.850  -6.006  27.429  0.00  0.00    -0.507 OA
ATOM     21  H   UNL     1       8.046  -5.935  28.379  0.00  0.00    +0.292 HD
ENDBRANCH   1  20
TORSDOF 4
ENDMDL
