MODEL 1
REMARK VINA RESULT:      -6.4      0.000      0.000
REMARK  Name = 
REMARK  3 active torsions:
REMARK  status: ('A' for Active; 'I' for Inactive)
REMARK    1  A    between atoms: O_1  and  N_2
REMARK    2  A    between atoms: C_3  and  C_5
REMARK    3  A    between atoms: C_6  and  C_7
REMARK                            x       y       z     vdW  Elec       q    Type
REMARK                         _______ _______ _______ _____ _____    ______ ____
ROOT
ATOM      1  C   UNL     1      11.722   4.031  23.415  0.00  0.00    +0.070 C 
ATOM      2  C   UNL     1      10.496   3.490  23.458  0.00  0.00    +0.013 C 
ENDROOT
BRANCH   2   3
ATOM      3  C   UNL     1      10.336   2.048  23.294  0.00  0.00    -0.025 A 
ATOM      4  C   UNL     1      10.477   1.204  24.402  0.00  0.00    +0.009 A 
ATOM      5  C   UNL     1      10.254  -0.168  24.273  0.00  0.00    +0.020 A 
ATOM      6  C   UNL     1       9.889  -0.696  23.037  0.00  0.00    +0.041 A 
ATOM      7 CL   UNL     1       9.595  -2.385  22.882  0.00  0.00    -0.084 Cl
ATOM      8  C   UNL     1       9.749   0.135  21.926  0.00  0.00    +0.020 A 
ATOM      9  C   UNL     1       9.971   1.507  22.056  0.00  0.00    +0.009 A 
ENDBRANCH   2   3
BRANCH   1  12
ATOM     10  N   UNL     1      13.196   5.947  23.426  0.00  0.00    -0.194 N 
ATOM     11  H   UNL     1      13.357   6.949  23.444  0.00  0.00    +0.183 HD
ATOM     12  C   UNL     1      11.915   5.496  23.539  0.00  0.00    +0.259 C 
ATOM     13  O   UNL     1      10.983   6.270  23.738  0.00  0.00    -0.269 OA
BRANCH  10  14
ATOM     14  O   UNL     1      14.259   5.081  23.121  0.00  0.00    -0.295 OA
ATOM     15  H   UNL     1      13.938   4.210  23.417  0.00  0.00    +0.241 HD
ENDBRANCH  10  14
ENDBRANCH   1  12
TORSDOF 3
ENDMDL
MODEL 2
REMARK VINA RESULT:      -5.6      6.185      7.360
REMARK  Name = 
REMARK  3 active torsions:
REMARK  status: ('A' for Active; 'I' for Inactive)
REMARK    1  A    between atoms: O_1  and  N_2
REMARK    2  A    between atoms: C_3  and  C_5
REMARK    3  A    between atoms: C_6  and  C_7
REMARK                            x       y       z     vdW  Elec       q    Type
REMARK                         _______ _______ _______ _____ _____    ______ ____
ROOT
ATOM      1  C   UNL     1       9.277  -3.387  24.554  0.00  0.00    +0.070 C 
ATOM      2  C   UNL     1       9.207  -2.685  23.414  0.00  0.00    +0.013 C 
ENDROOT
BRANCH   2   3
ATOM      3  C   UNL     1       9.548  -1.266  23.417  0.00  0.00    -0.025 A 
ATOM      4  C   UNL     1       9.889  -0.637  24.621  0.00  0.00    +0.009 A 
ATOM      5  C   UNL     1      10.288   0.701  24.625  0.00  0.00    +0.020 A 
ATOM      6  C   UNL     1      10.348   1.409  23.427  0.00  0.00    +0.041 A 
ATOM      7 CL   UNL     1      10.859   3.053  23.431  0.00  0.00    -0.084 Cl
ATOM      8  C   UNL     1      10.008   0.793  22.223  0.00  0.00    +0.020 A 
ATOM      9  C   UNL     1       9.610  -0.545  22.220  0.00  0.00    +0.009 A 
ENDBRANCH   2   3
BRANCH   1  12
ATOM     10  N   UNL     1       9.178  -5.487  25.749  0.00  0.00    -0.194 N 
ATOM     11  H   UNL     1       8.878  -6.453  25.833  0.00  0.00    +0.183 HD
ATOM     12  C   UNL     1       8.901  -4.821  24.593  0.00  0.00    +0.259 C 
ATOM     13  O   UNL     1       8.371  -5.390  23.643  0.00  0.00    -0.269 OA
BRANCH  10  14
ATOM     14  O   UNL     1       9.712  -4.828  26.870  0.00  0.00    -0.295 OA
ATOM     15  H   UNL     1       9.084  -5.044  27.583  0.00  0.00    +0.241 HD
ENDBRANCH  10  14
ENDBRANCH   1  12
TORSDOF 3
ENDMDL
MODEL 3
REMARK VINA RESULT:      -5.5      6.516      7.897
REMARK  Name = 
REMARK  3 active torsions:
REMARK  status: ('A' for Active; 'I' for Inactive)
REMARK    1  A    between atoms: O_1  and  N_2
REMARK    2  A    between atoms: C_3  and  C_5
REMARK    3  A    between atoms: C_6  and  C_7
REMARK                            x       y       z     vdW  Elec       q    Type
REMARK                         _______ _______ _______ _____ _____    ______ ____
ROOT
ATOM      1  C   UNL     1       8.017  -3.663  25.082  0.00  0.00    +0.070 C 
ATOM      2  C   UNL     1       8.757  -3.580  23.967  0.00  0.00    +0.013 C 
ENDROOT
BRANCH   2   3
ATOM      3  C   UNL     1       9.177  -2.272  23.475  0.00  0.00    -0.025 A 
ATOM      4  C   UNL     1       8.947  -1.926  22.138  0.00  0.00    +0.009 A 
ATOM      5  C   UNL     1       9.277  -0.652  21.674  0.00  0.00    +0.020 A 
ATOM      6  C   UNL     1       9.836   0.279  22.547  0.00  0.00    +0.041 A 
ATOM      7 CL   UNL     1      10.225   1.856  21.981  0.00  0.00    -0.084 Cl
ATOM      8  C   UNL     1      10.073  -0.056  23.881  0.00  0.00    +0.020 A 
ATOM      9  C   UNL     1       9.741  -1.330  24.343  0.00  0.00    +0.009 A 
ENDBRANCH   2   3
BRANCH   1  12
ATOM     10  N   UNL     1       8.315  -5.571  26.537  0.00  0.00    -0.194 N 
ATOM     11  H   UNL     1       7.988  -6.439  26.949  0.00  0.00    +0.183 HD
ATOM     12  C   UNL     1       7.541  -4.974  25.587  0.00  0.00    +0.259 C 
ATOM     13  O   UNL     1       6.513  -5.505  25.179  0.00  0.00    -0.269 OA
BRANCH  10  14
ATOM     14  O   UNL     1       9.452  -4.938  27.067  0.00  0.00    -0.295 OA
ATOM     15  H   UNL     1       9.622  -4.210  26.442  0.00  0.00    +0.241 HD
ENDBRANCH  10  14
ENDBRANCH   1  12
TORSDOF 3
ENDMDL
MODEL 4
REMARK VINA RESULT:      -5.5      3.479      4.544
REMARK  Name = 
REMARK  3 active torsions:
REMARK  status: ('A' for Active; 'I' for Inactive)
REMARK    1  A    between atoms: O_1  and  N_2
REMARK    2  A    between atoms: C_3  and  C_5
REMARK    3  A    between atoms: C_6  and  C_7
REMARK                            x       y       z     vdW  Elec       q    Type
REMARK                         _______ _______ _______ _____ _____    ______ ____
ROOT
ATOM      1  C   UNL     1       9.509   0.831  23.536  0.00  0.00    +0.070 C 
ATOM      2  C   UNL     1      10.245  -0.252  23.825  0.00  0.00    +0.013 C 
ENDROOT
BRANCH   2   3
ATOM      3  C   UNL     1       9.625  -1.388  24.500  0.00  0.00    -0.025 A 
ATOM      4  C   UNL     1       9.830  -2.683  24.008  0.00  0.00    +0.009 A 
ATOM      5  C   UNL     1       9.304  -3.784  24.687  0.00  0.00    +0.020 A 
ATOM      6  C   UNL     1       8.573  -3.590  25.857  0.00  0.00    +0.041 A 
ATOM      7 CL   UNL     1       7.941  -4.948  26.704  0.00  0.00    -0.084 Cl
ATOM      8  C   UNL     1       8.360  -2.304  26.354  0.00  0.00    +0.020 A 
ATOM      9  C   UNL     1       8.889  -1.204  25.675  0.00  0.00    +0.009 A 
ENDBRANCH   2   3
BRANCH   1  12
ATOM     10  N   UNL     1       9.792   2.222  21.578  0.00  0.00    -0.194 N 
ATOM     11  H   UNL     1      10.140   3.058  21.121  0.00  0.00    +0.183 HD
ATOM     12  C   UNL     1      10.117   2.017  22.886  0.00  0.00    +0.259 C 
ATOM     13  O   UNL     1      10.876   2.778  23.479  0.00  0.00    -0.269 OA
BRANCH  10  14
ATOM     14  O   UNL     1       8.864   1.404  20.913  0.00  0.00    -0.295 OA
ATOM     15  H   UNL     1       9.075   1.537  19.971  0.00  0.00    +0.241 HD
ENDBRANCH  10  14
ENDBRANCH   1  12
TORSDOF 3
ENDMDL
MODEL 5
REMARK VINA RESULT:      -5.4      1.686      2.590
REMARK  Name = 
REMARK  3 active torsions:
REMARK  status: ('A' for Active; 'I' for Inactive)
REMARK    1  A    between atoms: O_1  and  N_2
REMARK    2  A    between atoms: C_3  and  C_5
REMARK    3  A    between atoms: C_6  and  C_7
REMARK                            x       y       z     vdW  Elec       q    Type
REMARK                         _______ _______ _______ _____ _____    ______ ____
ROOT
ATOM      1  C   UNL     1       9.740   4.164  23.751  0.00  0.00    +0.070 C 
ATOM      2  C   UNL     1      10.649   3.279  23.317  0.00  0.00    +0.013 C 
ENDROOT
BRANCH   2   3
ATOM      3  C   UNL     1      10.349   1.851  23.367  0.00  0.00    -0.025 A 
ATOM      4  C   UNL     1      10.038   1.166  22.186  0.00  0.00    +0.009 A 
ATOM      5  C   UNL     1       9.821  -0.213  22.210  0.00  0.00    +0.020 A 
ATOM      6  C   UNL     1       9.917  -0.907  23.414  0.00  0.00    +0.041 A 
ATOM      7 CL   UNL     1       9.669  -2.610  23.440  0.00  0.00    -0.084 Cl
ATOM      8  C   UNL     1      10.223  -0.235  24.596  0.00  0.00    +0.020 A 
ATOM      9  C   UNL     1      10.441   1.144  24.571  0.00  0.00    +0.009 A 
ENDBRANCH   2   3
BRANCH   1  12
ATOM     10  N   UNL     1       9.240   6.389  22.949  0.00  0.00    -0.194 N 
ATOM     11  H   UNL     1       9.369   7.396  22.971  0.00  0.00    +0.183 HD
ATOM     12  C   UNL     1      10.029   5.618  23.750  0.00  0.00    +0.259 C 
ATOM     13  O   UNL     1      10.926   6.113  24.425  0.00  0.00    -0.269 OA
BRANCH  10  14
ATOM     14  O   UNL     1       8.161   5.845  22.233  0.00  0.00    -0.295 OA
ATOM     15  H   UNL     1       7.791   6.611  21.758  0.00  0.00    +0.241 HD
ENDBRANCH  10  14
ENDBRANCH   1  12
TORSDOF 3
ENDMDL
MODEL 6
REMARK VINA RESULT:      -5.2      6.126      7.401
REMARK  Name = 
REMARK  3 active torsions:
REMARK  status: ('A' for Active; 'I' for Inactive)
REMARK    1  A    between atoms: O_1  and  N_2
REMARK    2  A    between atoms: C_3  and  C_5
REMARK    3  A    between atoms: C_6  and  C_7
REMARK                            x       y       z     vdW  Elec       q    Type
REMARK                         _______ _______ _______ _____ _____    ______ ____
ROOT
ATOM      1  C   UNL     1       7.903  -2.764  22.927  0.00  0.00    +0.070 C 
ATOM      2  C   UNL     1       9.188  -2.412  23.076  0.00  0.00    +0.013 C 
ENDROOT
BRANCH   2   3
ATOM      3  C   UNL     1       9.546  -0.998  23.148  0.00  0.00    -0.025 A 
ATOM      4  C   UNL     1       9.979  -0.453  24.363  0.00  0.00    +0.009 A 
ATOM      5  C   UNL     1      10.394   0.878  24.427  0.00  0.00    +0.020 A 
ATOM      6  C   UNL     1      10.378   1.664  23.277  0.00  0.00    +0.041 A 
ATOM      7 CL   UNL     1      10.908   3.300  23.353  0.00  0.00    -0.084 Cl
ATOM      8  C   UNL     1       9.946   1.132  22.062  0.00  0.00    +0.020 A 
ATOM      9  C   UNL     1       9.532  -0.200  21.999  0.00  0.00    +0.009 A 
ENDBRANCH   2   3
BRANCH   1  12
ATOM     10  N   UNL     1       6.385  -4.449  22.086  0.00  0.00    -0.194 N 
ATOM     11  H   UNL     1       6.123  -5.417  21.935  0.00  0.00    +0.183 HD
ATOM     12  C   UNL     1       7.509  -4.189  22.812  0.00  0.00    +0.259 C 
ATOM     13  O   UNL     1       8.149  -5.094  23.340  0.00  0.00    -0.269 OA
BRANCH  10  14
ATOM     14  O   UNL     1       5.690  -3.430  21.414  0.00  0.00    -0.295 OA
ATOM     15  H   UNL     1       6.320  -3.133  20.732  0.00  0.00    +0.241 HD
ENDBRANCH  10  14
ENDBRANCH   1  12
TORSDOF 3
ENDMDL
MODEL 7
REMARK VINA RESULT:      -5.1      3.510      4.606
REMARK  Name = 
REMARK  3 active torsions:
REMARK  status: ('A' for Active; 'I' for Inactive)
REMARK    1  A    between atoms: O_1  and  N_2
REMARK    2  A    between atoms: C_3  and  C_5
REMARK    3  A    between atoms: C_6  and  C_7
REMARK                            x       y       z     vdW  Elec       q    Type
REMARK                         _______ _______ _______ _____ _____    ______ ____
ROOT
ATOM      1  C   UNL     1       9.477   0.293  23.269  0.00  0.00    +0.070 C 
ATOM      2  C   UNL     1       9.995  -0.909  22.978  0.00  0.00    +0.013 C 
ENDROOT
BRANCH   2   3
ATOM      3  C   UNL     1       9.167  -2.104  23.112  0.00  0.00    -0.025 A 
ATOM      4  C   UNL     1       9.431  -3.020  24.136  0.00  0.00    +0.009 A 
ATOM      5  C   UNL     1       8.602  -4.128  24.319  0.00  0.00    +0.020 A 
ATOM      6  C   UNL     1       7.507  -4.319  23.479  0.00  0.00    +0.041 A 
ATOM      7 CL   UNL     1       6.473  -5.674  23.717  0.00  0.00    -0.084 Cl
ATOM      8  C   UNL     1       7.236  -3.414  22.453  0.00  0.00    +0.020 A 
ATOM      9  C   UNL     1       8.066  -2.306  22.272  0.00  0.00    +0.009 A 
ENDBRANCH   2   3
BRANCH   1  12
ATOM     10  N   UNL     1      10.077   2.324  22.102  0.00  0.00    -0.194 N 
ATOM     11  H   UNL     1      10.579   3.204  22.042  0.00  0.00    +0.183 HD
ATOM     12  C   UNL     1      10.303   1.522  23.180  0.00  0.00    +0.259 C 
ATOM     13  O   UNL     1      11.149   1.810  24.022  0.00  0.00    -0.269 OA
BRANCH  10  14
ATOM     14  O   UNL     1       9.059   2.045  21.175  0.00  0.00    -0.295 OA
ATOM     15  H   UNL     1       9.152   2.752  20.511  0.00  0.00    +0.241 HD
ENDBRANCH  10  14
ENDBRANCH   1  12
TORSDOF 3
ENDMDL
MODEL 8
REMARK VINA RESULT:      -5.1      6.062      7.340
REMARK  Name = 
REMARK  3 active torsions:
REMARK  status: ('A' for Active; 'I' for Inactive)
REMARK    1  A    between atoms: O_1  and  N_2
REMARK    2  A    between atoms: C_3  and  C_5
REMARK    3  A    between atoms: C_6  and  C_7
REMARK                            x       y       z     vdW  Elec       q    Type
REMARK                         _______ _______ _______ _____ _____    ______ ____
ROOT
ATOM      1  C   UNL     1       8.837  -2.990  24.378  0.00  0.00    +0.070 C 
ATOM      2  C   UNL     1       9.823  -2.451  23.647  0.00  0.00    +0.013 C 
ENDROOT
BRANCH   2   3
ATOM      3  C   UNL     1       9.944  -0.999  23.557  0.00  0.00    -0.025 A 
ATOM      4  C   UNL     1      10.208  -0.252  24.711  0.00  0.00    +0.009 A 
ATOM      5  C   UNL     1      10.399   1.129  24.626  0.00  0.00    +0.020 A 
ATOM      6  C   UNL     1      10.328   1.762  23.387  0.00  0.00    +0.041 A 
ATOM      7 CL   UNL     1      10.583   3.460  23.280  0.00  0.00    -0.084 Cl
ATOM      8  C   UNL     1      10.064   1.027  22.232  0.00  0.00    +0.020 A 
ATOM      9  C   UNL     1       9.873  -0.353  22.318  0.00  0.00    +0.009 A 
ENDBRANCH   2   3
BRANCH   1  12
ATOM     10  N   UNL     1       7.383  -4.923  24.380  0.00  0.00    -0.194 N 
ATOM     11  H   UNL     1       7.232  -5.926  24.370  0.00  0.00    +0.183 HD
ATOM     12  C   UNL     1       8.663  -4.461  24.459  0.00  0.00    +0.259 C 
ATOM     13  O   UNL     1       9.609  -5.231  24.593  0.00  0.00    -0.269 OA
BRANCH  10  14
ATOM     14  O   UNL     1       6.300  -4.058  24.148  0.00  0.00    -0.295 OA
ATOM     15  H   UNL     1       5.719  -4.207  24.916  0.00  0.00    +0.241 HD
ENDBRANCH  10  14
ENDBRANCH   1  12
TORSDOF 3
ENDMDL
MODEL 9
REMARK VINA RESULT:      -5.1      6.054      7.454
REMARK  Name = 
REMARK  3 active torsions:
REMARK  status: ('A' for Active; 'I' for Inactive)
REMARK    1  A    between atoms: O_1  and  N_2
REMARK    2  A    between atoms: C_3  and  C_5
REMARK    3  A    between atoms: C_6  and  C_7
REMARK                            x       y       z     vdW  Elec       q    Type
REMARK                         _______ _______ _______ _____ _____    ______ ____
ROOT
ATOM      1  C   UNL     1       7.948  -2.674  23.050  0.00  0.00    +0.070 C 
ATOM      2  C   UNL     1       9.163  -2.296  22.627  0.00  0.00    +0.013 C 
ENDROOT
BRANCH   2   3
ATOM      3  C   UNL     1       9.598  -0.916  22.820  0.00  0.00    -0.025 A 
ATOM      4  C   UNL     1       9.544  -0.015  21.749  0.00  0.00    +0.009 A 
ATOM      5  C   UNL     1       9.888   1.325  21.941  0.00  0.00    +0.020 A 
ATOM      6  C   UNL     1      10.283   1.765  23.202  0.00  0.00    +0.041 A 
ATOM      7 CL   UNL     1      10.688   3.420  23.442  0.00  0.00    -0.084 Cl
ATOM      8  C   UNL     1      10.343   0.875  24.275  0.00  0.00    +0.020 A 
ATOM      9  C   UNL     1       9.998  -0.464  24.082  0.00  0.00    +0.009 A 
ENDBRANCH   2   3
BRANCH   1  12
ATOM     10  N   UNL     1       6.259  -4.184  22.205  0.00  0.00    -0.194 N 
ATOM     11  H   UNL     1       5.925  -5.117  21.986  0.00  0.00    +0.183 HD
ATOM     12  C   UNL     1       7.461  -4.058  22.835  0.00  0.00    +0.259 C 
ATOM     13  O   UNL     1       8.094  -5.044  23.201  0.00  0.00    -0.269 OA
BRANCH  10  14
ATOM     14  O   UNL     1       5.564  -3.067  21.712  0.00  0.00    -0.295 OA
ATOM     15  H   UNL     1       4.648  -3.217  22.007  0.00  0.00    +0.241 HD
ENDBRANCH  10  14
ENDBRANCH   1  12
TORSDOF 3
ENDMDL
