MODEL 1
REMARK VINA RESULT:      -7.6      0.000      0.000
REMARK  Name = 
REMARK  5 active torsions:
REMARK  status: ('A' for Active; 'I' for Inactive)
REMARK    1  A    between atoms: C_1  and  C_2
REMARK    2  A    between atoms: N_4  and  C_5
REMARK    3  A    between atoms: C_5  and  C_6
REMARK    4  A    between atoms: N_9  and  C_13
REMARK    5  A    between atoms: C_17  and  N_20
REMARK                            x       y       z     vdW  Elec       q    Type
REMARK                         _______ _______ _______ _____ _____    ______ ____
ROOT
ATOM      1  C   UNL     1       8.798  -0.751  24.112  0.00  0.00    +0.042 A 
ATOM      2  C   UNL     1       7.482  -0.731  24.587  0.00  0.00    +0.025 A 
ATOM      3  C   UNL     1       6.886  -1.894  25.088  0.00  0.00    +0.028 A 
ATOM      4  C   UNL     1       7.570  -3.119  25.147  0.00  0.00    +0.066 A 
ATOM      5  C   UNL     1       8.900  -3.112  24.719  0.00  0.00    +0.146 A 
ATOM      6  F   UNL     1       9.640  -4.233  24.774  0.00  0.00    -0.203 F 
ATOM      7  C   UNL     1       9.503  -1.953  24.206  0.00  0.00    +0.063 A 
ENDROOT
BRANCH   1  12
ATOM      8  C   UNL     1      10.720   2.276  23.522  0.00  0.00    +0.213 C 
ATOM      9  O   UNL     1      10.377   1.882  22.184  0.00  0.00    -0.444 OA
ATOM     10  C   UNL     1       9.734   0.671  22.272  0.00  0.00    +0.408 C 
ATOM     11  O   UNL     1       9.502  -0.004  21.283  0.00  0.00    -0.226 OA
ATOM     12  N   UNL     1       9.397   0.423  23.595  0.00  0.00    -0.234 N 
ATOM     13  C   UNL     1       9.651   1.611  24.359  0.00  0.00    +0.163 C 
BRANCH   8  14
ATOM     14  C   UNL     1      10.747   3.797  23.629  0.00  0.00    +0.150 C 
BRANCH  14  17
ATOM     15  C   UNL     1      13.572   5.727  22.001  0.00  0.00    +0.109 C 
ATOM     16  C   UNL     1      12.636   5.296  23.096  0.00  0.00    +0.210 C 
ATOM     17  N   UNL     1      11.686   4.388  22.685  0.00  0.00    -0.312 N 
ATOM     18  H   UNL     1      11.822   3.919  21.797  0.00  0.00    +0.149 HD
ATOM     19  O   UNL     1      12.717   5.713  24.247  0.00  0.00    -0.276 OA
ENDBRANCH  14  17
ENDBRANCH   8  14
ENDBRANCH   1  12
BRANCH   4  20
ATOM     20  N   UNL     1       6.876  -4.221  25.635  0.00  0.00    -0.323 N 
ATOM     21  C   UNL     1       6.499  -5.211  24.604  0.00  0.00    +0.133 C 
ATOM     22  C   UNL     1       5.315  -6.024  25.142  0.00  0.00    +0.178 C 
ATOM     23  O   UNL     1       5.653  -6.684  26.376  0.00  0.00    -0.377 OA
ATOM     24  C   UNL     1       6.079  -5.729  27.369  0.00  0.00    +0.178 C 
ATOM     25  C   UNL     1       7.282  -4.890  26.884  0.00  0.00    +0.133 C 
ENDBRANCH   4  20
TORSDOF 4
ENDMDL
MODEL 2
REMARK VINA RESULT:      -7.2      1.197      1.287
REMARK  Name = 
REMARK  5 active torsions:
REMARK  status: ('A' for Active; 'I' for Inactive)
REMARK    1  A    between atoms: C_1  and  C_2
REMARK    2  A    between atoms: N_4  and  C_5
REMARK    3  A    between atoms: C_5  and  C_6
REMARK    4  A    between atoms: N_9  and  C_13
REMARK    5  A    between atoms: C_17  and  N_20
REMARK                            x       y       z     vdW  Elec       q    Type
REMARK                         _______ _______ _______ _____ _____    ______ ____
ROOT
ATOM      1  C   UNL     1       8.142  -1.328  23.519  0.00  0.00    +0.042 A 
ATOM      2  C   UNL     1       6.763  -1.299  23.752  0.00  0.00    +0.025 A 
ATOM      3  C   UNL     1       6.068  -2.471  24.072  0.00  0.00    +0.028 A 
ATOM      4  C   UNL     1       6.710  -3.715  24.182  0.00  0.00    +0.066 A 
ATOM      5  C   UNL     1       8.096  -3.719  24.000  0.00  0.00    +0.146 A 
ATOM      6  F   UNL     1       8.797  -4.860  24.123  0.00  0.00    -0.203 F 
ATOM      7  C   UNL     1       8.800  -2.551  23.670  0.00  0.00    +0.063 A 
ENDROOT
BRANCH   1  12
ATOM      8  C   UNL     1      10.184   1.678  23.457  0.00  0.00    +0.213 C 
ATOM      9  O   UNL     1      10.087   1.361  22.059  0.00  0.00    -0.444 OA
ATOM     10  C   UNL     1       9.421   0.163  21.962  0.00  0.00    +0.408 C 
ATOM     11  O   UNL     1       9.366  -0.456  20.912  0.00  0.00    -0.226 OA
ATOM     12  N   UNL     1       8.843  -0.144  23.186  0.00  0.00    -0.234 N 
ATOM     13  C   UNL     1       8.969   0.997  24.047  0.00  0.00    +0.163 C 
BRANCH   8  14
ATOM     14  C   UNL     1      10.212   3.190  23.649  0.00  0.00    +0.150 C 
BRANCH  14  17
ATOM     15  C   UNL     1      13.070   5.485  22.689  0.00  0.00    +0.109 C 
ATOM     16  C   UNL     1      11.784   5.071  23.351  0.00  0.00    +0.210 C 
ATOM     17  N   UNL     1      11.388   3.791  23.035  0.00  0.00    -0.312 N 
ATOM     18  H   UNL     1      12.065   3.171  22.604  0.00  0.00    +0.149 HD
ATOM     19  O   UNL     1      11.154   5.805  24.105  0.00  0.00    -0.276 OA
ENDBRANCH  14  17
ENDBRANCH   8  14
ENDBRANCH   1  12
BRANCH   4  20
ATOM     20  N   UNL     1       5.923  -4.823  24.475  0.00  0.00    -0.323 N 
ATOM     21  C   UNL     1       5.635  -5.692  23.314  0.00  0.00    +0.133 C 
ATOM     22  C   UNL     1       4.365  -6.493  23.629  0.00  0.00    +0.178 C 
ATOM     23  O   UNL     1       4.529  -7.282  24.821  0.00  0.00    -0.377 OA
ATOM     24  C   UNL     1       4.869  -6.447  25.947  0.00  0.00    +0.178 C 
ATOM     25  C   UNL     1       6.152  -5.626  25.690  0.00  0.00    +0.133 C 
ENDBRANCH   4  20
TORSDOF 4
ENDMDL
MODEL 3
REMARK VINA RESULT:      -7.1      3.234      8.944
REMARK  Name = 
REMARK  5 active torsions:
REMARK  status: ('A' for Active; 'I' for Inactive)
REMARK    1  A    between atoms: C_1  and  C_2
REMARK    2  A    between atoms: N_4  and  C_5
REMARK    3  A    between atoms: C_5  and  C_6
REMARK    4  A    between atoms: N_9  and  C_13
REMARK    5  A    between atoms: C_17  and  N_20
REMARK                            x       y       z     vdW  Elec       q    Type
REMARK                         _______ _______ _______ _____ _____    ______ ____
ROOT
ATOM      1  C   UNL     1       7.731  -1.468  22.762  0.00  0.00    +0.042 A 
ATOM      2  C   UNL     1       6.849  -0.633  23.456  0.00  0.00    +0.025 A 
ATOM      3  C   UNL     1       7.079   0.746  23.530  0.00  0.00    +0.028 A 
ATOM      4  C   UNL     1       8.186   1.353  22.916  0.00  0.00    +0.066 A 
ATOM      5  C   UNL     1       9.029   0.515  22.182  0.00  0.00    +0.146 A 
ATOM      6  F   UNL     1      10.093   1.017  21.530  0.00  0.00    -0.203 F 
ATOM      7  C   UNL     1       8.811  -0.871  22.109  0.00  0.00    +0.063 A 
ENDROOT
BRANCH   1  12
ATOM      8  C   UNL     1       7.065  -4.902  21.777  0.00  0.00    +0.213 C 
ATOM      9  O   UNL     1       7.677  -5.080  23.064  0.00  0.00    -0.444 OA
ATOM     10  C   UNL     1       8.079  -3.839  23.495  0.00  0.00    +0.408 C 
ATOM     11  O   UNL     1       8.808  -3.703  24.464  0.00  0.00    -0.226 OA
ATOM     12  N   UNL     1       7.502  -2.864  22.695  0.00  0.00    -0.234 N 
ATOM     13  C   UNL     1       6.530  -3.489  21.845  0.00  0.00    +0.163 C 
BRANCH   8  14
ATOM     14  C   UNL     1       5.997  -5.968  21.553  0.00  0.00    +0.150 C 
BRANCH  14  17
ATOM     15  C   UNL     1       3.896  -6.823  24.588  0.00  0.00    +0.109 C 
ATOM     16  C   UNL     1       4.289  -6.095  23.332  0.00  0.00    +0.210 C 
ATOM     17  N   UNL     1       5.497  -6.503  22.812  0.00  0.00    -0.312 N 
ATOM     18  H   UNL     1       5.896  -7.372  23.148  0.00  0.00    +0.149 HD
ATOM     19  O   UNL     1       3.594  -5.224  22.819  0.00  0.00    -0.276 OA
ENDBRANCH  14  17
ENDBRANCH   8  14
ENDBRANCH   1  12
BRANCH   4  20
ATOM     20  N   UNL     1       8.340   2.725  23.076  0.00  0.00    -0.323 N 
ATOM     21  C   UNL     1       7.123   3.514  22.788  0.00  0.00    +0.133 C 
ATOM     22  C   UNL     1       7.559   4.947  22.453  0.00  0.00    +0.178 C 
ATOM     23  O   UNL     1       8.296   5.535  23.540  0.00  0.00    -0.377 OA
ATOM     24  C   UNL     1       9.453   4.738  23.866  0.00  0.00    +0.178 C 
ATOM     25  C   UNL     1       9.071   3.286  24.226  0.00  0.00    +0.133 C 
ENDBRANCH   4  20
TORSDOF 4
ENDMDL
MODEL 4
REMARK VINA RESULT:      -7.1      1.331      1.653
REMARK  Name = 
REMARK  5 active torsions:
REMARK  status: ('A' for Active; 'I' for Inactive)
REMARK    1  A    between atoms: C_1  and  C_2
REMARK    2  A    between atoms: N_4  and  C_5
REMARK    3  A    between atoms: C_5  and  C_6
REMARK    4  A    between atoms: N_9  and  C_13
REMARK    5  A    between atoms: C_17  and  N_20
REMARK                            x       y       z     vdW  Elec       q    Type
REMARK                         _______ _______ _______ _____ _____    ______ ____
ROOT
ATOM      1  C   UNL     1       8.852  -0.499  24.155  0.00  0.00    +0.042 A 
ATOM      2  C   UNL     1       7.560  -0.516  24.689  0.00  0.00    +0.025 A 
ATOM      3  C   UNL     1       7.017  -1.696  25.210  0.00  0.00    +0.028 A 
ATOM      4  C   UNL     1       7.734  -2.903  25.229  0.00  0.00    +0.066 A 
ATOM      5  C   UNL     1       9.043  -2.859  24.740  0.00  0.00    +0.146 A 
ATOM      6  F   UNL     1       9.814  -3.961  24.754  0.00  0.00    -0.203 F 
ATOM      7  C   UNL     1       9.592  -1.682  24.208  0.00  0.00    +0.063 A 
ENDROOT
BRANCH   1  12
ATOM      8  C   UNL     1      10.640   2.599  23.512  0.00  0.00    +0.213 C 
ATOM      9  O   UNL     1      10.300   2.176  22.182  0.00  0.00    -0.444 OA
ATOM     10  C   UNL     1       9.709   0.941  22.290  0.00  0.00    +0.408 C 
ATOM     11  O   UNL     1       9.495   0.246  21.311  0.00  0.00    -0.226 OA
ATOM     12  N   UNL     1       9.397   0.694  23.619  0.00  0.00    -0.234 N 
ATOM     13  C   UNL     1       9.609   1.899  24.368  0.00  0.00    +0.163 C 
BRANCH   8  14
ATOM     14  C   UNL     1      10.604   4.121  23.603  0.00  0.00    +0.150 C 
BRANCH  14  17
ATOM     15  C   UNL     1       7.769   6.390  22.521  0.00  0.00    +0.109 C 
ATOM     16  C   UNL     1       9.041   5.994  23.219  0.00  0.00    +0.210 C 
ATOM     17  N   UNL     1       9.364   4.664  23.066  0.00  0.00    -0.312 N 
ATOM     18  H   UNL     1       8.889   4.134  22.345  0.00  0.00    +0.149 HD
ATOM     19  O   UNL     1       9.727   6.785  23.858  0.00  0.00    -0.276 OA
ENDBRANCH  14  17
ENDBRANCH   8  14
ENDBRANCH   1  12
BRANCH   4  20
ATOM     20  N   UNL     1       7.093  -4.026  25.740  0.00  0.00    -0.323 N 
ATOM     21  C   UNL     1       6.629  -4.985  24.715  0.00  0.00    +0.133 C 
ATOM     22  C   UNL     1       5.502  -5.824  25.331  0.00  0.00    +0.178 C 
ATOM     23  O   UNL     1       5.952  -6.521  26.507  0.00  0.00    -0.377 OA
ATOM     24  C   UNL     1       6.461  -5.595  27.489  0.00  0.00    +0.178 C 
ATOM     25  C   UNL     1       7.612  -4.732  26.926  0.00  0.00    +0.133 C 
ENDBRANCH   4  20
TORSDOF 4
ENDMDL
MODEL 5
REMARK VINA RESULT:      -7.0      2.783      8.919
REMARK  Name = 
REMARK  5 active torsions:
REMARK  status: ('A' for Active; 'I' for Inactive)
REMARK    1  A    between atoms: C_1  and  C_2
REMARK    2  A    between atoms: N_4  and  C_5
REMARK    3  A    between atoms: C_5  and  C_6
REMARK    4  A    between atoms: N_9  and  C_13
REMARK    5  A    between atoms: C_17  and  N_20
REMARK                            x       y       z     vdW  Elec       q    Type
REMARK                         _______ _______ _______ _____ _____    ______ ____
ROOT
ATOM      1  C   UNL     1       8.858  -0.215  24.008  0.00  0.00    +0.042 A 
ATOM      2  C   UNL     1       8.994   0.733  25.027  0.00  0.00    +0.025 A 
ATOM      3  C   UNL     1       8.918   2.102  24.745  0.00  0.00    +0.028 A 
ATOM      4  C   UNL     1       8.696   2.586  23.446  0.00  0.00    +0.066 A 
ATOM      5  C   UNL     1       8.509   1.627  22.447  0.00  0.00    +0.146 A 
ATOM      6  F   UNL     1       8.254   2.001  21.181  0.00  0.00    -0.203 F 
ATOM      7  C   UNL     1       8.593   0.252  22.719  0.00  0.00    +0.063 A 
ENDROOT
BRANCH   1  12
ATOM      8  C   UNL     1       8.264  -3.698  24.858  0.00  0.00    +0.213 C 
ATOM      9  O   UNL     1       9.529  -3.774  24.181  0.00  0.00    -0.444 OA
ATOM     10  C   UNL     1       9.809  -2.515  23.708  0.00  0.00    +0.408 C 
ATOM     11  O   UNL     1      10.720  -2.315  22.921  0.00  0.00    -0.226 OA
ATOM     12  N   UNL     1       8.945  -1.599  24.292  0.00  0.00    -0.234 N 
ATOM     13  C   UNL     1       8.216  -2.263  25.334  0.00  0.00    +0.163 C 
BRANCH   8  14
ATOM     14  C   UNL     1       8.206  -4.733  25.976  0.00  0.00    +0.150 C 
BRANCH  14  17
ATOM     15  C   UNL     1       5.046  -6.492  27.108  0.00  0.00    +0.109 C 
ATOM     16  C   UNL     1       6.444  -5.946  27.211  0.00  0.00    +0.210 C 
ATOM     17  N   UNL     1       6.906  -5.387  26.041  0.00  0.00    -0.312 N 
ATOM     18  H   UNL     1       6.235  -5.176  25.310  0.00  0.00    +0.149 HD
ATOM     19  O   UNL     1       7.104  -5.990  28.243  0.00  0.00    -0.276 OA
ENDBRANCH  14  17
ENDBRANCH   8  14
ENDBRANCH   1  12
BRANCH   4  20
ATOM     20  N   UNL     1       8.667   3.965  23.268  0.00  0.00    -0.323 N 
ATOM     21  C   UNL     1       7.333   4.510  22.937  0.00  0.00    +0.133 C 
ATOM     22  C   UNL     1       7.537   5.860  22.236  0.00  0.00    +0.178 C 
ATOM     23  O   UNL     1       8.264   6.777  23.073  0.00  0.00    -0.377 OA
ATOM     24  C   UNL     1       9.543   6.226  23.449  0.00  0.00    +0.178 C 
ATOM     25  C   UNL     1       9.396   4.870  24.174  0.00  0.00    +0.133 C 
ENDBRANCH   4  20
TORSDOF 4
ENDMDL
MODEL 6
REMARK VINA RESULT:      -6.9      2.562      3.172
REMARK  Name = 
REMARK  5 active torsions:
REMARK  status: ('A' for Active; 'I' for Inactive)
REMARK    1  A    between atoms: C_1  and  C_2
REMARK    2  A    between atoms: N_4  and  C_5
REMARK    3  A    between atoms: C_5  and  C_6
REMARK    4  A    between atoms: N_9  and  C_13
REMARK    5  A    between atoms: C_17  and  N_20
REMARK                            x       y       z     vdW  Elec       q    Type
REMARK                         _______ _______ _______ _____ _____    ______ ____
ROOT
ATOM      1  C   UNL     1       8.332   1.282  24.086  0.00  0.00    +0.042 A 
ATOM      2  C   UNL     1       7.094   0.803  23.649  0.00  0.00    +0.025 A 
ATOM      3  C   UNL     1       6.908  -0.559  23.382  0.00  0.00    +0.028 A 
ATOM      4  C   UNL     1       7.937  -1.499  23.546  0.00  0.00    +0.066 A 
ATOM      5  C   UNL     1       9.154  -1.014  24.034  0.00  0.00    +0.146 A 
ATOM      6  F   UNL     1      10.183  -1.851  24.255  0.00  0.00    -0.203 F 
ATOM      7  C   UNL     1       9.352   0.351  24.295  0.00  0.00    +0.063 A 
ENDROOT
BRANCH   1  12
ATOM      8  C   UNL     1       8.760   4.888  23.926  0.00  0.00    +0.213 C 
ATOM      9  O   UNL     1       8.378   4.699  25.298  0.00  0.00    -0.444 OA
ATOM     10  C   UNL     1       8.077   3.368  25.453  0.00  0.00    +0.408 C 
ATOM     11  O   UNL     1       7.530   2.948  26.460  0.00  0.00    -0.226 OA
ATOM     12  N   UNL     1       8.522   2.662  24.345  0.00  0.00    -0.234 N 
ATOM     13  C   UNL     1       9.322   3.538  23.538  0.00  0.00    +0.163 C 
BRANCH   8  14
ATOM     14  C   UNL     1       9.754   6.038  23.813  0.00  0.00    +0.150 C 
BRANCH  14  17
ATOM     15  C   UNL     1      13.335   5.264  22.845  0.00  0.00    +0.109 C 
ATOM     16  C   UNL     1      12.211   5.822  23.674  0.00  0.00    +0.210 C 
ATOM     17  N   UNL     1      10.967   5.638  23.113  0.00  0.00    -0.312 N 
ATOM     18  H   UNL     1      10.876   4.973  22.353  0.00  0.00    +0.149 HD
ATOM     19  O   UNL     1      12.388   6.382  24.751  0.00  0.00    -0.276 OA
ENDBRANCH  14  17
ENDBRANCH   8  14
ENDBRANCH   1  12
BRANCH   4  20
ATOM     20  N   UNL     1       7.658  -2.823  23.225  0.00  0.00    -0.323 N 
ATOM     21  C   UNL     1       7.651  -3.744  24.382  0.00  0.00    +0.133 C 
ATOM     22  C   UNL     1       7.897  -5.163  23.856  0.00  0.00    +0.178 C 
ATOM     23  O   UNL     1       6.892  -5.547  22.900  0.00  0.00    -0.377 OA
ATOM     24  C   UNL     1       6.853  -4.619  21.796  0.00  0.00    +0.178 C 
ATOM     25  C   UNL     1       6.593  -3.172  22.268  0.00  0.00    +0.133 C 
ENDBRANCH   4  20
TORSDOF 4
ENDMDL
MODEL 7
REMARK VINA RESULT:      -6.7      2.376      8.753
REMARK  Name = 
REMARK  5 active torsions:
REMARK  status: ('A' for Active; 'I' for Inactive)
REMARK    1  A    between atoms: C_1  and  C_2
REMARK    2  A    between atoms: N_4  and  C_5
REMARK    3  A    between atoms: C_5  and  C_6
REMARK    4  A    between atoms: N_9  and  C_13
REMARK    5  A    between atoms: C_17  and  N_20
REMARK                            x       y       z     vdW  Elec       q    Type
REMARK                         _______ _______ _______ _____ _____    ______ ____
ROOT
ATOM      1  C   UNL     1       8.670  -0.415  23.701  0.00  0.00    +0.042 A 
ATOM      2  C   UNL     1       8.391   0.465  24.752  0.00  0.00    +0.025 A 
ATOM      3  C   UNL     1       8.814   1.798  24.699  0.00  0.00    +0.028 A 
ATOM      4  C   UNL     1       9.521   2.315  23.601  0.00  0.00    +0.066 A 
ATOM      5  C   UNL     1       9.745   1.440  22.536  0.00  0.00    +0.146 A 
ATOM      6  F   UNL     1      10.382   1.861  21.429  0.00  0.00    -0.203 F 
ATOM      7  C   UNL     1       9.333   0.098  22.584  0.00  0.00    +0.063 A 
ENDROOT
BRANCH   1  12
ATOM      8  C   UNL     1       6.957  -3.606  23.397  0.00  0.00    +0.213 C 
ATOM      9  O   UNL     1       8.287  -4.020  23.748  0.00  0.00    -0.444 OA
ATOM     10  C   UNL     1       9.066  -2.889  23.782  0.00  0.00    +0.408 C 
ATOM     11  O   UNL     1      10.282  -2.951  23.857  0.00  0.00    -0.226 OA
ATOM     12  N   UNL     1       8.251  -1.766  23.759  0.00  0.00    -0.234 N 
ATOM     13  C   UNL     1       6.889  -2.189  23.922  0.00  0.00    +0.163 C 
BRANCH   8  14
ATOM     14  C   UNL     1       5.934  -4.554  24.012  0.00  0.00    +0.150 C 
BRANCH  14  17
ATOM     15  C   UNL     1       5.811  -4.346  27.794  0.00  0.00    +0.109 C 
ATOM     16  C   UNL     1       6.160  -4.914  26.445  0.00  0.00    +0.210 C 
ATOM     17  N   UNL     1       5.632  -4.201  25.392  0.00  0.00    -0.312 N 
ATOM     18  H   UNL     1       5.273  -3.270  25.574  0.00  0.00    +0.149 HD
ATOM     19  O   UNL     1       6.855  -5.914  26.301  0.00  0.00    -0.276 OA
ENDBRANCH  14  17
ENDBRANCH   8  14
ENDBRANCH   1  12
BRANCH   4  20
ATOM     20  N   UNL     1       9.921   3.645  23.661  0.00  0.00    -0.323 N 
ATOM     21  C   UNL     1       9.154   4.472  24.617  0.00  0.00    +0.133 C 
ATOM     22  C   UNL     1       9.290   5.938  24.187  0.00  0.00    +0.178 C 
ATOM     23  O   UNL     1      10.670   6.348  24.160  0.00  0.00    -0.377 OA
ATOM     24  C   UNL     1      11.437   5.508  23.273  0.00  0.00    +0.178 C 
ATOM     25  C   UNL     1      11.347   4.017  23.669  0.00  0.00    +0.133 C 
ENDBRANCH   4  20
TORSDOF 4
ENDMDL
MODEL 8
REMARK VINA RESULT:      -6.6      3.017      8.549
REMARK  Name = 
REMARK  5 active torsions:
REMARK  status: ('A' for Active; 'I' for Inactive)
REMARK    1  A    between atoms: C_1  and  C_2
REMARK    2  A    between atoms: N_4  and  C_5
REMARK    3  A    between atoms: C_5  and  C_6
REMARK    4  A    between atoms: N_9  and  C_13
REMARK    5  A    between atoms: C_17  and  N_20
REMARK                            x       y       z     vdW  Elec       q    Type
REMARK                         _______ _______ _______ _____ _____    ______ ____
ROOT
ATOM      1  C   UNL     1       8.470   0.261  23.296  0.00  0.00    +0.042 A 
ATOM      2  C   UNL     1       9.057   0.759  24.463  0.00  0.00    +0.025 A 
ATOM      3  C   UNL     1       9.095   2.136  24.713  0.00  0.00    +0.028 A 
ATOM      4  C   UNL     1       8.547   3.072  23.822  0.00  0.00    +0.066 A 
ATOM      5  C   UNL     1       7.916   2.557  22.686  0.00  0.00    +0.146 A 
ATOM      6  F   UNL     1       7.332   3.380  21.797  0.00  0.00    -0.203 F 
ATOM      7  C   UNL     1       7.881   1.178  22.423  0.00  0.00    +0.063 A 
ENDROOT
BRANCH   1  12
ATOM      8  C   UNL     1       7.587  -3.175  22.504  0.00  0.00    +0.213 C 
ATOM      9  O   UNL     1       9.009  -3.183  22.298  0.00  0.00    -0.444 OA
ATOM     10  C   UNL     1       9.448  -1.892  22.462  0.00  0.00    +0.408 C 
ATOM     11  O   UNL     1      10.579  -1.555  22.152  0.00  0.00    -0.226 OA
ATOM     12  N   UNL     1       8.441  -1.132  23.039  0.00  0.00    -0.234 N 
ATOM     13  C   UNL     1       7.385  -2.013  23.451  0.00  0.00    +0.163 C 
BRANCH   8  14
ATOM     14  C   UNL     1       7.131  -4.521  23.056  0.00  0.00    +0.150 C 
BRANCH  14  17
ATOM     15  C   UNL     1       8.286  -4.973  26.636  0.00  0.00    +0.109 C 
ATOM     16  C   UNL     1       8.331  -5.092  25.137  0.00  0.00    +0.210 C 
ATOM     17  N   UNL     1       7.223  -4.569  24.508  0.00  0.00    -0.312 N 
ATOM     18  H   UNL     1       6.609  -3.964  25.041  0.00  0.00    +0.149 HD
ATOM     19  O   UNL     1       9.270  -5.602  24.536  0.00  0.00    -0.276 OA
ENDBRANCH  14  17
ENDBRANCH   8  14
ENDBRANCH   1  12
BRANCH   4  20
ATOM     20  N   UNL     1       8.664   4.418  24.149  0.00  0.00    -0.323 N 
ATOM     21  C   UNL     1       8.194   4.760  25.509  0.00  0.00    +0.133 C 
ATOM     22  C   UNL     1       7.852   6.255  25.526  0.00  0.00    +0.178 C 
ATOM     23  O   UNL     1       8.994   7.056  25.171  0.00  0.00    -0.377 OA
ATOM     24  C   UNL     1       9.495   6.687  23.870  0.00  0.00    +0.178 C 
ATOM     25  C   UNL     1       9.869   5.190  23.799  0.00  0.00    +0.133 C 
ENDBRANCH   4  20
TORSDOF 4
ENDMDL
MODEL 9
REMARK VINA RESULT:      -6.5      2.848      9.063
REMARK  Name = 
REMARK  5 active torsions:
REMARK  status: ('A' for Active; 'I' for Inactive)
REMARK    1  A    between atoms: C_1  and  C_2
REMARK    2  A    between atoms: N_4  and  C_5
REMARK    3  A    between atoms: C_5  and  C_6
REMARK    4  A    between atoms: N_9  and  C_13
REMARK    5  A    between atoms: C_17  and  N_20
REMARK                            x       y       z     vdW  Elec       q    Type
REMARK                         _______ _______ _______ _____ _____    ______ ____
ROOT
ATOM      1  C   UNL     1       8.603  -0.387  23.472  0.00  0.00    +0.042 A 
ATOM      2  C   UNL     1       8.235   0.452  24.530  0.00  0.00    +0.025 A 
ATOM      3  C   UNL     1       8.650   1.788  24.559  0.00  0.00    +0.028 A 
ATOM      4  C   UNL     1       9.438   2.349  23.541  0.00  0.00    +0.066 A 
ATOM      5  C   UNL     1       9.753   1.515  22.465  0.00  0.00    +0.146 A 
ATOM      6  F   UNL     1      10.473   1.979  21.429  0.00  0.00    -0.203 F 
ATOM      7  C   UNL     1       9.349   0.170  22.432  0.00  0.00    +0.063 A 
ENDROOT
BRANCH   1  12
ATOM      8  C   UNL     1       7.703  -3.797  22.597  0.00  0.00    +0.213 C 
ATOM      9  O   UNL     1       7.929  -3.908  24.012  0.00  0.00    -0.444 OA
ATOM     10  C   UNL     1       8.390  -2.688  24.443  0.00  0.00    +0.408 C 
ATOM     11  O   UNL     1       8.857  -2.539  25.561  0.00  0.00    -0.226 OA
ATOM     12  N   UNL     1       8.192  -1.742  23.448  0.00  0.00    -0.234 N 
ATOM     13  C   UNL     1       7.388  -2.329  22.415  0.00  0.00    +0.163 C 
BRANCH   8  14
ATOM     14  C   UNL     1       6.580  -4.738  22.172  0.00  0.00    +0.150 C 
BRANCH  14  17
ATOM     15  C   UNL     1       4.492  -6.793  24.576  0.00  0.00    +0.109 C 
ATOM     16  C   UNL     1       4.776  -5.869  23.423  0.00  0.00    +0.210 C 
ATOM     17  N   UNL     1       6.109  -5.553  23.283  0.00  0.00    -0.312 N 
ATOM     18  H   UNL     1       6.791  -6.115  23.780  0.00  0.00    +0.149 HD
ATOM     19  O   UNL     1       3.901  -5.444  22.676  0.00  0.00    -0.276 OA
ENDBRANCH  14  17
ENDBRANCH   8  14
ENDBRANCH   1  12
BRANCH   4  20
ATOM     20  N   UNL     1       9.821   3.678  23.681  0.00  0.00    -0.323 N 
ATOM     21  C   UNL     1       9.056   4.431  24.697  0.00  0.00    +0.133 C 
ATOM     22  C   UNL     1       9.167   5.924  24.360  0.00  0.00    +0.178 C 
ATOM     23  O   UNL     1      10.541   6.353  24.342  0.00  0.00    -0.377 OA
ATOM     24  C   UNL     1      11.308   5.582  23.394  0.00  0.00    +0.178 C 
ATOM     25  C   UNL     1      11.242   4.069  23.696  0.00  0.00    +0.133 C 
ENDBRANCH   4  20
TORSDOF 4
ENDMDL
