MODEL 1
REMARK VINA RESULT:      -2.6      0.000      0.000
REMARK  Name = 
REMARK  6 active torsions:
REMARK  status: ('A' for Active; 'I' for Inactive)
REMARK    1  A    between atoms: C_1  and  N_2
REMARK    2  A    between atoms: N_2  and  C_3
REMARK    3  A    between atoms: N_2  and  C_4
REMARK    4  A    between atoms: N_2  and  C_5
REMARK    5  A    between atoms: C_5  and  C_6
REMARK    6  A    between atoms: C_6  and  S_7
REMARK                            x       y       z     vdW  Elec       q    Type
REMARK                         _______ _______ _______ _____ _____    ______ ____
ROOT
ATOM      1  C   UNL     1       7.973  -1.468  23.144  0.00  0.00    +0.192 C 
ATOM      2  N   UNL     1       9.392  -1.668  23.689  0.00  0.00    +0.237 N 
ATOM      3  C   UNL     1      10.375  -1.481  22.540  0.00  0.00    +0.192 C 
ATOM      4  C   UNL     1       9.496  -3.091  24.230  0.00  0.00    +0.192 C 
ENDROOT
BRANCH   2   5
ATOM      5  C   UNL     1       9.617  -0.620  24.808  0.00  0.00    +0.143 C 
BRANCH   5   6
ATOM      6  C   UNL     1      10.674   0.439  24.474  0.00  0.00    +0.116 C 
BRANCH   6   7
ATOM      7  S   UNL     1       9.872   2.016  24.059  0.00  0.00    -0.173 S 
ATOM      8  H   UNL     1      10.966   2.794  24.109  0.00  0.00    +0.102 HD
ENDBRANCH   6   7
ENDBRANCH   5   6
ENDBRANCH   2   5
TORSDOF 3
ENDMDL
MODEL 2
REMARK VINA RESULT:      -2.6      2.657      3.512
REMARK  Name = 
REMARK  6 active torsions:
REMARK  status: ('A' for Active; 'I' for Inactive)
REMARK    1  A    between atoms: C_1  and  N_2
REMARK    2  A    between atoms: N_2  and  C_3
REMARK    3  A    between atoms: N_2  and  C_4
REMARK    4  A    between atoms: N_2  and  C_5
REMARK    5  A    between atoms: C_5  and  C_6
REMARK    6  A    between atoms: C_6  and  S_7
REMARK                            x       y       z     vdW  Elec       q    Type
REMARK                         _______ _______ _______ _____ _____    ______ ____
ROOT
ATOM      1  C   UNL     1       8.470   1.603  23.881  0.00  0.00    +0.192 C 
ATOM      2  N   UNL     1       9.889   1.478  23.312  0.00  0.00    +0.237 N 
ATOM      3  C   UNL     1      10.584   2.826  23.464  0.00  0.00    +0.192 C 
ATOM      4  C   UNL     1       9.777   1.121  21.833  0.00  0.00    +0.192 C 
ENDROOT
BRANCH   2   5
ATOM      5  C   UNL     1      10.618   0.368  24.108  0.00  0.00    +0.143 C 
BRANCH   5   6
ATOM      6  C   UNL     1       9.685  -0.688  24.713  0.00  0.00    +0.116 C 
BRANCH   6   7
ATOM      7  S   UNL     1       9.757  -2.220  23.740  0.00  0.00    -0.173 S 
ATOM      8  H   UNL     1       8.933  -1.843  22.748  0.00  0.00    +0.102 HD
ENDBRANCH   6   7
ENDBRANCH   5   6
ENDBRANCH   2   5
TORSDOF 3
ENDMDL
MODEL 3
REMARK VINA RESULT:      -2.6      1.125      2.201
REMARK  Name = 
REMARK  6 active torsions:
REMARK  status: ('A' for Active; 'I' for Inactive)
REMARK    1  A    between atoms: C_1  and  N_2
REMARK    2  A    between atoms: N_2  and  C_3
REMARK    3  A    between atoms: N_2  and  C_4
REMARK    4  A    between atoms: N_2  and  C_5
REMARK    5  A    between atoms: C_5  and  C_6
REMARK    6  A    between atoms: C_6  and  S_7
REMARK                            x       y       z     vdW  Elec       q    Type
REMARK                         _______ _______ _______ _____ _____    ______ ____
ROOT
ATOM      1  C   UNL     1       7.803  -1.554  23.225  0.00  0.00    +0.192 C 
ATOM      2  N   UNL     1       9.265  -1.619  23.683  0.00  0.00    +0.237 N 
ATOM      3  C   UNL     1       9.568  -3.050  24.110  0.00  0.00    +0.192 C 
ATOM      4  C   UNL     1       9.431  -0.679  24.873  0.00  0.00    +0.192 C 
ENDROOT
BRANCH   2   5
ATOM      5  C   UNL     1      10.150  -1.181  22.489  0.00  0.00    +0.143 C 
BRANCH   5   6
ATOM      6  C   UNL     1       9.443  -0.262  21.486  0.00  0.00    +0.116 C 
BRANCH   6   7
ATOM      7  S   UNL     1       9.811   1.477  21.861  0.00  0.00    -0.173 S 
ATOM      8  H   UNL     1      11.150   1.381  21.866  0.00  0.00    +0.102 HD
ENDBRANCH   6   7
ENDBRANCH   5   6
ENDBRANCH   2   5
TORSDOF 3
ENDMDL
MODEL 4
REMARK VINA RESULT:      -2.6      2.600      3.772
REMARK  Name = 
REMARK  6 active torsions:
REMARK  status: ('A' for Active; 'I' for Inactive)
REMARK    1  A    between atoms: C_1  and  N_2
REMARK    2  A    between atoms: N_2  and  C_3
REMARK    3  A    between atoms: N_2  and  C_4
REMARK    4  A    between atoms: N_2  and  C_5
REMARK    5  A    between atoms: C_5  and  C_6
REMARK    6  A    between atoms: C_6  and  S_7
REMARK                            x       y       z     vdW  Elec       q    Type
REMARK                         _______ _______ _______ _____ _____    ______ ____
ROOT
ATOM      1  C   UNL     1       8.628   1.562  24.224  0.00  0.00    +0.192 C 
ATOM      2  N   UNL     1      10.031   1.388  23.630  0.00  0.00    +0.237 N 
ATOM      3  C   UNL     1      10.876   0.602  24.624  0.00  0.00    +0.192 C 
ATOM      4  C   UNL     1      10.634   2.775  23.424  0.00  0.00    +0.192 C 
ENDROOT
BRANCH   2   5
ATOM      5  C   UNL     1       9.881   0.632  22.287  0.00  0.00    +0.143 C 
BRANCH   5   6
ATOM      6  C   UNL     1      10.162  -0.873  22.377  0.00  0.00    +0.116 C 
BRANCH   6   7
ATOM      7  S   UNL     1       8.607  -1.808  22.274  0.00  0.00    -0.173 S 
ATOM      8  H   UNL     1       8.880  -2.717  23.225  0.00  0.00    +0.102 HD
ENDBRANCH   6   7
ENDBRANCH   5   6
ENDBRANCH   2   5
TORSDOF 3
ENDMDL
MODEL 5
REMARK VINA RESULT:      -2.6      2.596      3.765
REMARK  Name = 
REMARK  6 active torsions:
REMARK  status: ('A' for Active; 'I' for Inactive)
REMARK    1  A    between atoms: C_1  and  N_2
REMARK    2  A    between atoms: N_2  and  C_3
REMARK    3  A    between atoms: N_2  and  C_4
REMARK    4  A    between atoms: N_2  and  C_5
REMARK    5  A    between atoms: C_5  and  C_6
REMARK    6  A    between atoms: C_6  and  S_7
REMARK                            x       y       z     vdW  Elec       q    Type
REMARK                         _______ _______ _______ _____ _____    ______ ____
ROOT
ATOM      1  C   UNL     1      10.948   0.610  24.579  0.00  0.00    +0.192 C 
ATOM      2  N   UNL     1      10.012   1.386  23.643  0.00  0.00    +0.237 N 
ATOM      3  C   UNL     1      10.601   2.775  23.425  0.00  0.00    +0.192 C 
ATOM      4  C   UNL     1       8.652   1.504  24.323  0.00  0.00    +0.192 C 
ENDROOT
BRANCH   2   5
ATOM      5  C   UNL     1       9.914   0.594  22.316  0.00  0.00    +0.143 C 
BRANCH   5   6
ATOM      6  C   UNL     1      10.185  -0.909  22.459  0.00  0.00    +0.116 C 
BRANCH   6   7
ATOM      7  S   UNL     1       8.638  -1.845  22.275  0.00  0.00    -0.173 S 
ATOM      8  H   UNL     1       7.806  -0.797  22.156  0.00  0.00    +0.102 HD
ENDBRANCH   6   7
ENDBRANCH   5   6
ENDBRANCH   2   5
TORSDOF 3
ENDMDL
MODEL 6
REMARK VINA RESULT:      -2.6      1.065      1.786
REMARK  Name = 
REMARK  6 active torsions:
REMARK  status: ('A' for Active; 'I' for Inactive)
REMARK    1  A    between atoms: C_1  and  N_2
REMARK    2  A    between atoms: N_2  and  C_3
REMARK    3  A    between atoms: N_2  and  C_4
REMARK    4  A    between atoms: N_2  and  C_5
REMARK    5  A    between atoms: C_5  and  C_6
REMARK    6  A    between atoms: C_6  and  S_7
REMARK                            x       y       z     vdW  Elec       q    Type
REMARK                         _______ _______ _______ _____ _____    ______ ____
ROOT
ATOM      1  C   UNL     1       9.800  -0.709  21.834  0.00  0.00    +0.192 C 
ATOM      2  N   UNL     1       9.585  -0.866  23.344  0.00  0.00    +0.237 N 
ATOM      3  C   UNL     1       9.881  -2.313  23.720  0.00  0.00    +0.192 C 
ATOM      4  C   UNL     1       8.126  -0.542  23.652  0.00  0.00    +0.192 C 
ENDROOT
BRANCH   2   5
ATOM      5  C   UNL     1      10.546   0.116  24.059  0.00  0.00    +0.143 C 
BRANCH   5   6
ATOM      6  C   UNL     1       9.888   1.430  24.500  0.00  0.00    +0.116 C 
BRANCH   6   7
ATOM      7  S   UNL     1      10.405   2.787  23.407  0.00  0.00    -0.173 S 
ATOM      8  H   UNL     1      11.174   3.446  24.289  0.00  0.00    +0.102 HD
ENDBRANCH   6   7
ENDBRANCH   5   6
ENDBRANCH   2   5
TORSDOF 3
ENDMDL
MODEL 7
REMARK VINA RESULT:      -2.5      1.853      2.553
REMARK  Name = 
REMARK  6 active torsions:
REMARK  status: ('A' for Active; 'I' for Inactive)
REMARK    1  A    between atoms: C_1  and  N_2
REMARK    2  A    between atoms: N_2  and  C_3
REMARK    3  A    between atoms: N_2  and  C_4
REMARK    4  A    between atoms: N_2  and  C_5
REMARK    5  A    between atoms: C_5  and  C_6
REMARK    6  A    between atoms: C_6  and  S_7
REMARK                            x       y       z     vdW  Elec       q    Type
REMARK                         _______ _______ _______ _____ _____    ______ ____
ROOT
ATOM      1  C   UNL     1       7.776  -2.946  22.485  0.00  0.00    +0.192 C 
ATOM      2  N   UNL     1       8.352  -3.194  23.885  0.00  0.00    +0.237 N 
ATOM      3  C   UNL     1       8.308  -4.693  24.160  0.00  0.00    +0.192 C 
ATOM      4  C   UNL     1       7.477  -2.459  24.895  0.00  0.00    +0.192 C 
ENDROOT
BRANCH   2   5
ATOM      5  C   UNL     1       9.804  -2.656  23.897  0.00  0.00    +0.143 C 
BRANCH   5   6
ATOM      6  C   UNL     1      10.122  -1.680  22.758  0.00  0.00    +0.116 C 
BRANCH   6   7
ATOM      7  S   UNL     1      10.290   0.009  23.407  0.00  0.00    -0.173 S 
ATOM      8  H   UNL     1      10.655  -0.314  24.659  0.00  0.00    +0.102 HD
ENDBRANCH   6   7
ENDBRANCH   5   6
ENDBRANCH   2   5
TORSDOF 3
ENDMDL
MODEL 8
REMARK VINA RESULT:      -2.5      2.569      3.530
REMARK  Name = 
REMARK  6 active torsions:
REMARK  status: ('A' for Active; 'I' for Inactive)
REMARK    1  A    between atoms: C_1  and  N_2
REMARK    2  A    between atoms: N_2  and  C_3
REMARK    3  A    between atoms: N_2  and  C_4
REMARK    4  A    between atoms: N_2  and  C_5
REMARK    5  A    between atoms: C_5  and  C_6
REMARK    6  A    between atoms: C_6  and  S_7
REMARK                            x       y       z     vdW  Elec       q    Type
REMARK                         _______ _______ _______ _____ _____    ______ ____
ROOT
ATOM      1  C   UNL     1       8.344   0.927  23.638  0.00  0.00    +0.192 C 
ATOM      2  N   UNL     1       9.739   0.654  23.062  0.00  0.00    +0.237 N 
ATOM      3  C   UNL     1      10.731   0.606  24.218  0.00  0.00    +0.192 C 
ATOM      4  C   UNL     1      10.097   1.802  22.123  0.00  0.00    +0.192 C 
ENDROOT
BRANCH   2   5
ATOM      5  C   UNL     1       9.679  -0.697  22.307  0.00  0.00    +0.143 C 
BRANCH   5   6
ATOM      6  C   UNL     1      10.147  -1.900  23.133  0.00  0.00    +0.116 C 
BRANCH   6   7
ATOM      7  S   UNL     1       8.717  -2.871  23.694  0.00  0.00    -0.173 S 
ATOM      8  H   UNL     1       7.762  -2.163  23.070  0.00  0.00    +0.102 HD
ENDBRANCH   6   7
ENDBRANCH   5   6
ENDBRANCH   2   5
TORSDOF 3
ENDMDL
MODEL 9
REMARK VINA RESULT:      -2.4      2.827      3.715
REMARK  Name = 
REMARK  6 active torsions:
REMARK  status: ('A' for Active; 'I' for Inactive)
REMARK    1  A    between atoms: C_1  and  N_2
REMARK    2  A    between atoms: N_2  and  C_3
REMARK    3  A    between atoms: N_2  and  C_4
REMARK    4  A    between atoms: N_2  and  C_5
REMARK    5  A    between atoms: C_5  and  C_6
REMARK    6  A    between atoms: C_6  and  S_7
REMARK                            x       y       z     vdW  Elec       q    Type
REMARK                         _______ _______ _______ _____ _____    ______ ____
ROOT
ATOM      1  C   UNL     1       7.958  -1.338  23.322  0.00  0.00    +0.192 C 
ATOM      2  N   UNL     1       9.443  -1.576  23.621  0.00  0.00    +0.237 N 
ATOM      3  C   UNL     1       9.906  -0.514  24.612  0.00  0.00    +0.192 C 
ATOM      4  C   UNL     1      10.219  -1.434  22.315  0.00  0.00    +0.192 C 
ENDROOT
BRANCH   2   5
ATOM      5  C   UNL     1       9.581  -3.002  24.209  0.00  0.00    +0.143 C 
BRANCH   5   6
ATOM      6  C   UNL     1       8.380  -3.915  23.933  0.00  0.00    +0.116 C 
BRANCH   6   7
ATOM      7  S   UNL     1       8.028  -4.946  25.387  0.00  0.00    -0.173 S 
ATOM      8  H   UNL     1       6.746  -5.226  25.104  0.00  0.00    +0.102 HD
ENDBRANCH   6   7
ENDBRANCH   5   6
ENDBRANCH   2   5
TORSDOF 3
ENDMDL
