MODEL 1
REMARK VINA RESULT:      -5.2      0.000      0.000
REMARK  Name = 
REMARK  4 active torsions:
REMARK  status: ('A' for Active; 'I' for Inactive)
REMARK    1  A    between atoms: N_1  and  C_2
REMARK    2  A    between atoms: C_3  and  C_10
REMARK    3  A    between atoms: C_8  and  O_9
REMARK    4  A    between atoms: C_10  and  O_11
REMARK                            x       y       z     vdW  Elec       q    Type
REMARK                         _______ _______ _______ _____ _____    ______ ____
ROOT
ATOM      1  C   UNL     1       9.709  -0.114  22.365  0.00  0.00    +0.082 A 
ATOM      2  C   UNL     1       9.814   1.284  22.497  0.00  0.00    +0.156 A 
ATOM      3  C   UNL     1       9.813   1.898  23.755  0.00  0.00    +0.084 A 
ATOM      4 CL   UNL     1       9.982   3.606  23.896  0.00  0.00    -0.080 Cl
ATOM      5  C   UNL     1       9.683   1.124  24.905  0.00  0.00    +0.024 A 
ATOM      6  C   UNL     1       9.551  -0.264  24.799  0.00  0.00    +0.018 A 
ATOM      7  C   UNL     1       9.537  -0.881  23.533  0.00  0.00    +0.083 A 
ENDROOT
BRANCH   1   8
ATOM      8  N   UNL     1       9.553  -0.663  21.074  0.00  0.00    -0.354 N 
ATOM      9  H   UNL     1      10.443  -0.709  20.579  0.00  0.00    +0.142 HD
ATOM     10  H   UNL     1       9.055  -1.558  21.082  0.00  0.00    +0.142 HD
ENDBRANCH   1   8
BRANCH   2  11
ATOM     11  O   UNL     1       9.945   2.027  21.345  0.00  0.00    -0.504 OA
ATOM     12  H   UNL     1       9.380   2.815  21.442  0.00  0.00    +0.292 HD
ENDBRANCH   2  11
BRANCH   7  13
ATOM     13  C   UNL     1       9.439  -2.362  23.432  0.00  0.00    +0.339 C 
ATOM     14  O   UNL     1      10.255  -3.116  23.938  0.00  0.00    -0.245 OA
BRANCH  13  15
ATOM     15  O   UNL     1       8.365  -2.800  22.739  0.00  0.00    -0.477 OA
ATOM     16  H   UNL     1       7.508  -2.669  23.181  0.00  0.00    +0.295 HD
ENDBRANCH  13  15
ENDBRANCH   7  13
TORSDOF 4
ENDMDL
MODEL 2
REMARK VINA RESULT:      -5.0      2.590      4.218
REMARK  Name = 
REMARK  4 active torsions:
REMARK  status: ('A' for Active; 'I' for Inactive)
REMARK    1  A    between atoms: N_1  and  C_2
REMARK    2  A    between atoms: C_3  and  C_10
REMARK    3  A    between atoms: C_8  and  O_9
REMARK    4  A    between atoms: C_10  and  O_11
REMARK                            x       y       z     vdW  Elec       q    Type
REMARK                         _______ _______ _______ _____ _____    ______ ____
ROOT
ATOM      1  C   UNL     1       9.707   1.230  22.619  0.00  0.00    +0.082 A 
ATOM      2  C   UNL     1       9.854  -0.169  22.573  0.00  0.00    +0.156 A 
ATOM      3  C   UNL     1       9.921  -0.933  23.744  0.00  0.00    +0.084 A 
ATOM      4 CL   UNL     1      10.061  -2.648  23.665  0.00  0.00    -0.080 Cl
ATOM      5  C   UNL     1       9.866  -0.306  24.986  0.00  0.00    +0.024 A 
ATOM      6  C   UNL     1       9.747   1.085  25.059  0.00  0.00    +0.018 A 
ATOM      7  C   UNL     1       9.694   1.856  23.881  0.00  0.00    +0.083 A 
ENDROOT
BRANCH   1   8
ATOM      8  N   UNL     1       9.806   1.962  21.416  0.00  0.00    -0.354 N 
ATOM      9  H   UNL     1      10.644   2.542  21.400  0.00  0.00    +0.142 HD
ATOM     10  H   UNL     1       9.714   1.370  20.585  0.00  0.00    +0.142 HD
ENDBRANCH   1   8
BRANCH   2  11
ATOM     11  O   UNL     1       9.901  -0.766  21.333  0.00  0.00    -0.504 OA
ATOM     12  H   UNL     1       8.987  -1.004  21.090  0.00  0.00    +0.292 HD
ENDBRANCH   2  11
BRANCH   7  13
ATOM     13  C   UNL     1       9.524   3.331  23.968  0.00  0.00    +0.339 C 
ATOM     14  O   UNL     1       8.633   3.859  24.616  0.00  0.00    -0.245 OA
BRANCH  13  15
ATOM     15  O   UNL     1      10.443   4.036  23.274  0.00  0.00    -0.477 OA
ATOM     16  H   UNL     1      10.703   4.884  23.678  0.00  0.00    +0.295 HD
ENDBRANCH  13  15
ENDBRANCH   7  13
TORSDOF 4
ENDMDL
MODEL 3
REMARK VINA RESULT:      -4.8      2.981      4.548
REMARK  Name = 
REMARK  4 active torsions:
REMARK  status: ('A' for Active; 'I' for Inactive)
REMARK    1  A    between atoms: N_1  and  C_2
REMARK    2  A    between atoms: C_3  and  C_10
REMARK    3  A    between atoms: C_8  and  O_9
REMARK    4  A    between atoms: C_10  and  O_11
REMARK                            x       y       z     vdW  Elec       q    Type
REMARK                         _______ _______ _______ _____ _____    ______ ____
ROOT
ATOM      1  C   UNL     1       9.538   0.403  24.422  0.00  0.00    +0.082 A 
ATOM      2  C   UNL     1       9.377  -0.924  24.863  0.00  0.00    +0.156 A 
ATOM      3  C   UNL     1       9.653  -2.008  24.023  0.00  0.00    +0.084 A 
ATOM      4 CL   UNL     1       9.487  -3.624  24.595  0.00  0.00    -0.080 Cl
ATOM      5  C   UNL     1      10.075  -1.783  22.715  0.00  0.00    +0.024 A 
ATOM      6  C   UNL     1      10.219  -0.474  22.245  0.00  0.00    +0.018 A 
ATOM      7  C   UNL     1       9.926   0.617  23.085  0.00  0.00    +0.083 A 
ENDROOT
BRANCH   1   8
ATOM      8  N   UNL     1       9.093   1.453  25.255  0.00  0.00    -0.354 N 
ATOM      9  H   UNL     1       9.751   1.633  26.013  0.00  0.00    +0.142 HD
ATOM     10  H   UNL     1       8.851   2.299  24.729  0.00  0.00    +0.142 HD
ENDBRANCH   1   8
BRANCH   2  11
ATOM     11  O   UNL     1       8.963  -1.120  26.162  0.00  0.00    -0.504 OA
ATOM     12  H   UNL     1       9.763  -1.166  26.718  0.00  0.00    +0.292 HD
ENDBRANCH   2  11
BRANCH   7  13
ATOM     13  C   UNL     1      10.122   2.007  22.590  0.00  0.00    +0.339 C 
ATOM     14  O   UNL     1      10.719   2.860  23.229  0.00  0.00    -0.245 OA
BRANCH  13  15
ATOM     15  O   UNL     1       9.589   2.241  21.372  0.00  0.00    -0.477 OA
ATOM     16  H   UNL     1       9.406   3.177  21.175  0.00  0.00    +0.295 HD
ENDBRANCH  13  15
ENDBRANCH   7  13
TORSDOF 4
ENDMDL
MODEL 4
REMARK VINA RESULT:      -4.7      3.030      4.349
REMARK  Name = 
REMARK  4 active torsions:
REMARK  status: ('A' for Active; 'I' for Inactive)
REMARK    1  A    between atoms: N_1  and  C_2
REMARK    2  A    between atoms: C_3  and  C_10
REMARK    3  A    between atoms: C_8  and  O_9
REMARK    4  A    between atoms: C_10  and  O_11
REMARK                            x       y       z     vdW  Elec       q    Type
REMARK                         _______ _______ _______ _____ _____    ______ ____
ROOT
ATOM      1  C   UNL     1       8.118   0.133  22.786  0.00  0.00    +0.082 A 
ATOM      2  C   UNL     1       7.623  -1.180  22.898  0.00  0.00    +0.156 A 
ATOM      3  C   UNL     1       8.479  -2.266  23.112  0.00  0.00    +0.084 A 
ATOM      4 CL   UNL     1       7.850  -3.859  23.286  0.00  0.00    -0.080 Cl
ATOM      5  C   UNL     1       9.854  -2.058  23.194  0.00  0.00    +0.024 A 
ATOM      6  C   UNL     1      10.373  -0.768  23.059  0.00  0.00    +0.018 A 
ATOM      7  C   UNL     1       9.513   0.323  22.829  0.00  0.00    +0.083 A 
ENDROOT
BRANCH   1   8
ATOM      8  N   UNL     1       7.228   1.163  22.412  0.00  0.00    -0.354 N 
ATOM      9  H   UNL     1       6.363   0.787  22.026  0.00  0.00    +0.142 HD
ATOM     10  H   UNL     1       7.068   1.840  23.165  0.00  0.00    +0.142 HD
ENDBRANCH   1   8
BRANCH   2  11
ATOM     11  O   UNL     1       6.259  -1.358  22.818  0.00  0.00    -0.504 OA
ATOM     12  H   UNL     1       6.091  -2.319  22.817  0.00  0.00    +0.292 HD
ENDBRANCH   2  11
BRANCH   7  13
ATOM     13  C   UNL     1      10.070   1.699  22.729  0.00  0.00    +0.339 C 
ATOM     14  O   UNL     1      10.561   2.285  23.682  0.00  0.00    -0.245 OA
BRANCH  13  15
ATOM     15  O   UNL     1       9.992   2.240  21.495  0.00  0.00    -0.477 OA
ATOM     16  H   UNL     1      10.636   2.948  21.313  0.00  0.00    +0.295 HD
ENDBRANCH  13  15
ENDBRANCH   7  13
TORSDOF 4
ENDMDL
MODEL 5
REMARK VINA RESULT:      -4.7      2.248      2.713
REMARK  Name = 
REMARK  4 active torsions:
REMARK  status: ('A' for Active; 'I' for Inactive)
REMARK    1  A    between atoms: N_1  and  C_2
REMARK    2  A    between atoms: C_3  and  C_10
REMARK    3  A    between atoms: C_8  and  O_9
REMARK    4  A    between atoms: C_10  and  O_11
REMARK                            x       y       z     vdW  Elec       q    Type
REMARK                         _______ _______ _______ _____ _____    ______ ____
ROOT
ATOM      1  C   UNL     1       9.446   0.794  24.109  0.00  0.00    +0.082 A 
ATOM      2  C   UNL     1       8.908   2.092  24.028  0.00  0.00    +0.156 A 
ATOM      3  C   UNL     1       8.436   2.610  22.817  0.00  0.00    +0.084 A 
ATOM      4 CL   UNL     1       7.745   4.186  22.747  0.00  0.00    -0.080 Cl
ATOM      5  C   UNL     1       8.517   1.845  21.656  0.00  0.00    +0.024 A 
ATOM      6  C   UNL     1       9.071   0.562  21.705  0.00  0.00    +0.018 A 
ATOM      7  C   UNL     1       9.559   0.046  22.921  0.00  0.00    +0.083 A 
ENDROOT
BRANCH   1   8
ATOM      8  N   UNL     1      10.052   0.385  25.317  0.00  0.00    -0.354 N 
ATOM      9  H   UNL     1       9.862  -0.597  25.515  0.00  0.00    +0.142 HD
ATOM     10  H   UNL     1      11.050   0.613  25.355  0.00  0.00    +0.142 HD
ENDBRANCH   1   8
BRANCH   2  11
ATOM     11  O   UNL     1       8.836   2.827  25.190  0.00  0.00    -0.504 OA
ATOM     12  H   UNL     1       7.893   3.006  25.362  0.00  0.00    +0.292 HD
ENDBRANCH   2  11
BRANCH   7  13
ATOM     13  C   UNL     1      10.109  -1.336  22.971  0.00  0.00    +0.339 C 
ATOM     14  O   UNL     1       9.995  -2.059  23.949  0.00  0.00    -0.245 OA
BRANCH  13  15
ATOM     15  O   UNL     1      10.738  -1.724  21.841  0.00  0.00    -0.477 OA
ATOM     16  H   UNL     1      11.123  -1.000  21.315  0.00  0.00    +0.295 HD
ENDBRANCH  13  15
ENDBRANCH   7  13
TORSDOF 4
ENDMDL
MODEL 6
REMARK VINA RESULT:      -4.6      2.276      2.826
REMARK  Name = 
REMARK  4 active torsions:
REMARK  status: ('A' for Active; 'I' for Inactive)
REMARK    1  A    between atoms: N_1  and  C_2
REMARK    2  A    between atoms: C_3  and  C_10
REMARK    3  A    between atoms: C_8  and  O_9
REMARK    4  A    between atoms: C_10  and  O_11
REMARK                            x       y       z     vdW  Elec       q    Type
REMARK                         _______ _______ _______ _____ _____    ______ ____
ROOT
ATOM      1  C   UNL     1       9.374  -0.592  24.929  0.00  0.00    +0.082 A 
ATOM      2  C   UNL     1       9.649   0.594  24.223  0.00  0.00    +0.156 A 
ATOM      3  C   UNL     1       9.941   0.576  22.855  0.00  0.00    +0.084 A 
ATOM      4 CL   UNL     1      10.235   2.042  22.001  0.00  0.00    -0.080 Cl
ATOM      5  C   UNL     1       9.986  -0.637  22.172  0.00  0.00    +0.024 A 
ATOM      6  C   UNL     1       9.743  -1.832  22.856  0.00  0.00    +0.018 A 
ATOM      7  C   UNL     1       9.463  -1.815  24.236  0.00  0.00    +0.083 A 
ENDROOT
BRANCH   1   8
ATOM      8  N   UNL     1       9.244  -0.531  26.334  0.00  0.00    -0.354 N 
ATOM      9  H   UNL     1       9.203   0.433  26.663  0.00  0.00    +0.142 HD
ATOM     10  H   UNL     1       8.472  -1.105  26.685  0.00  0.00    +0.142 HD
ENDBRANCH   1   8
BRANCH   2  11
ATOM     11  O   UNL     1       9.593   1.781  24.921  0.00  0.00    -0.504 OA
ATOM     12  H   UNL     1       9.339   1.566  25.838  0.00  0.00    +0.292 HD
ENDBRANCH   2  11
BRANCH   7  13
ATOM     13  C   UNL     1       9.164  -3.087  24.947  0.00  0.00    +0.339 C 
ATOM     14  O   UNL     1       8.300  -3.178  25.805  0.00  0.00    -0.245 OA
BRANCH  13  15
ATOM     15  O   UNL     1       9.925  -4.132  24.557  0.00  0.00    -0.477 OA
ATOM     16  H   UNL     1       9.959  -4.874  25.186  0.00  0.00    +0.295 HD
ENDBRANCH  13  15
ENDBRANCH   7  13
TORSDOF 4
ENDMDL
MODEL 7
REMARK VINA RESULT:      -4.6      6.871      7.621
REMARK  Name = 
REMARK  4 active torsions:
REMARK  status: ('A' for Active; 'I' for Inactive)
REMARK    1  A    between atoms: N_1  and  C_2
REMARK    2  A    between atoms: C_3  and  C_10
REMARK    3  A    between atoms: C_8  and  O_9
REMARK    4  A    between atoms: C_10  and  O_11
REMARK                            x       y       z     vdW  Elec       q    Type
REMARK                         _______ _______ _______ _____ _____    ______ ____
ROOT
ATOM      1  C   UNL     1       5.552  -5.908  25.065  0.00  0.00    +0.082 A 
ATOM      2  C   UNL     1       5.396  -6.045  23.672  0.00  0.00    +0.156 A 
ATOM      3  C   UNL     1       6.394  -5.631  22.784  0.00  0.00    +0.084 A 
ATOM      4 CL   UNL     1       6.200  -5.844  21.086  0.00  0.00    -0.080 Cl
ATOM      5  C   UNL     1       7.561  -5.049  23.273  0.00  0.00    +0.024 A 
ATOM      6  C   UNL     1       7.730  -4.878  24.650  0.00  0.00    +0.018 A 
ATOM      7  C   UNL     1       6.719  -5.280  25.544  0.00  0.00    +0.083 A 
ENDROOT
BRANCH   1   8
ATOM      8  N   UNL     1       4.452  -6.192  25.902  0.00  0.00    -0.354 N 
ATOM      9  H   UNL     1       3.636  -6.478  25.361  0.00  0.00    +0.142 HD
ATOM     10  H   UNL     1       4.685  -6.853  26.650  0.00  0.00    +0.142 HD
ENDBRANCH   1   8
BRANCH   2  11
ATOM     11  O   UNL     1       4.235  -6.627  23.214  0.00  0.00    -0.504 OA
ATOM     12  H   UNL     1       4.490  -7.414  22.697  0.00  0.00    +0.292 HD
ENDBRANCH   2  11
BRANCH   7  13
ATOM     13  C   UNL     1       6.924  -5.133  27.010  0.00  0.00    +0.339 C 
ATOM     14  O   UNL     1       6.254  -4.381  27.701  0.00  0.00    -0.245 OA
BRANCH  13  15
ATOM     15  O   UNL     1       7.910  -5.907  27.512  0.00  0.00    -0.477 OA
ATOM     16  H   UNL     1       7.820  -6.131  28.455  0.00  0.00    +0.295 HD
ENDBRANCH  13  15
ENDBRANCH   7  13
TORSDOF 4
ENDMDL
MODEL 8
REMARK VINA RESULT:      -4.5      6.027      7.325
REMARK  Name = 
REMARK  4 active torsions:
REMARK  status: ('A' for Active; 'I' for Inactive)
REMARK    1  A    between atoms: N_1  and  C_2
REMARK    2  A    between atoms: C_3  and  C_10
REMARK    3  A    between atoms: C_8  and  O_9
REMARK    4  A    between atoms: C_10  and  O_11
REMARK                            x       y       z     vdW  Elec       q    Type
REMARK                         _______ _______ _______ _____ _____    ______ ____
ROOT
ATOM      1  C   UNL     1       7.553  -5.307  25.922  0.00  0.00    +0.082 A 
ATOM      2  C   UNL     1       7.795  -5.047  24.560  0.00  0.00    +0.156 A 
ATOM      3  C   UNL     1       6.793  -5.210  23.598  0.00  0.00    +0.084 A 
ATOM      4 CL   UNL     1       7.099  -4.848  21.943  0.00  0.00    -0.080 Cl
ATOM      5  C   UNL     1       5.531  -5.660  23.980  0.00  0.00    +0.024 A 
ATOM      6  C   UNL     1       5.272  -5.951  25.323  0.00  0.00    +0.018 A 
ATOM      7  C   UNL     1       6.286  -5.801  26.289  0.00  0.00    +0.083 A 
ENDROOT
BRANCH   1   8
ATOM      8  N   UNL     1       8.640  -5.281  26.822  0.00  0.00    -0.354 N 
ATOM      9  H   UNL     1       8.583  -6.041  27.499  0.00  0.00    +0.142 HD
ATOM     10  H   UNL     1       9.547  -5.239  26.345  0.00  0.00    +0.142 HD
ENDBRANCH   1   8
BRANCH   2  11
ATOM     11  O   UNL     1       9.049  -4.598  24.209  0.00  0.00    -0.504 OA
ATOM     12  H   UNL     1       8.945  -4.035  23.420  0.00  0.00    +0.292 HD
ENDBRANCH   2  11
BRANCH   7  13
ATOM     13  C   UNL     1       5.989  -6.072  27.722  0.00  0.00    +0.339 C 
ATOM     14  O   UNL     1       6.267  -5.288  28.616  0.00  0.00    -0.245 OA
BRANCH  13  15
ATOM     15  O   UNL     1       5.380  -7.256  27.947  0.00  0.00    -0.477 OA
ATOM     16  H   UNL     1       4.576  -7.413  27.421  0.00  0.00    +0.295 HD
ENDBRANCH  13  15
ENDBRANCH   7  13
TORSDOF 4
ENDMDL
MODEL 9
REMARK VINA RESULT:      -4.5      4.878      6.362
REMARK  Name = 
REMARK  4 active torsions:
REMARK  status: ('A' for Active; 'I' for Inactive)
REMARK    1  A    between atoms: N_1  and  C_2
REMARK    2  A    between atoms: C_3  and  C_10
REMARK    3  A    between atoms: C_8  and  O_9
REMARK    4  A    between atoms: C_10  and  O_11
REMARK                            x       y       z     vdW  Elec       q    Type
REMARK                         _______ _______ _______ _____ _____    ______ ____
ROOT
ATOM      1  C   UNL     1       8.425  -4.751  25.827  0.00  0.00    +0.082 A 
ATOM      2  C   UNL     1       7.595  -5.053  26.923  0.00  0.00    +0.156 A 
ATOM      3  C   UNL     1       6.492  -4.254  27.244  0.00  0.00    +0.084 A 
ATOM      4 CL   UNL     1       5.468  -4.664  28.565  0.00  0.00    -0.080 Cl
ATOM      5  C   UNL     1       6.212  -3.121  26.484  0.00  0.00    +0.024 A 
ATOM      6  C   UNL     1       7.036  -2.784  25.406  0.00  0.00    +0.018 A 
ATOM      7  C   UNL     1       8.155  -3.580  25.092  0.00  0.00    +0.083 A 
ENDROOT
BRANCH   1   8
ATOM      8  N   UNL     1       9.610  -5.496  25.647  0.00  0.00    -0.354 N 
ATOM      9  H   UNL     1       9.615  -6.335  26.227  0.00  0.00    +0.142 HD
ATOM     10  H   UNL     1       9.808  -5.692  24.661  0.00  0.00    +0.142 HD
ENDBRANCH   1   8
BRANCH   2  11
ATOM     11  O   UNL     1       7.891  -6.181  27.656  0.00  0.00    -0.504 OA
ATOM     12  H   UNL     1       8.756  -6.033  28.081  0.00  0.00    +0.292 HD
ENDBRANCH   2  11
BRANCH   7  13
ATOM     13  C   UNL     1       9.001  -3.238  23.917  0.00  0.00    +0.339 C 
ATOM     14  O   UNL     1      10.219  -3.174  23.974  0.00  0.00    -0.245 OA
BRANCH  13  15
ATOM     15  O   UNL     1       8.306  -3.013  22.781  0.00  0.00    -0.477 OA
ATOM     16  H   UNL     1       7.396  -2.693  22.911  0.00  0.00    +0.295 HD
ENDBRANCH  13  15
ENDBRANCH   7  13
TORSDOF 4
ENDMDL
