MODEL 1
REMARK VINA RESULT:      -7.8      0.000      0.000
REMARK  Name = 
REMARK  7 active torsions:
REMARK  status: ('A' for Active; 'I' for Inactive)
REMARK    1  A    between atoms: C_2  and  C_3
REMARK    2  A    between atoms: C_9  and  C_10
REMARK    3  A    between atoms: C_20  and  C_22
REMARK    4  A    between atoms: C_24  and  O_25
REMARK    5  A    between atoms: O_25  and  C_26
REMARK    6  A    between atoms: C_27  and  O_28
REMARK    7  A    between atoms: O_28  and  C_29
REMARK                            x       y       z     vdW  Elec       q    Type
REMARK                         _______ _______ _______ _____ _____    ______ ____
ROOT
ATOM      1  C   UNL     1       8.701   1.584  23.553  0.00  0.00    -0.001 A 
ATOM      2  C   UNL     1       7.312   1.462  23.586  0.00  0.00    +0.011 A 
ATOM      3  C   UNL     1       6.712   0.200  23.696  0.00  0.00    +0.024 A 
ATOM      4  C   UNL     1       7.481  -0.969  23.756  0.00  0.00    +0.040 A 
ATOM      5  N   UNL     1       6.889  -2.281  23.832  0.00  0.00    -0.267 N 
ATOM      6  C   UNL     1       5.615  -2.497  24.408  0.00  0.00    +0.251 C 
ATOM      7  O   UNL     1       4.890  -1.609  24.864  0.00  0.00    -0.270 OA
ATOM      8  C   UNL     1       7.773  -3.321  23.269  0.00  0.00    +0.114 C 
ATOM      9  C   UNL     1       9.070  -3.332  24.058  0.00  0.00    +0.024 C 
ATOM     10  C   UNL     1       9.812  -2.044  23.735  0.00  0.00    +0.038 C 
ATOM     11  C   UNL     1       8.889  -0.847  23.693  0.00  0.00    -0.025 A 
ATOM     12  C   UNL     1       9.483   0.425  23.586  0.00  0.00    +0.015 A 
ENDROOT
BRANCH   1  14
ATOM     13  C   UNL     1       8.587   4.117  24.008  0.00  0.00    +0.103 C 
ATOM     14  C   UNL     1       9.397   2.915  23.564  0.00  0.00    +0.079 C 
ATOM     15  N   UNL     1      10.676   2.921  23.333  0.00  0.00    -0.183 NA
ATOM     16  N   UNL     1      11.393   4.069  23.446  0.00  0.00    -0.198 N 
ATOM     17  H   UNL     1      12.400   3.957  23.383  0.00  0.00    +0.178 HD
ATOM     18  C   UNL     1      10.976   5.365  23.578  0.00  0.00    +0.292 C 
ATOM     19  O   UNL     1      11.777   6.280  23.725  0.00  0.00    -0.261 OA
ATOM     20  S   UNL     1       9.275   5.677  23.446  0.00  0.00    -0.057 S 
ATOM     21  C   UNL     1       8.403   4.091  25.523  0.00  0.00    +0.026 C 
ENDBRANCH   1  14
BRANCH   6  22
ATOM     22  C   UNL     1       5.044  -3.877  24.519  0.00  0.00    +0.041 A 
ATOM     23  C   UNL     1       4.207  -4.342  23.496  0.00  0.00    +0.017 A 
ATOM     24  C   UNL     1       3.721  -5.657  23.509  0.00  0.00    +0.050 A 
ATOM     25  C   UNL     1       4.115  -6.539  24.519  0.00  0.00    +0.162 A 
ATOM     26  C   UNL     1       4.909  -6.059  25.578  0.00  0.00    +0.162 A 
ATOM     27  C   UNL     1       5.272  -4.708  25.617  0.00  0.00    +0.062 A 
BRANCH  25  28
ATOM     28  O   UNL     1       3.794  -7.871  24.563  0.00  0.00    -0.491 OA
ATOM     29  C   UNL     1       2.440  -8.220  24.815  0.00  0.00    +0.277 C 
ENDBRANCH  25  28
BRANCH  26  30
ATOM     30  O   UNL     1       5.298  -6.974  26.527  0.00  0.00    -0.491 OA
ATOM     31  C   UNL     1       4.881  -6.733  27.867  0.00  0.00    +0.277 C 
ENDBRANCH  26  30
ENDBRANCH   6  22
TORSDOF 4
ENDMDL
MODEL 2
REMARK VINA RESULT:      -7.6      0.758      1.703
REMARK  Name = 
REMARK  7 active torsions:
REMARK  status: ('A' for Active; 'I' for Inactive)
REMARK    1  A    between atoms: C_2  and  C_3
REMARK    2  A    between atoms: C_9  and  C_10
REMARK    3  A    between atoms: C_20  and  C_22
REMARK    4  A    between atoms: C_24  and  O_25
REMARK    5  A    between atoms: O_25  and  C_26
REMARK    6  A    between atoms: C_27  and  O_28
REMARK    7  A    between atoms: O_28  and  C_29
REMARK                            x       y       z     vdW  Elec       q    Type
REMARK                         _______ _______ _______ _____ _____    ______ ____
ROOT
ATOM      1  C   UNL     1       8.689   1.518  23.503  0.00  0.00    -0.001 A 
ATOM      2  C   UNL     1       7.308   1.338  23.423  0.00  0.00    +0.011 A 
ATOM      3  C   UNL     1       6.755   0.051  23.482  0.00  0.00    +0.024 A 
ATOM      4  C   UNL     1       7.565  -1.085  23.603  0.00  0.00    +0.040 A 
ATOM      5  N   UNL     1       7.024  -2.421  23.629  0.00  0.00    -0.267 N 
ATOM      6  C   UNL     1       5.717  -2.692  24.100  0.00  0.00    +0.251 C 
ATOM      7  O   UNL     1       4.922  -1.838  24.496  0.00  0.00    -0.270 OA
ATOM      8  C   UNL     1       7.994  -3.420  23.138  0.00  0.00    +0.114 C 
ATOM      9  C   UNL     1       9.222  -3.381  24.030  0.00  0.00    +0.024 C 
ATOM     10  C   UNL     1       9.933  -2.061  23.770  0.00  0.00    +0.038 C 
ATOM     11  C   UNL     1       8.967  -0.903  23.655  0.00  0.00    -0.025 A 
ATOM     12  C   UNL     1       9.514   0.393  23.598  0.00  0.00    +0.015 A 
ENDROOT
BRANCH   1  14
ATOM     13  C   UNL     1       8.463   4.022  24.067  0.00  0.00    +0.103 C 
ATOM     14  C   UNL     1       9.325   2.877  23.572  0.00  0.00    +0.079 C 
ATOM     15  N   UNL     1      10.602   2.950  23.343  0.00  0.00    -0.183 NA
ATOM     16  N   UNL     1      11.268   4.123  23.507  0.00  0.00    -0.198 N 
ATOM     17  H   UNL     1      12.278   4.058  23.440  0.00  0.00    +0.178 HD
ATOM     18  C   UNL     1      10.794   5.391  23.693  0.00  0.00    +0.292 C 
ATOM     19  O   UNL     1      11.553   6.335  23.881  0.00  0.00    -0.261 OA
ATOM     20  S   UNL     1       9.080   5.634  23.573  0.00  0.00    -0.057 S 
ATOM     21  C   UNL     1       8.281   3.923  25.578  0.00  0.00    +0.026 C 
ENDBRANCH   1  14
BRANCH   6  22
ATOM     22  C   UNL     1       5.198  -4.095  24.161  0.00  0.00    +0.041 A 
ATOM     23  C   UNL     1       5.639  -4.931  25.197  0.00  0.00    +0.017 A 
ATOM     24  C   UNL     1       5.115  -6.222  25.348  0.00  0.00    +0.050 A 
ATOM     25  C   UNL     1       4.101  -6.671  24.498  0.00  0.00    +0.162 A 
ATOM     26  C   UNL     1       3.697  -5.857  23.423  0.00  0.00    +0.162 A 
ATOM     27  C   UNL     1       4.328  -4.627  23.207  0.00  0.00    +0.062 A 
BRANCH  25  28
ATOM     28  O   UNL     1       3.440  -7.865  24.631  0.00  0.00    -0.491 OA
ATOM     29  C   UNL     1       2.404  -7.946  25.601  0.00  0.00    +0.277 C 
ENDBRANCH  25  28
BRANCH  26  30
ATOM     30  O   UNL     1       2.673  -6.329  22.638  0.00  0.00    -0.491 OA
ATOM     31  C   UNL     1       1.393  -5.729  22.814  0.00  0.00    +0.277 C 
ENDBRANCH  26  30
ENDBRANCH   6  22
TORSDOF 4
ENDMDL
MODEL 3
REMARK VINA RESULT:      -7.3      3.147      9.956
REMARK  Name = 
REMARK  7 active torsions:
REMARK  status: ('A' for Active; 'I' for Inactive)
REMARK    1  A    between atoms: C_2  and  C_3
REMARK    2  A    between atoms: C_9  and  C_10
REMARK    3  A    between atoms: C_20  and  C_22
REMARK    4  A    between atoms: C_24  and  O_25
REMARK    5  A    between atoms: O_25  and  C_26
REMARK    6  A    between atoms: C_27  and  O_28
REMARK    7  A    between atoms: O_28  and  C_29
REMARK                            x       y       z     vdW  Elec       q    Type
REMARK                         _______ _______ _______ _____ _____    ______ ____
ROOT
ATOM      1  C   UNL     1       5.834  -3.572  24.606  0.00  0.00    -0.001 A 
ATOM      2  C   UNL     1       5.284  -2.306  24.813  0.00  0.00    +0.011 A 
ATOM      3  C   UNL     1       6.094  -1.163  24.760  0.00  0.00    +0.024 A 
ATOM      4  C   UNL     1       7.471  -1.257  24.519  0.00  0.00    +0.040 A 
ATOM      5  N   UNL     1       8.332  -0.101  24.497  0.00  0.00    -0.267 N 
ATOM      6  C   UNL     1       7.853   1.184  24.145  0.00  0.00    +0.251 C 
ATOM      7  O   UNL     1       6.682   1.444  23.860  0.00  0.00    -0.270 OA
ATOM      8  C   UNL     1       9.724  -0.440  24.853  0.00  0.00    +0.114 C 
ATOM      9  C   UNL     1      10.248  -1.450  23.848  0.00  0.00    +0.024 C 
ATOM     10  C   UNL     1       9.507  -2.758  24.087  0.00  0.00    +0.038 C 
ATOM     11  C   UNL     1       8.032  -2.543  24.338  0.00  0.00    -0.025 A 
ATOM     12  C   UNL     1       7.211  -3.685  24.390  0.00  0.00    +0.015 A 
ENDROOT
BRANCH   1  14
ATOM     13  C   UNL     1       4.338  -5.123  23.195  0.00  0.00    +0.103 C 
ATOM     14  C   UNL     1       4.995  -4.814  24.526  0.00  0.00    +0.079 C 
ATOM     15  N   UNL     1       5.008  -5.611  25.554  0.00  0.00    -0.183 NA
ATOM     16  N   UNL     1       4.372  -6.810  25.507  0.00  0.00    -0.198 N 
ATOM     17  H   UNL     1       4.548  -7.422  26.298  0.00  0.00    +0.178 HD
ATOM     18  C   UNL     1       3.487  -7.309  24.592  0.00  0.00    +0.292 C 
ATOM     19  O   UNL     1       3.052  -8.450  24.683  0.00  0.00    -0.261 OA
ATOM     20  S   UNL     1       2.938  -6.239  23.341  0.00  0.00    -0.057 S 
ATOM     21  C   UNL     1       5.378  -5.645  22.208  0.00  0.00    +0.026 C 
ENDBRANCH   1  14
BRANCH   6  22
ATOM     22  C   UNL     1       8.780   2.359  24.082  0.00  0.00    +0.041 A 
ATOM     23  C   UNL     1      10.014   2.208  23.436  0.00  0.00    +0.017 A 
ATOM     24  C   UNL     1      10.877   3.301  23.273  0.00  0.00    +0.050 A 
ATOM     25  C   UNL     1      10.487   4.571  23.706  0.00  0.00    +0.162 A 
ATOM     26  C   UNL     1       9.274   4.716  24.406  0.00  0.00    +0.162 A 
ATOM     27  C   UNL     1       8.490   3.589  24.677  0.00  0.00    +0.062 A 
BRANCH  25  28
ATOM     28  O   UNL     1      11.200   5.723  23.492  0.00  0.00    -0.491 OA
ATOM     29  C   UNL     1      12.597   5.606  23.263  0.00  0.00    +0.277 C 
ENDBRANCH  25  28
BRANCH  26  30
ATOM     30  O   UNL     1       8.920   5.990  24.779  0.00  0.00    -0.491 OA
ATOM     31  C   UNL     1       8.896   6.272  26.174  0.00  0.00    +0.277 C 
ENDBRANCH  26  30
ENDBRANCH   6  22
TORSDOF 4
ENDMDL
MODEL 4
REMARK VINA RESULT:      -6.6      2.121      3.471
REMARK  Name = 
REMARK  7 active torsions:
REMARK  status: ('A' for Active; 'I' for Inactive)
REMARK    1  A    between atoms: C_2  and  C_3
REMARK    2  A    between atoms: C_9  and  C_10
REMARK    3  A    between atoms: C_20  and  C_22
REMARK    4  A    between atoms: C_24  and  O_25
REMARK    5  A    between atoms: O_25  and  C_26
REMARK    6  A    between atoms: C_27  and  O_28
REMARK    7  A    between atoms: O_28  and  C_29
REMARK                            x       y       z     vdW  Elec       q    Type
REMARK                         _______ _______ _______ _____ _____    ______ ____
ROOT
ATOM      1  C   UNL     1       7.627  -0.778  23.061  0.00  0.00    -0.001 A 
ATOM      2  C   UNL     1       6.334  -0.747  23.585  0.00  0.00    +0.011 A 
ATOM      3  C   UNL     1       5.557  -1.913  23.627  0.00  0.00    +0.024 A 
ATOM      4  C   UNL     1       6.041  -3.130  23.131  0.00  0.00    +0.040 A 
ATOM      5  N   UNL     1       5.249  -4.334  23.128  0.00  0.00    -0.267 N 
ATOM      6  C   UNL     1       4.223  -4.560  24.077  0.00  0.00    +0.251 C 
ATOM      7  O   UNL     1       3.893  -3.762  24.957  0.00  0.00    -0.270 OA
ATOM      8  C   UNL     1       5.659  -5.265  22.058  0.00  0.00    +0.114 C 
ATOM      9  C   UNL     1       7.113  -5.645  22.279  0.00  0.00    +0.024 C 
ATOM     10  C   UNL     1       7.956  -4.410  21.997  0.00  0.00    +0.038 C 
ATOM     11  C   UNL     1       7.341  -3.154  22.574  0.00  0.00    -0.025 A 
ATOM     12  C   UNL     1       8.117  -1.979  22.538  0.00  0.00    +0.015 A 
ENDROOT
BRANCH   1  14
ATOM     13  C   UNL     1       8.914   0.948  24.475  0.00  0.00    +0.103 C 
ATOM     14  C   UNL     1       8.547   0.407  23.107  0.00  0.00    +0.079 C 
ATOM     15  N   UNL     1       9.077   0.796  21.985  0.00  0.00    -0.183 NA
ATOM     16  N   UNL     1      10.011   1.781  21.966  0.00  0.00    -0.198 N 
ATOM     17  H   UNL     1      10.468   1.925  21.071  0.00  0.00    +0.178 HD
ATOM     18  C   UNL     1      10.399   2.652  22.945  0.00  0.00    +0.292 C 
ATOM     19  O   UNL     1      11.310   3.451  22.764  0.00  0.00    -0.261 OA
ATOM     20  S   UNL     1       9.500   2.644  24.429  0.00  0.00    -0.057 S 
ATOM     21  C   UNL     1       9.919   0.019  25.150  0.00  0.00    +0.026 C 
ENDBRANCH   1  14
BRANCH   6  22
ATOM     22  C   UNL     1       3.448  -5.841  24.082  0.00  0.00    +0.041 A 
ATOM     23  C   UNL     1       3.787  -6.828  25.017  0.00  0.00    +0.017 A 
ATOM     24  C   UNL     1       3.035  -8.007  25.119  0.00  0.00    +0.050 A 
ATOM     25  C   UNL     1       1.899  -8.184  24.325  0.00  0.00    +0.162 A 
ATOM     26  C   UNL     1       1.589  -7.221  23.347  0.00  0.00    +0.162 A 
ATOM     27  C   UNL     1       2.430  -6.117  23.168  0.00  0.00    +0.062 A 
BRANCH  25  28
ATOM     28  O   UNL     1       1.030  -9.240  24.427  0.00  0.00    -0.491 OA
ATOM     29  C   UNL     1       1.258 -10.190  25.460  0.00  0.00    +0.277 C 
ENDBRANCH  25  28
BRANCH  26  30
ATOM     30  O   UNL     1       0.443  -7.424  22.616  0.00  0.00    -0.491 OA
ATOM     31  C   UNL     1       0.602  -7.869  21.273  0.00  0.00    +0.277 C 
ENDBRANCH  26  30
ENDBRANCH   6  22
TORSDOF 4
ENDMDL
MODEL 5
REMARK VINA RESULT:      -6.5      3.544     10.102
REMARK  Name = 
REMARK  7 active torsions:
REMARK  status: ('A' for Active; 'I' for Inactive)
REMARK    1  A    between atoms: C_2  and  C_3
REMARK    2  A    between atoms: C_9  and  C_10
REMARK    3  A    between atoms: C_20  and  C_22
REMARK    4  A    between atoms: C_24  and  O_25
REMARK    5  A    between atoms: O_25  and  C_26
REMARK    6  A    between atoms: C_27  and  O_28
REMARK    7  A    between atoms: O_28  and  C_29
REMARK                            x       y       z     vdW  Elec       q    Type
REMARK                         _______ _______ _______ _____ _____    ______ ____
ROOT
ATOM      1  C   UNL     1       4.883  -3.620  24.591  0.00  0.00    -0.001 A 
ATOM      2  C   UNL     1       5.392  -3.104  23.398  0.00  0.00    +0.011 A 
ATOM      3  C   UNL     1       6.112  -1.902  23.396  0.00  0.00    +0.024 A 
ATOM      4  C   UNL     1       6.324  -1.177  24.575  0.00  0.00    +0.040 A 
ATOM      5  N   UNL     1       7.029   0.080  24.594  0.00  0.00    -0.267 N 
ATOM      6  C   UNL     1       8.015   0.402  23.630  0.00  0.00    +0.251 C 
ATOM      7  O   UNL     1       8.342  -0.325  22.689  0.00  0.00    -0.270 OA
ATOM      8  C   UNL     1       6.610   0.934  25.723  0.00  0.00    +0.114 C 
ATOM      9  C   UNL     1       6.903   0.199  27.019  0.00  0.00    +0.024 C 
ATOM     10  C   UNL     1       5.940  -0.977  27.105  0.00  0.00    +0.038 C 
ATOM     11  C   UNL     1       5.783  -1.686  25.779  0.00  0.00    -0.025 A 
ATOM     12  C   UNL     1       5.063  -2.896  25.773  0.00  0.00    +0.015 A 
ENDROOT
BRANCH   1  14
ATOM     13  C   UNL     1       2.963  -5.064  25.520  0.00  0.00    +0.103 C 
ATOM     14  C   UNL     1       4.215  -4.962  24.671  0.00  0.00    +0.079 C 
ATOM     15  N   UNL     1       4.670  -5.903  23.897  0.00  0.00    -0.183 NA
ATOM     16  N   UNL     1       4.040  -7.104  23.826  0.00  0.00    -0.198 N 
ATOM     17  H   UNL     1       4.380  -7.726  23.099  0.00  0.00    +0.178 HD
ATOM     18  C   UNL     1       3.056  -7.637  24.611  0.00  0.00    +0.292 C 
ATOM     19  O   UNL     1       2.561  -8.729  24.361  0.00  0.00    -0.261 OA
ATOM     20  S   UNL     1       2.588  -6.746  26.025  0.00  0.00    -0.057 S 
ATOM     21  C   UNL     1       1.787  -4.414  24.796  0.00  0.00    +0.026 C 
ENDBRANCH   1  14
BRANCH   6  22
ATOM     22  C   UNL     1       8.767   1.695  23.702  0.00  0.00    +0.041 A 
ATOM     23  C   UNL     1      10.164   1.656  23.805  0.00  0.00    +0.017 A 
ATOM     24  C   UNL     1      10.918   2.837  23.785  0.00  0.00    +0.050 A 
ATOM     25  C   UNL     1      10.284   4.070  23.604  0.00  0.00    +0.162 A 
ATOM     26  C   UNL     1       8.877   4.118  23.558  0.00  0.00    +0.162 A 
ATOM     27  C   UNL     1       8.137   2.941  23.716  0.00  0.00    +0.062 A 
BRANCH  25  28
ATOM     28  O   UNL     1      10.932   5.269  23.453  0.00  0.00    -0.491 OA
ATOM     29  C   UNL     1      12.352   5.253  23.397  0.00  0.00    +0.277 C 
ENDBRANCH  25  28
BRANCH  26  30
ATOM     30  O   UNL     1       8.305   5.348  23.345  0.00  0.00    -0.491 OA
ATOM     31  C   UNL     1       7.443   5.474  22.218  0.00  0.00    +0.277 C 
ENDBRANCH  26  30
ENDBRANCH   6  22
TORSDOF 4
ENDMDL
MODEL 6
REMARK VINA RESULT:      -6.5      2.467      3.995
REMARK  Name = 
REMARK  7 active torsions:
REMARK  status: ('A' for Active; 'I' for Inactive)
REMARK    1  A    between atoms: C_2  and  C_3
REMARK    2  A    between atoms: C_9  and  C_10
REMARK    3  A    between atoms: C_20  and  C_22
REMARK    4  A    between atoms: C_24  and  O_25
REMARK    5  A    between atoms: O_25  and  C_26
REMARK    6  A    between atoms: C_27  and  O_28
REMARK    7  A    between atoms: O_28  and  C_29
REMARK                            x       y       z     vdW  Elec       q    Type
REMARK                         _______ _______ _______ _____ _____    ______ ____
ROOT
ATOM      1  C   UNL     1       7.556  -1.750  24.308  0.00  0.00    -0.001 A 
ATOM      2  C   UNL     1       6.464  -2.016  23.482  0.00  0.00    +0.011 A 
ATOM      3  C   UNL     1       5.616  -3.098  23.753  0.00  0.00    +0.024 A 
ATOM      4  C   UNL     1       5.846  -3.950  24.841  0.00  0.00    +0.040 A 
ATOM      5  N   UNL     1       5.011  -5.090  25.121  0.00  0.00    -0.267 N 
ATOM      6  C   UNL     1       3.649  -5.135  24.737  0.00  0.00    +0.251 C 
ATOM      7  O   UNL     1       3.064  -4.243  24.118  0.00  0.00    -0.270 OA
ATOM      8  C   UNL     1       5.740  -6.146  25.852  0.00  0.00    +0.114 C 
ATOM      9  C   UNL     1       6.227  -5.572  27.170  0.00  0.00    +0.024 C 
ATOM     10  C   UNL     1       7.320  -4.561  26.852  0.00  0.00    +0.038 C 
ATOM     11  C   UNL     1       6.970  -3.697  25.662  0.00  0.00    -0.025 A 
ATOM     12  C   UNL     1       7.816  -2.606  25.384  0.00  0.00    +0.015 A 
ENDROOT
BRANCH   1  14
ATOM     13  C   UNL     1       9.917  -0.760  24.020  0.00  0.00    +0.103 C 
ATOM     14  C   UNL     1       8.422  -0.535  24.139  0.00  0.00    +0.079 C 
ATOM     15  N   UNL     1       7.823   0.605  23.960  0.00  0.00    -0.183 NA
ATOM     16  N   UNL     1       8.537   1.725  23.678  0.00  0.00    -0.198 N 
ATOM     17  H   UNL     1       7.984   2.536  23.420  0.00  0.00    +0.178 HD
ATOM     18  C   UNL     1       9.883   1.955  23.738  0.00  0.00    +0.292 C 
ATOM     19  O   UNL     1      10.363   3.027  23.388  0.00  0.00    -0.261 OA
ATOM     20  S   UNL     1      10.883   0.704  24.406  0.00  0.00    -0.057 S 
ATOM     21  C   UNL     1      10.253  -1.313  22.638  0.00  0.00    +0.026 C 
ENDBRANCH   1  14
BRANCH   6  22
ATOM     22  C   UNL     1       2.790  -6.312  25.084  0.00  0.00    +0.041 A 
ATOM     23  C   UNL     1       2.664  -7.350  24.151  0.00  0.00    +0.017 A 
ATOM     24  C   UNL     1       1.945  -8.512  24.464  0.00  0.00    +0.050 A 
ATOM     25  C   UNL     1       1.392  -8.672  25.737  0.00  0.00    +0.162 A 
ATOM     26  C   UNL     1       1.468  -7.608  26.656  0.00  0.00    +0.162 A 
ATOM     27  C   UNL     1       2.072  -6.404  26.278  0.00  0.00    +0.062 A 
BRANCH  25  28
ATOM     28  O   UNL     1       0.773  -9.811  26.184  0.00  0.00    -0.491 OA
ATOM     29  C   UNL     1       0.443 -10.807  25.226  0.00  0.00    +0.277 C 
ENDBRANCH  25  28
BRANCH  26  30
ATOM     30  O   UNL     1       0.939  -7.828  27.906  0.00  0.00    -0.491 OA
ATOM     31  C   UNL     1       1.848  -7.824  29.002  0.00  0.00    +0.277 C 
ENDBRANCH  26  30
ENDBRANCH   6  22
TORSDOF 4
ENDMDL
MODEL 7
REMARK VINA RESULT:      -6.3      2.188      3.184
REMARK  Name = 
REMARK  7 active torsions:
REMARK  status: ('A' for Active; 'I' for Inactive)
REMARK    1  A    between atoms: C_2  and  C_3
REMARK    2  A    between atoms: C_9  and  C_10
REMARK    3  A    between atoms: C_20  and  C_22
REMARK    4  A    between atoms: C_24  and  O_25
REMARK    5  A    between atoms: O_25  and  C_26
REMARK    6  A    between atoms: C_27  and  O_28
REMARK    7  A    between atoms: O_28  and  C_29
REMARK                            x       y       z     vdW  Elec       q    Type
REMARK                         _______ _______ _______ _____ _____    ______ ____
ROOT
ATOM      1  C   UNL     1       7.135   1.101  23.854  0.00  0.00    -0.001 A 
ATOM      2  C   UNL     1       7.328   0.109  22.892  0.00  0.00    +0.011 A 
ATOM      3  C   UNL     1       6.742  -1.154  23.048  0.00  0.00    +0.024 A 
ATOM      4  C   UNL     1       5.967  -1.464  24.173  0.00  0.00    +0.040 A 
ATOM      5  N   UNL     1       5.384  -2.766  24.376  0.00  0.00    -0.267 N 
ATOM      6  C   UNL     1       5.045  -3.613  23.293  0.00  0.00    +0.251 C 
ATOM      7  O   UNL     1       5.235  -3.345  22.105  0.00  0.00    -0.270 OA
ATOM      8  C   UNL     1       5.178  -3.065  25.807  0.00  0.00    +0.114 C 
ATOM      9  C   UNL     1       4.241  -2.022  26.389  0.00  0.00    +0.024 C 
ATOM     10  C   UNL     1       4.993  -0.700  26.422  0.00  0.00    +0.038 C 
ATOM     11  C   UNL     1       5.796  -0.467  25.162  0.00  0.00    -0.025 A 
ATOM     12  C   UNL     1       6.387   0.801  24.996  0.00  0.00    +0.015 A 
ENDROOT
BRANCH   1  14
ATOM     13  C   UNL     1       8.795   2.946  24.548  0.00  0.00    +0.103 C 
ATOM     14  C   UNL     1       7.634   2.507  23.677  0.00  0.00    +0.079 C 
ATOM     15  N   UNL     1       7.135   3.198  22.696  0.00  0.00    -0.183 NA
ATOM     16  N   UNL     1       7.624   4.430  22.400  0.00  0.00    -0.198 N 
ATOM     17  H   UNL     1       7.272   4.838  21.539  0.00  0.00    +0.178 HD
ATOM     18  C   UNL     1       8.474   5.238  23.102  0.00  0.00    +0.292 C 
ATOM     19  O   UNL     1       8.856   6.309  22.647  0.00  0.00    -0.261 OA
ATOM     20  S   UNL     1       8.930   4.730  24.697  0.00  0.00    -0.057 S 
ATOM     21  C   UNL     1      10.091   2.318  24.045  0.00  0.00    +0.026 C 
ENDBRANCH   1  14
BRANCH   6  22
ATOM     22  C   UNL     1       4.395  -4.941  23.530  0.00  0.00    +0.041 A 
ATOM     23  C   UNL     1       5.097  -5.914  24.254  0.00  0.00    +0.017 A 
ATOM     24  C   UNL     1       4.498  -7.139  24.578  0.00  0.00    +0.050 A 
ATOM     25  C   UNL     1       3.166  -7.381  24.230  0.00  0.00    +0.162 A 
ATOM     26  C   UNL     1       2.476  -6.430  23.453  0.00  0.00    +0.162 A 
ATOM     27  C   UNL     1       3.136  -5.273  23.025  0.00  0.00    +0.062 A 
BRANCH  25  28
ATOM     28  O   UNL     1       2.450  -8.491  24.598  0.00  0.00    -0.491 OA
ATOM     29  C   UNL     1       1.783  -8.465  25.852  0.00  0.00    +0.277 C 
ENDBRANCH  25  28
BRANCH  26  30
ATOM     30  O   UNL     1       1.160  -6.698  23.167  0.00  0.00    -0.491 OA
ATOM     31  C   UNL     1       0.891  -7.398  21.956  0.00  0.00    +0.277 C 
ENDBRANCH  26  30
ENDBRANCH   6  22
TORSDOF 4
ENDMDL
MODEL 8
REMARK VINA RESULT:      -6.3      2.239      3.586
REMARK  Name = 
REMARK  7 active torsions:
REMARK  status: ('A' for Active; 'I' for Inactive)
REMARK    1  A    between atoms: C_2  and  C_3
REMARK    2  A    between atoms: C_9  and  C_10
REMARK    3  A    between atoms: C_20  and  C_22
REMARK    4  A    between atoms: C_24  and  O_25
REMARK    5  A    between atoms: O_25  and  C_26
REMARK    6  A    between atoms: C_27  and  O_28
REMARK    7  A    between atoms: O_28  and  C_29
REMARK                            x       y       z     vdW  Elec       q    Type
REMARK                         _______ _______ _______ _____ _____    ______ ____
ROOT
ATOM      1  C   UNL     1       7.836  -1.186  24.065  0.00  0.00    -0.001 A 
ATOM      2  C   UNL     1       6.558  -1.379  23.538  0.00  0.00    +0.011 A 
ATOM      3  C   UNL     1       5.783  -2.476  23.938  0.00  0.00    +0.024 A 
ATOM      4  C   UNL     1       6.269  -3.415  24.855  0.00  0.00    +0.040 A 
ATOM      5  N   UNL     1       5.507  -4.572  25.255  0.00  0.00    -0.267 N 
ATOM      6  C   UNL     1       4.091  -4.579  25.242  0.00  0.00    +0.251 C 
ATOM      7  O   UNL     1       3.388  -3.636  24.872  0.00  0.00    -0.270 OA
ATOM      8  C   UNL     1       6.375  -5.687  25.682  0.00  0.00    +0.114 C 
ATOM      9  C   UNL     1       7.206  -5.226  26.866  0.00  0.00    +0.024 C 
ATOM     10  C   UNL     1       8.203  -4.197  26.351  0.00  0.00    +0.038 C 
ATOM     11  C   UNL     1       7.575  -3.236  25.367  0.00  0.00    -0.025 A 
ATOM     12  C   UNL     1       8.346  -2.129  24.962  0.00  0.00    +0.015 A 
ENDROOT
BRANCH   1  14
ATOM     13  C   UNL     1       8.451   0.699  22.421  0.00  0.00    +0.103 C 
ATOM     14  C   UNL     1       8.657   0.035  23.769  0.00  0.00    +0.079 C 
ATOM     15  N   UNL     1       9.376   0.520  24.737  0.00  0.00    -0.183 NA
ATOM     16  N   UNL     1      10.048   1.690  24.580  0.00  0.00    -0.198 N 
ATOM     17  H   UNL     1      10.470   2.062  25.425  0.00  0.00    +0.178 HD
ATOM     18  C   UNL     1      10.298   2.424  23.454  0.00  0.00    +0.292 C 
ATOM     19  O   UNL     1      10.882   3.499  23.510  0.00  0.00    -0.261 OA
ATOM     20  S   UNL     1       9.830   1.739  21.930  0.00  0.00    -0.057 S 
ATOM     21  C   UNL     1       7.132   1.465  22.413  0.00  0.00    +0.026 C 
ENDBRANCH   1  14
BRANCH   6  22
ATOM     22  C   UNL     1       3.324  -5.777  25.709  0.00  0.00    +0.041 A 
ATOM     23  C   UNL     1       2.989  -5.874  27.066  0.00  0.00    +0.017 A 
ATOM     24  C   UNL     1       2.196  -6.930  27.535  0.00  0.00    +0.050 A 
ATOM     25  C   UNL     1       1.681  -7.871  26.639  0.00  0.00    +0.162 A 
ATOM     26  C   UNL     1       2.062  -7.809  25.285  0.00  0.00    +0.162 A 
ATOM     27  C   UNL     1       2.964  -6.826  24.861  0.00  0.00    +0.062 A 
BRANCH  25  28
ATOM     28  O   UNL     1       0.805  -8.871  26.973  0.00  0.00    -0.491 OA
ATOM     29  C   UNL     1       0.444  -9.010  28.340  0.00  0.00    +0.277 C 
ENDBRANCH  25  28
BRANCH  26  30
ATOM     30  O   UNL     1       1.502  -8.735  24.439  0.00  0.00    -0.491 OA
ATOM     31  C   UNL     1       1.390  -8.374  23.067  0.00  0.00    +0.277 C 
ENDBRANCH  26  30
ENDBRANCH   6  22
TORSDOF 4
ENDMDL
MODEL 9
REMARK VINA RESULT:      -6.3      3.181     10.304
REMARK  Name = 
REMARK  7 active torsions:
REMARK  status: ('A' for Active; 'I' for Inactive)
REMARK    1  A    between atoms: C_2  and  C_3
REMARK    2  A    between atoms: C_9  and  C_10
REMARK    3  A    between atoms: C_20  and  C_22
REMARK    4  A    between atoms: C_24  and  O_25
REMARK    5  A    between atoms: O_25  and  C_26
REMARK    6  A    between atoms: C_27  and  O_28
REMARK    7  A    between atoms: O_28  and  C_29
REMARK                            x       y       z     vdW  Elec       q    Type
REMARK                         _______ _______ _______ _____ _____    ______ ____
ROOT
ATOM      1  C   UNL     1       6.073  -2.123  23.809  0.00  0.00    -0.001 A 
ATOM      2  C   UNL     1       6.831  -1.635  22.744  0.00  0.00    +0.011 A 
ATOM      3  C   UNL     1       7.496  -0.405  22.851  0.00  0.00    +0.024 A 
ATOM      4  C   UNL     1       7.406   0.373  24.012  0.00  0.00    +0.040 A 
ATOM      5  N   UNL     1       8.050   1.657  24.133  0.00  0.00    -0.267 N 
ATOM      6  C   UNL     1       9.223   1.980  23.411  0.00  0.00    +0.251 C 
ATOM      7  O   UNL     1       9.782   1.230  22.607  0.00  0.00    -0.270 OA
ATOM      8  C   UNL     1       7.354   2.537  25.093  0.00  0.00    +0.114 C 
ATOM      9  C   UNL     1       7.358   1.866  26.455  0.00  0.00    +0.024 C 
ATOM     10  C   UNL     1       6.436   0.657  26.371  0.00  0.00    +0.038 C 
ATOM     11  C   UNL     1       6.614  -0.109  25.080  0.00  0.00    -0.025 A 
ATOM     12  C   UNL     1       5.951  -1.346  24.965  0.00  0.00    +0.015 A 
ENDROOT
BRANCH   1  14
ATOM     13  C   UNL     1       6.360  -4.669  23.538  0.00  0.00    +0.103 C 
ATOM     14  C   UNL     1       5.446  -3.487  23.796  0.00  0.00    +0.079 C 
ATOM     15  N   UNL     1       4.197  -3.573  24.148  0.00  0.00    -0.183 NA
ATOM     16  N   UNL     1       3.597  -4.784  24.278  0.00  0.00    -0.198 N 
ATOM     17  H   UNL     1       2.668  -4.764  24.687  0.00  0.00    +0.178 HD
ATOM     18  C   UNL     1       4.019  -6.027  23.897  0.00  0.00    +0.292 C 
ATOM     19  O   UNL     1       3.362  -7.030  24.149  0.00  0.00    -0.261 OA
ATOM     20  S   UNL     1       5.482  -6.128  22.969  0.00  0.00    -0.057 S 
ATOM     21  C   UNL     1       7.199  -4.960  24.779  0.00  0.00    +0.026 C 
ENDBRANCH   1  14
BRANCH   6  22
ATOM     22  C   UNL     1       9.899   3.303  23.593  0.00  0.00    +0.041 A 
ATOM     23  C   UNL     1       9.190   4.341  24.212  0.00  0.00    +0.017 A 
ATOM     24  C   UNL     1       9.808   5.569  24.485  0.00  0.00    +0.050 A 
ATOM     25  C   UNL     1      11.162   5.752  24.193  0.00  0.00    +0.162 A 
ATOM     26  C   UNL     1      11.863   4.733  23.521  0.00  0.00    +0.162 A 
ATOM     27  C   UNL     1      11.192   3.567  23.135  0.00  0.00    +0.062 A 
BRANCH  25  28
ATOM     28  O   UNL     1      11.891   6.865  24.525  0.00  0.00    -0.491 OA
ATOM     29  C   UNL     1      12.144   7.108  25.902  0.00  0.00    +0.277 C 
ENDBRANCH  25  28
BRANCH  26  30
ATOM     30  O   UNL     1      13.200   4.947  23.288  0.00  0.00    -0.491 OA
ATOM     31  C   UNL     1      13.545   5.647  22.097  0.00  0.00    +0.277 C 
ENDBRANCH  26  30
ENDBRANCH   6  22
TORSDOF 4
ENDMDL
