MODEL 1
REMARK VINA RESULT:      -6.6      0.000      0.000
REMARK  Name = 
REMARK  12 active torsions:
REMARK  status: ('A' for Active; 'I' for Inactive)
REMARK    1  A    between atoms: C_2  and  C_3
REMARK    2  A    between atoms: C_2  and  N_14
REMARK    3  A    between atoms: C_2  and  C_29
REMARK    4  A    between atoms: C_3  and  C_4
REMARK    5  A    between atoms: C_10  and  C_11
REMARK    6  A    between atoms: N_14  and  S_15
REMARK    7  A    between atoms: S_15  and  C_18
REMARK    8  A    between atoms: C_21  and  O_22
REMARK    9  A    between atoms: O_22  and  C_23
REMARK   10  A    between atoms: C_23  and  C_24
REMARK   11  A    between atoms: C_25  and  C_26
REMARK   12  A    between atoms: C_29  and  O_30
REMARK                            x       y       z     vdW  Elec       q    Type
REMARK                         _______ _______ _______ _____ _____    ______ ____
ROOT
ATOM      1  C   UNL     1       6.825  -4.022  23.296  0.00  0.00    +0.189 C 
ENDROOT
BRANCH   1   2
ATOM      2  C   UNL     1       6.719  -4.937  22.075  0.00  0.00    +0.324 C 
ATOM      3  O   UNL     1       5.957  -4.724  21.141  0.00  0.00    -0.249 OA
BRANCH   2   4
ATOM      4  O   UNL     1       7.565  -5.991  22.085  0.00  0.00    -0.479 OA
ATOM      5  H   UNL     1       7.630  -6.464  21.233  0.00  0.00    +0.295 HD
ENDBRANCH   2   4
ENDBRANCH   1   2
BRANCH   1   6
ATOM      6  N   UNL     1       6.983  -4.847  24.523  0.00  0.00    -0.176 NA
ATOM      7  H   UNL     1       6.594  -5.794  24.473  0.00  0.00    +0.149 HD
BRANCH   6   8
ATOM      8  S   UNL     1       8.487  -4.854  25.282  0.00  0.00    +0.059 S 
ATOM      9  O   UNL     1       9.409  -5.593  24.451  0.00  0.00    -0.153 OA
ATOM     10  O   UNL     1       8.249  -5.189  26.663  0.00  0.00    -0.153 OA
BRANCH   8  11
ATOM     11  C   UNL     1       8.961  -3.146  25.196  0.00  0.00    +0.105 A 
ATOM     12  C   UNL     1       9.677  -2.702  24.081  0.00  0.00    +0.032 A 
ATOM     13  C   UNL     1      10.033  -1.357  23.968  0.00  0.00    +0.047 A 
ATOM     14  C   UNL     1       9.701  -0.460  24.987  0.00  0.00    +0.122 A 
ATOM     15  C   UNL     1       9.032  -0.929  26.123  0.00  0.00    +0.047 A 
ATOM     16  C   UNL     1       8.668  -2.273  26.242  0.00  0.00    +0.032 A 
BRANCH  14  17
ATOM     17  O   UNL     1       9.934   0.887  24.967  0.00  0.00    -0.480 OA
BRANCH  17  18
ATOM     18  C   UNL     1      10.701   1.396  23.876  0.00  0.00    +0.317 C 
BRANCH  18  19
ATOM     19  C   UNL     1      10.515   2.851  23.782  0.00  0.00    -0.062 C 
ATOM     20  C   UNL     1      10.361   4.043  23.748  0.00  0.00    -0.102 C 
ATOM     21  C   UNL     1      10.173   5.494  23.731  0.00  0.00    +0.106 C 
ENDBRANCH  18  19
ENDBRANCH  17  18
ENDBRANCH  14  17
ENDBRANCH   8  11
ENDBRANCH   6   8
ENDBRANCH   1   6
BRANCH   1  22
ATOM     22  C   UNL     1       5.530  -3.191  23.326  0.00  0.00    +0.069 C 
BRANCH  22  23
ATOM     23  C   UNL     1       5.566  -2.000  24.237  0.00  0.00    -0.020 A 
ATOM     24  C   UNL     1       6.091  -0.699  23.939  0.00  0.00    +0.003 A 
ATOM     25  C   UNL     1       6.706  -0.121  22.808  0.00  0.00    +0.013 A 
ATOM     26  C   UNL     1       7.125   1.221  22.845  0.00  0.00    -0.050 A 
ATOM     27  C   UNL     1       6.929   1.977  24.003  0.00  0.00    +0.005 A 
ATOM     28  C   UNL     1       6.307   1.436  25.131  0.00  0.00    +0.026 A 
ATOM     29  C   UNL     1       7.784   1.845  21.648  0.00  0.00    +0.044 C 
ATOM     30  C   UNL     1       5.894   0.099  25.066  0.00  0.00    +0.047 A 
ATOM     31  N   UNL     1       5.249  -0.673  26.002  0.00  0.00    -0.360 N 
ATOM     32  H   UNL     1       4.956  -0.344  26.912  0.00  0.00    +0.165 HD
ATOM     33  C   UNL     1       5.041  -1.934  25.513  0.00  0.00    +0.087 A 
ENDBRANCH  22  23
ENDBRANCH   1  22
TORSDOF 10
ENDMDL
MODEL 2
REMARK VINA RESULT:      -6.4      2.578      4.154
REMARK  Name = 
REMARK  12 active torsions:
REMARK  status: ('A' for Active; 'I' for Inactive)
REMARK    1  A    between atoms: C_2  and  C_3
REMARK    2  A    between atoms: C_2  and  N_14
REMARK    3  A    between atoms: C_2  and  C_29
REMARK    4  A    between atoms: C_3  and  C_4
REMARK    5  A    between atoms: C_10  and  C_11
REMARK    6  A    between atoms: N_14  and  S_15
REMARK    7  A    between atoms: S_15  and  C_18
REMARK    8  A    between atoms: C_21  and  O_22
REMARK    9  A    between atoms: O_22  and  C_23
REMARK   10  A    between atoms: C_23  and  C_24
REMARK   11  A    between atoms: C_25  and  C_26
REMARK   12  A    between atoms: C_29  and  O_30
REMARK                            x       y       z     vdW  Elec       q    Type
REMARK                         _______ _______ _______ _____ _____    ______ ____
ROOT
ATOM      1  C   UNL     1       4.913  -5.936  25.265  0.00  0.00    +0.189 C 
ENDROOT
BRANCH   1   2
ATOM      2  C   UNL     1       3.973  -7.136  25.392  0.00  0.00    +0.324 C 
ATOM      3  O   UNL     1       3.680  -7.861  24.450  0.00  0.00    -0.249 OA
BRANCH   2   4
ATOM      4  O   UNL     1       3.514  -7.364  26.643  0.00  0.00    -0.479 OA
ATOM      5  H   UNL     1       2.541  -7.367  26.721  0.00  0.00    +0.295 HD
ENDBRANCH   2   4
ENDBRANCH   1   2
BRANCH   1   6
ATOM      6  N   UNL     1       5.682  -6.039  23.997  0.00  0.00    -0.176 NA
ATOM      7  H   UNL     1       5.893  -6.990  23.683  0.00  0.00    +0.149 HD
BRANCH   6   8
ATOM      8  S   UNL     1       5.203  -5.071  22.703  0.00  0.00    +0.059 S 
ATOM      9  O   UNL     1       3.909  -4.510  23.013  0.00  0.00    -0.153 OA
ATOM     10  O   UNL     1       5.451  -5.833  21.506  0.00  0.00    -0.153 OA
BRANCH   8  11
ATOM     11  C   UNL     1       6.379  -3.742  22.771  0.00  0.00    +0.105 A 
ATOM     12  C   UNL     1       5.908  -2.427  22.732  0.00  0.00    +0.032 A 
ATOM     13  C   UNL     1       6.805  -1.360  22.818  0.00  0.00    +0.047 A 
ATOM     14  C   UNL     1       8.176  -1.609  22.912  0.00  0.00    +0.122 A 
ATOM     15  C   UNL     1       8.638  -2.930  22.896  0.00  0.00    +0.047 A 
ATOM     16  C   UNL     1       7.746  -4.003  22.813  0.00  0.00    +0.032 A 
BRANCH  14  17
ATOM     17  O   UNL     1       9.147  -0.658  23.068  0.00  0.00    -0.480 OA
BRANCH  17  18
ATOM     18  C   UNL     1       9.397   0.201  21.957  0.00  0.00    +0.317 C 
BRANCH  18  19
ATOM     19  C   UNL     1       9.977   1.465  22.434  0.00  0.00    -0.062 C 
ATOM     20  C   UNL     1      10.463   2.479  22.861  0.00  0.00    -0.102 C 
ATOM     21  C   UNL     1      11.060   3.701  23.399  0.00  0.00    +0.106 C 
ENDBRANCH  18  19
ENDBRANCH  17  18
ENDBRANCH  14  17
ENDBRANCH   8  11
ENDBRANCH   6   8
ENDBRANCH   1   6
BRANCH   1  22
ATOM     22  C   UNL     1       5.833  -5.977  26.499  0.00  0.00    +0.069 C 
BRANCH  22  23
ATOM     23  C   UNL     1       6.962  -4.990  26.476  0.00  0.00    -0.020 A 
ATOM     24  C   UNL     1       6.860  -3.560  26.500  0.00  0.00    +0.003 A 
ATOM     25  C   UNL     1       5.782  -2.650  26.542  0.00  0.00    +0.013 A 
ATOM     26  C   UNL     1       6.030  -1.266  26.548  0.00  0.00    -0.050 A 
ATOM     27  C   UNL     1       7.346  -0.797  26.513  0.00  0.00    +0.005 A 
ATOM     28  C   UNL     1       8.432  -1.674  26.490  0.00  0.00    +0.026 A 
ATOM     29  C   UNL     1       4.890  -0.289  26.588  0.00  0.00    +0.044 C 
ATOM     30  C   UNL     1       8.158  -3.048  26.490  0.00  0.00    +0.047 A 
ATOM     31  N   UNL     1       9.017  -4.121  26.491  0.00  0.00    -0.360 N 
ATOM     32  H   UNL     1      10.025  -4.047  26.510  0.00  0.00    +0.165 HD
ATOM     33  C   UNL     1       8.309  -5.293  26.489  0.00  0.00    +0.087 A 
ENDBRANCH  22  23
ENDBRANCH   1  22
TORSDOF 10
ENDMDL
MODEL 3
REMARK VINA RESULT:      -6.3      3.373      7.283
REMARK  Name = 
REMARK  12 active torsions:
REMARK  status: ('A' for Active; 'I' for Inactive)
REMARK    1  A    between atoms: C_2  and  C_3
REMARK    2  A    between atoms: C_2  and  N_14
REMARK    3  A    between atoms: C_2  and  C_29
REMARK    4  A    between atoms: C_3  and  C_4
REMARK    5  A    between atoms: C_10  and  C_11
REMARK    6  A    between atoms: N_14  and  S_15
REMARK    7  A    between atoms: S_15  and  C_18
REMARK    8  A    between atoms: C_21  and  O_22
REMARK    9  A    between atoms: O_22  and  C_23
REMARK   10  A    between atoms: C_23  and  C_24
REMARK   11  A    between atoms: C_25  and  C_26
REMARK   12  A    between atoms: C_29  and  O_30
REMARK                            x       y       z     vdW  Elec       q    Type
REMARK                         _______ _______ _______ _____ _____    ______ ____
ROOT
ATOM      1  C   UNL     1       8.594  -2.735  22.888  0.00  0.00    +0.189 C 
ENDROOT
BRANCH   1   2
ATOM      2  C   UNL     1       9.030  -1.434  22.214  0.00  0.00    +0.324 C 
ATOM      3  O   UNL     1       8.431  -0.375  22.349  0.00  0.00    -0.249 OA
BRANCH   2   4
ATOM      4  O   UNL     1      10.161  -1.530  21.480  0.00  0.00    -0.479 OA
ATOM      5  H   UNL     1      10.542  -0.672  21.213  0.00  0.00    +0.295 HD
ENDBRANCH   2   4
ENDBRANCH   1   2
BRANCH   1   6
ATOM      6  N   UNL     1       7.115  -2.867  22.806  0.00  0.00    -0.176 NA
ATOM      7  H   UNL     1       6.611  -2.023  22.518  0.00  0.00    +0.149 HD
BRANCH   6   8
ATOM      8  S   UNL     1       6.485  -4.232  22.046  0.00  0.00    +0.059 S 
ATOM      9  O   UNL     1       7.550  -5.194  21.888  0.00  0.00    -0.153 OA
ATOM     10  O   UNL     1       5.698  -3.758  20.936  0.00  0.00    -0.153 OA
BRANCH   8  11
ATOM     11  C   UNL     1       5.379  -4.874  23.278  0.00  0.00    +0.105 A 
ATOM     12  C   UNL     1       4.367  -4.045  23.769  0.00  0.00    +0.032 A 
ATOM     13  C   UNL     1       3.460  -4.532  24.712  0.00  0.00    +0.047 A 
ATOM     14  C   UNL     1       3.585  -5.839  25.188  0.00  0.00    +0.122 A 
ATOM     15  C   UNL     1       4.637  -6.641  24.728  0.00  0.00    +0.047 A 
ATOM     16  C   UNL     1       5.546  -6.161  23.781  0.00  0.00    +0.032 A 
BRANCH  14  17
ATOM     17  O   UNL     1       2.728  -6.454  26.059  0.00  0.00    -0.480 OA
BRANCH  17  18
ATOM     18  C   UNL     1       1.654  -5.667  26.574  0.00  0.00    +0.317 C 
BRANCH  18  19
ATOM     19  C   UNL     1       1.927  -5.325  27.978  0.00  0.00    -0.062 C 
ATOM     20  C   UNL     1       2.174  -5.012  29.112  0.00  0.00    -0.102 C 
ATOM     21  C   UNL     1       2.487  -4.613  30.485  0.00  0.00    +0.106 C 
ENDBRANCH  18  19
ENDBRANCH  17  18
ENDBRANCH  14  17
ENDBRANCH   8  11
ENDBRANCH   6   8
ENDBRANCH   1   6
BRANCH   1  22
ATOM     22  C   UNL     1       9.082  -2.651  24.346  0.00  0.00    +0.069 C 
BRANCH  22  23
ATOM     23  C   UNL     1       8.704  -3.820  25.206  0.00  0.00    -0.020 A 
ATOM     24  C   UNL     1       7.595  -3.905  26.110  0.00  0.00    +0.003 A 
ATOM     25  C   UNL     1       6.565  -3.017  26.492  0.00  0.00    +0.013 A 
ATOM     26  C   UNL     1       5.607  -3.419  27.440  0.00  0.00    -0.050 A 
ATOM     27  C   UNL     1       5.679  -4.696  28.000  0.00  0.00    +0.005 A 
ATOM     28  C   UNL     1       6.675  -5.601  27.628  0.00  0.00    +0.026 A 
ATOM     29  C   UNL     1       4.510  -2.481  27.856  0.00  0.00    +0.044 C 
ATOM     30  C   UNL     1       7.614  -5.179  26.678  0.00  0.00    +0.047 A 
ATOM     31  N   UNL     1       8.673  -5.855  26.120  0.00  0.00    -0.360 N 
ATOM     32  H   UNL     1       8.913  -6.815  26.329  0.00  0.00    +0.165 HD
ATOM     33  C   UNL     1       9.331  -5.050  25.230  0.00  0.00    +0.087 A 
ENDBRANCH  22  23
ENDBRANCH   1  22
TORSDOF 10
ENDMDL
MODEL 4
REMARK VINA RESULT:      -6.2      2.617      4.450
REMARK  Name = 
REMARK  12 active torsions:
REMARK  status: ('A' for Active; 'I' for Inactive)
REMARK    1  A    between atoms: C_2  and  C_3
REMARK    2  A    between atoms: C_2  and  N_14
REMARK    3  A    between atoms: C_2  and  C_29
REMARK    4  A    between atoms: C_3  and  C_4
REMARK    5  A    between atoms: C_10  and  C_11
REMARK    6  A    between atoms: N_14  and  S_15
REMARK    7  A    between atoms: S_15  and  C_18
REMARK    8  A    between atoms: C_21  and  O_22
REMARK    9  A    between atoms: O_22  and  C_23
REMARK   10  A    between atoms: C_23  and  C_24
REMARK   11  A    between atoms: C_25  and  C_26
REMARK   12  A    between atoms: C_29  and  O_30
REMARK                            x       y       z     vdW  Elec       q    Type
REMARK                         _______ _______ _______ _____ _____    ______ ____
ROOT
ATOM      1  C   UNL     1       5.509  -5.491  27.444  0.00  0.00    +0.189 C 
ENDROOT
BRANCH   1   2
ATOM      2  C   UNL     1       5.767  -6.228  28.758  0.00  0.00    +0.324 C 
ATOM      3  O   UNL     1       6.069  -5.659  29.799  0.00  0.00    -0.249 OA
BRANCH   2   4
ATOM      4  O   UNL     1       5.598  -7.568  28.696  0.00  0.00    -0.479 OA
ATOM      5  H   UNL     1       4.692  -7.870  28.896  0.00  0.00    +0.295 HD
ENDBRANCH   2   4
ENDBRANCH   1   2
BRANCH   1   6
ATOM      6  N   UNL     1       5.695  -6.427  26.304  0.00  0.00    -0.176 NA
ATOM      7  H   UNL     1       5.803  -7.414  26.554  0.00  0.00    +0.149 HD
BRANCH   6   8
ATOM      8  S   UNL     1       4.684  -6.254  24.967  0.00  0.00    +0.059 S 
ATOM      9  O   UNL     1       3.452  -5.643  25.408  0.00  0.00    -0.153 OA
ATOM     10  O   UNL     1       4.717  -7.509  24.261  0.00  0.00    -0.153 OA
BRANCH   8  11
ATOM     11  C   UNL     1       5.547  -5.045  23.995  0.00  0.00    +0.105 A 
ATOM     12  C   UNL     1       4.808  -4.048  23.352  0.00  0.00    +0.032 A 
ATOM     13  C   UNL     1       5.461  -3.063  22.608  0.00  0.00    +0.047 A 
ATOM     14  C   UNL     1       6.852  -3.093  22.482  0.00  0.00    +0.122 A 
ATOM     15  C   UNL     1       7.575  -4.128  23.086  0.00  0.00    +0.047 A 
ATOM     16  C   UNL     1       6.928  -5.116  23.835  0.00  0.00    +0.032 A 
BRANCH  14  17
ATOM     17  O   UNL     1       7.612  -2.154  21.840  0.00  0.00    -0.480 OA
BRANCH  17  18
ATOM     18  C   UNL     1       8.991  -2.081  22.200  0.00  0.00    +0.317 C 
BRANCH  18  19
ATOM     19  C   UNL     1       9.457  -0.692  22.072  0.00  0.00    -0.062 C 
ATOM     20  C   UNL     1       9.799   0.456  21.975  0.00  0.00    -0.102 C 
ATOM     21  C   UNL     1      10.193   1.861  21.860  0.00  0.00    +0.106 C 
ENDBRANCH  18  19
ENDBRANCH  17  18
ENDBRANCH  14  17
ENDBRANCH   8  11
ENDBRANCH   6   8
ENDBRANCH   1   6
BRANCH   1  22
ATOM     22  C   UNL     1       6.514  -4.325  27.398  0.00  0.00    +0.069 C 
BRANCH  22  23
ATOM     23  C   UNL     1       5.974  -3.050  26.823  0.00  0.00    -0.020 A 
ATOM     24  C   UNL     1       6.730  -1.953  26.291  0.00  0.00    +0.003 A 
ATOM     25  C   UNL     1       8.108  -1.691  26.136  0.00  0.00    +0.013 A 
ATOM     26  C   UNL     1       8.532  -0.477  25.566  0.00  0.00    -0.050 A 
ATOM     27  C   UNL     1       7.585   0.465  25.156  0.00  0.00    +0.005 A 
ATOM     28  C   UNL     1       6.215   0.224  25.281  0.00  0.00    +0.026 A 
ATOM     29  C   UNL     1       9.996  -0.186  25.399  0.00  0.00    +0.044 C 
ATOM     30  C   UNL     1       5.819  -0.994  25.846  0.00  0.00    +0.047 A 
ATOM     31  N   UNL     1       4.559  -1.498  26.069  0.00  0.00    -0.360 N 
ATOM     32  H   UNL     1       3.702  -1.024  25.819  0.00  0.00    +0.165 HD
ATOM     33  C   UNL     1       4.641  -2.734  26.650  0.00  0.00    +0.087 A 
ENDBRANCH  22  23
ENDBRANCH   1  22
TORSDOF 10
ENDMDL
MODEL 5
REMARK VINA RESULT:      -6.2      1.865      2.963
REMARK  Name = 
REMARK  12 active torsions:
REMARK  status: ('A' for Active; 'I' for Inactive)
REMARK    1  A    between atoms: C_2  and  C_3
REMARK    2  A    between atoms: C_2  and  N_14
REMARK    3  A    between atoms: C_2  and  C_29
REMARK    4  A    between atoms: C_3  and  C_4
REMARK    5  A    between atoms: C_10  and  C_11
REMARK    6  A    between atoms: N_14  and  S_15
REMARK    7  A    between atoms: S_15  and  C_18
REMARK    8  A    between atoms: C_21  and  O_22
REMARK    9  A    between atoms: O_22  and  C_23
REMARK   10  A    between atoms: C_23  and  C_24
REMARK   11  A    between atoms: C_25  and  C_26
REMARK   12  A    between atoms: C_29  and  O_30
REMARK                            x       y       z     vdW  Elec       q    Type
REMARK                         _______ _______ _______ _____ _____    ______ ____
ROOT
ATOM      1  C   UNL     1       7.433  -4.308  22.932  0.00  0.00    +0.189 C 
ENDROOT
BRANCH   1   2
ATOM      2  C   UNL     1       6.629  -5.052  21.865  0.00  0.00    +0.324 C 
ATOM      3  O   UNL     1       5.836  -4.499  21.115  0.00  0.00    -0.249 OA
BRANCH   2   4
ATOM      4  O   UNL     1       6.890  -6.376  21.783  0.00  0.00    -0.479 OA
ATOM      5  H   UNL     1       6.581  -6.798  20.959  0.00  0.00    +0.295 HD
ENDBRANCH   2   4
ENDBRANCH   1   2
BRANCH   1   6
ATOM      6  N   UNL     1       7.138  -4.887  24.270  0.00  0.00    -0.176 NA
ATOM      7  H   UNL     1       6.772  -5.843  24.267  0.00  0.00    +0.149 HD
BRANCH   6   8
ATOM      8  S   UNL     1       8.285  -4.686  25.487  0.00  0.00    +0.059 S 
ATOM      9  O   UNL     1       9.595  -4.672  24.877  0.00  0.00    -0.153 OA
ATOM     10  O   UNL     1       7.932  -5.602  26.541  0.00  0.00    -0.153 OA
BRANCH   8  11
ATOM     11  C   UNL     1       7.954  -3.035  26.050  0.00  0.00    +0.105 A 
ATOM     12  C   UNL     1       6.665  -2.721  26.490  0.00  0.00    +0.032 A 
ATOM     13  C   UNL     1       6.382  -1.441  26.971  0.00  0.00    +0.047 A 
ATOM     14  C   UNL     1       7.381  -0.465  26.983  0.00  0.00    +0.122 A 
ATOM     15  C   UNL     1       8.653  -0.778  26.489  0.00  0.00    +0.047 A 
ATOM     16  C   UNL     1       8.945  -2.058  26.009  0.00  0.00    +0.032 A 
BRANCH  14  17
ATOM     17  O   UNL     1       7.251   0.800  27.487  0.00  0.00    -0.480 OA
BRANCH  17  18
ATOM     18  C   UNL     1       6.446   1.713  26.743  0.00  0.00    +0.317 C 
BRANCH  18  19
ATOM     19  C   UNL     1       7.306   2.730  26.120  0.00  0.00    -0.062 C 
ATOM     20  C   UNL     1       8.002   3.543  25.572  0.00  0.00    -0.102 C 
ATOM     21  C   UNL     1       8.843   4.524  24.885  0.00  0.00    +0.106 C 
ENDBRANCH  18  19
ENDBRANCH  17  18
ENDBRANCH  14  17
ENDBRANCH   8  11
ENDBRANCH   6   8
ENDBRANCH   1   6
BRANCH   1  22
ATOM     22  C   UNL     1       7.009  -2.831  22.840  0.00  0.00    +0.069 C 
BRANCH  22  23
ATOM     23  C   UNL     1       8.114  -1.880  22.487  0.00  0.00    -0.020 A 
ATOM     24  C   UNL     1       8.024  -0.452  22.382  0.00  0.00    +0.003 A 
ATOM     25  C   UNL     1       6.980   0.484  22.544  0.00  0.00    +0.013 A 
ATOM     26  C   UNL     1       7.230   1.855  22.355  0.00  0.00    -0.050 A 
ATOM     27  C   UNL     1       8.513   2.284  22.008  0.00  0.00    +0.005 A 
ATOM     28  C   UNL     1       9.569   1.383  21.858  0.00  0.00    +0.026 A 
ATOM     29  C   UNL     1       6.125   2.859  22.522  0.00  0.00    +0.044 C 
ATOM     30  C   UNL     1       9.295   0.023  22.057  0.00  0.00    +0.047 A 
ATOM     31  N   UNL     1      10.132  -1.065  21.997  0.00  0.00    -0.360 N 
ATOM     32  H   UNL     1      11.123  -1.015  21.804  0.00  0.00    +0.165 HD
ATOM     33  C   UNL     1       9.434  -2.213  22.259  0.00  0.00    +0.087 A 
ENDBRANCH  22  23
ENDBRANCH   1  22
TORSDOF 10
ENDMDL
MODEL 6
REMARK VINA RESULT:      -6.2      2.272      3.955
REMARK  Name = 
REMARK  12 active torsions:
REMARK  status: ('A' for Active; 'I' for Inactive)
REMARK    1  A    between atoms: C_2  and  C_3
REMARK    2  A    between atoms: C_2  and  N_14
REMARK    3  A    between atoms: C_2  and  C_29
REMARK    4  A    between atoms: C_3  and  C_4
REMARK    5  A    between atoms: C_10  and  C_11
REMARK    6  A    between atoms: N_14  and  S_15
REMARK    7  A    between atoms: S_15  and  C_18
REMARK    8  A    between atoms: C_21  and  O_22
REMARK    9  A    between atoms: O_22  and  C_23
REMARK   10  A    between atoms: C_23  and  C_24
REMARK   11  A    between atoms: C_25  and  C_26
REMARK   12  A    between atoms: C_29  and  O_30
REMARK                            x       y       z     vdW  Elec       q    Type
REMARK                         _______ _______ _______ _____ _____    ______ ____
ROOT
ATOM      1  C   UNL     1       7.112  -4.062  26.505  0.00  0.00    +0.189 C 
ENDROOT
BRANCH   1   2
ATOM      2  C   UNL     1       6.793  -5.508  26.887  0.00  0.00    +0.324 C 
ATOM      3  O   UNL     1       5.930  -6.174  26.330  0.00  0.00    -0.249 OA
BRANCH   2   4
ATOM      4  O   UNL     1       7.568  -6.017  27.870  0.00  0.00    -0.479 OA
ATOM      5  H   UNL     1       7.528  -5.524  28.712  0.00  0.00    +0.295 HD
ENDBRANCH   2   4
ENDBRANCH   1   2
BRANCH   1   6
ATOM      6  N   UNL     1       5.991  -3.500  25.706  0.00  0.00    -0.176 NA
ATOM      7  H   UNL     1       5.399  -4.186  25.230  0.00  0.00    +0.149 HD
BRANCH   6   8
ATOM      8  S   UNL     1       5.058  -2.283  26.404  0.00  0.00    +0.059 S 
ATOM      9  O   UNL     1       5.109  -2.439  27.839  0.00  0.00    -0.153 OA
ATOM     10  O   UNL     1       3.817  -2.245  25.672  0.00  0.00    -0.153 OA
BRANCH   8  11
ATOM     11  C   UNL     1       5.984  -0.821  26.005  0.00  0.00    +0.105 A 
ATOM     12  C   UNL     1       5.986  -0.367  24.683  0.00  0.00    +0.032 A 
ATOM     13  C   UNL     1       6.675   0.799  24.345  0.00  0.00    +0.047 A 
ATOM     14  C   UNL     1       7.390   1.494  25.324  0.00  0.00    +0.122 A 
ATOM     15  C   UNL     1       7.424   0.998  26.632  0.00  0.00    +0.047 A 
ATOM     16  C   UNL     1       6.733  -0.166  26.979  0.00  0.00    +0.032 A 
BRANCH  14  17
ATOM     17  O   UNL     1       8.049   2.678  25.136  0.00  0.00    -0.480 OA
BRANCH  17  18
ATOM     18  C   UNL     1       8.275   3.087  23.788  0.00  0.00    +0.317 C 
BRANCH  18  19
ATOM     19  C   UNL     1       9.451   3.967  23.733  0.00  0.00    -0.062 C 
ATOM     20  C   UNL     1      10.405   4.700  23.728  0.00  0.00    -0.102 C 
ATOM     21  C   UNL     1      11.560   5.598  23.744  0.00  0.00    +0.106 C 
ENDBRANCH  18  19
ENDBRANCH  17  18
ENDBRANCH  14  17
ENDBRANCH   8  11
ENDBRANCH   6   8
ENDBRANCH   1   6
BRANCH   1  22
ATOM     22  C   UNL     1       8.424  -4.109  25.700  0.00  0.00    +0.069 C 
BRANCH  22  23
ATOM     23  C   UNL     1       8.350  -3.485  24.338  0.00  0.00    -0.020 A 
ATOM     24  C   UNL     1       8.971  -2.265  23.911  0.00  0.00    +0.003 A 
ATOM     25  C   UNL     1       9.785  -1.301  24.543  0.00  0.00    +0.013 A 
ATOM     26  C   UNL     1      10.235  -0.181  23.821  0.00  0.00    -0.050 A 
ATOM     27  C   UNL     1       9.875  -0.028  22.481  0.00  0.00    +0.005 A 
ATOM     28  C   UNL     1       9.085  -0.975  21.825  0.00  0.00    +0.026 A 
ATOM     29  C   UNL     1      11.100   0.853  24.485  0.00  0.00    +0.044 C 
ATOM     30  C   UNL     1       8.654  -2.084  22.564  0.00  0.00    +0.047 A 
ATOM     31  N   UNL     1       7.896  -3.164  22.177  0.00  0.00    -0.360 N 
ATOM     32  H   UNL     1       7.545  -3.311  21.240  0.00  0.00    +0.165 HD
ATOM     33  C   UNL     1       7.712  -4.015  23.233  0.00  0.00    +0.087 A 
ENDBRANCH  22  23
ENDBRANCH   1  22
TORSDOF 10
ENDMDL
MODEL 7
REMARK VINA RESULT:      -6.1      1.883      3.413
REMARK  Name = 
REMARK  12 active torsions:
REMARK  status: ('A' for Active; 'I' for Inactive)
REMARK    1  A    between atoms: C_2  and  C_3
REMARK    2  A    between atoms: C_2  and  N_14
REMARK    3  A    between atoms: C_2  and  C_29
REMARK    4  A    between atoms: C_3  and  C_4
REMARK    5  A    between atoms: C_10  and  C_11
REMARK    6  A    between atoms: N_14  and  S_15
REMARK    7  A    between atoms: S_15  and  C_18
REMARK    8  A    between atoms: C_21  and  O_22
REMARK    9  A    between atoms: O_22  and  C_23
REMARK   10  A    between atoms: C_23  and  C_24
REMARK   11  A    between atoms: C_25  and  C_26
REMARK   12  A    between atoms: C_29  and  O_30
REMARK                            x       y       z     vdW  Elec       q    Type
REMARK                         _______ _______ _______ _____ _____    ______ ____
ROOT
ATOM      1  C   UNL     1       7.033  -4.412  25.814  0.00  0.00    +0.189 C 
ENDROOT
BRANCH   1   2
ATOM      2  C   UNL     1       6.902  -5.649  26.704  0.00  0.00    +0.324 C 
ATOM      3  O   UNL     1       5.931  -6.395  26.679  0.00  0.00    -0.249 OA
BRANCH   2   4
ATOM      4  O   UNL     1       7.967  -5.885  27.502  0.00  0.00    -0.479 OA
ATOM      5  H   UNL     1       7.815  -5.691  28.446  0.00  0.00    +0.295 HD
ENDBRANCH   2   4
ENDBRANCH   1   2
BRANCH   1   6
ATOM      6  N   UNL     1       7.664  -4.793  24.523  0.00  0.00    -0.176 NA
ATOM      7  H   UNL     1       8.084  -5.727  24.494  0.00  0.00    +0.149 HD
BRANCH   6   8
ATOM      8  S   UNL     1       6.815  -4.472  23.104  0.00  0.00    +0.059 S 
ATOM      9  O   UNL     1       5.403  -4.477  23.410  0.00  0.00    -0.153 OA
ATOM     10  O   UNL     1       7.389  -5.310  22.082  0.00  0.00    -0.153 OA
BRANCH   8  11
ATOM     11  C   UNL     1       7.269  -2.790  22.764  0.00  0.00    +0.105 A 
ATOM     12  C   UNL     1       8.553  -2.524  22.281  0.00  0.00    +0.032 A 
ATOM     13  C   UNL     1       8.928  -1.216  21.971  0.00  0.00    +0.047 A 
ATOM     14  C   UNL     1       8.028  -0.167  22.175  0.00  0.00    +0.122 A 
ATOM     15  C   UNL     1       6.764  -0.440  22.711  0.00  0.00    +0.047 A 
ATOM     16  C   UNL     1       6.381  -1.748  23.020  0.00  0.00    +0.032 A 
BRANCH  14  17
ATOM     17  O   UNL     1       8.249   1.144  21.852  0.00  0.00    -0.480 OA
BRANCH  17  18
ATOM     18  C   UNL     1       7.124   2.021  21.898  0.00  0.00    +0.317 C 
BRANCH  18  19
ATOM     19  C   UNL     1       7.560   3.354  22.339  0.00  0.00    -0.062 C 
ATOM     20  C   UNL     1       7.899   4.437  22.737  0.00  0.00    -0.102 C 
ATOM     21  C   UNL     1       8.302   5.749  23.243  0.00  0.00    +0.106 C 
ENDBRANCH  18  19
ENDBRANCH  17  18
ENDBRANCH  14  17
ENDBRANCH   8  11
ENDBRANCH   6   8
ENDBRANCH   1   6
BRANCH   1  22
ATOM     22  C   UNL     1       7.893  -3.406  26.599  0.00  0.00    +0.069 C 
BRANCH  22  23
ATOM     23  C   UNL     1       7.400  -1.990  26.560  0.00  0.00    -0.020 A 
ATOM     24  C   UNL     1       8.095  -0.846  26.045  0.00  0.00    +0.003 A 
ATOM     25  C   UNL     1       9.363  -0.647  25.457  0.00  0.00    +0.013 A 
ATOM     26  C   UNL     1       9.756   0.643  25.056  0.00  0.00    -0.050 A 
ATOM     27  C   UNL     1       8.888   1.721  25.241  0.00  0.00    +0.005 A 
ATOM     28  C   UNL     1       7.622   1.551  25.804  0.00  0.00    +0.026 A 
ATOM     29  C   UNL     1      11.104   0.866  24.433  0.00  0.00    +0.044 C 
ATOM     30  C   UNL     1       7.252   0.256  26.190  0.00  0.00    +0.047 A 
ATOM     31  N   UNL     1       6.078  -0.201  26.741  0.00  0.00    -0.360 N 
ATOM     32  H   UNL     1       5.274   0.379  26.935  0.00  0.00    +0.165 HD
ATOM     33  C   UNL     1       6.154  -1.550  26.962  0.00  0.00    +0.087 A 
ENDBRANCH  22  23
ENDBRANCH   1  22
TORSDOF 10
ENDMDL
MODEL 8
REMARK VINA RESULT:      -6.1      2.375      3.631
REMARK  Name = 
REMARK  12 active torsions:
REMARK  status: ('A' for Active; 'I' for Inactive)
REMARK    1  A    between atoms: C_2  and  C_3
REMARK    2  A    between atoms: C_2  and  N_14
REMARK    3  A    between atoms: C_2  and  C_29
REMARK    4  A    between atoms: C_3  and  C_4
REMARK    5  A    between atoms: C_10  and  C_11
REMARK    6  A    between atoms: N_14  and  S_15
REMARK    7  A    between atoms: S_15  and  C_18
REMARK    8  A    between atoms: C_21  and  O_22
REMARK    9  A    between atoms: O_22  and  C_23
REMARK   10  A    between atoms: C_23  and  C_24
REMARK   11  A    between atoms: C_25  and  C_26
REMARK   12  A    between atoms: C_29  and  O_30
REMARK                            x       y       z     vdW  Elec       q    Type
REMARK                         _______ _______ _______ _____ _____    ______ ____
ROOT
ATOM      1  C   UNL     1       4.750  -4.192  24.249  0.00  0.00    +0.189 C 
ENDROOT
BRANCH   1   2
ATOM      2  C   UNL     1       3.482  -4.822  23.673  0.00  0.00    +0.324 C 
ATOM      3  O   UNL     1       2.367  -4.638  24.143  0.00  0.00    -0.249 OA
BRANCH   2   4
ATOM      4  O   UNL     1       3.678  -5.577  22.569  0.00  0.00    -0.479 OA
ATOM      5  H   UNL     1       3.518  -6.531  22.698  0.00  0.00    +0.295 HD
ENDBRANCH   2   4
ENDBRANCH   1   2
BRANCH   1   6
ATOM      6  N   UNL     1       4.541  -2.730  24.427  0.00  0.00    -0.176 NA
ATOM      7  H   UNL     1       3.681  -2.353  24.019  0.00  0.00    +0.149 HD
BRANCH   6   8
ATOM      8  S   UNL     1       4.822  -2.072  25.952  0.00  0.00    +0.059 S 
ATOM      9  O   UNL     1       5.296  -3.126  26.819  0.00  0.00    -0.153 OA
ATOM     10  O   UNL     1       3.672  -1.265  26.270  0.00  0.00    -0.153 OA
BRANCH   8  11
ATOM     11  C   UNL     1       6.196  -0.989  25.649  0.00  0.00    +0.105 A 
ATOM     12  C   UNL     1       7.335  -1.109  26.449  0.00  0.00    +0.032 A 
ATOM     13  C   UNL     1       8.445  -0.295  26.213  0.00  0.00    +0.047 A 
ATOM     14  C   UNL     1       8.403   0.661  25.196  0.00  0.00    +0.122 A 
ATOM     15  C   UNL     1       7.236   0.808  24.438  0.00  0.00    +0.047 A 
ATOM     16  C   UNL     1       6.122  -0.006  24.666  0.00  0.00    +0.032 A 
BRANCH  14  17
ATOM     17  O   UNL     1       9.441   1.471  24.823  0.00  0.00    -0.480 OA
BRANCH  17  18
ATOM     18  C   UNL     1       9.237   2.299  23.679  0.00  0.00    +0.317 C 
BRANCH  18  19
ATOM     19  C   UNL     1      10.413   3.159  23.481  0.00  0.00    -0.062 C 
ATOM     20  C   UNL     1      11.356   3.892  23.343  0.00  0.00    -0.102 C 
ATOM     21  C   UNL     1      12.493   4.800  23.188  0.00  0.00    +0.106 C 
ENDBRANCH  18  19
ENDBRANCH  17  18
ENDBRANCH  14  17
ENDBRANCH   8  11
ENDBRANCH   6   8
ENDBRANCH   1   6
BRANCH   1  22
ATOM     22  C   UNL     1       5.876  -4.493  23.244  0.00  0.00    +0.069 C 
BRANCH  22  23
ATOM     23  C   UNL     1       7.260  -4.196  23.741  0.00  0.00    -0.020 A 
ATOM     24  C   UNL     1       8.139  -3.159  23.285  0.00  0.00    +0.003 A 
ATOM     25  C   UNL     1       8.044  -2.149  22.304  0.00  0.00    +0.013 A 
ATOM     26  C   UNL     1       9.121  -1.270  22.093  0.00  0.00    -0.050 A 
ATOM     27  C   UNL     1      10.282  -1.401  22.858  0.00  0.00    +0.005 A 
ATOM     28  C   UNL     1      10.398  -2.380  23.848  0.00  0.00    +0.026 A 
ATOM     29  C   UNL     1       9.032  -0.194  21.049  0.00  0.00    +0.044 C 
ATOM     30  C   UNL     1       9.308  -3.239  24.041  0.00  0.00    +0.047 A 
ATOM     31  N   UNL     1       9.139  -4.263  24.943  0.00  0.00    -0.360 N 
ATOM     32  H   UNL     1       9.821  -4.531  25.638  0.00  0.00    +0.165 HD
ATOM     33  C   UNL     1       7.910  -4.841  24.775  0.00  0.00    +0.087 A 
ENDBRANCH  22  23
ENDBRANCH   1  22
TORSDOF 10
ENDMDL
MODEL 9
REMARK VINA RESULT:      -6.0      1.719      2.654
REMARK  Name = 
REMARK  12 active torsions:
REMARK  status: ('A' for Active; 'I' for Inactive)
REMARK    1  A    between atoms: C_2  and  C_3
REMARK    2  A    between atoms: C_2  and  N_14
REMARK    3  A    between atoms: C_2  and  C_29
REMARK    4  A    between atoms: C_3  and  C_4
REMARK    5  A    between atoms: C_10  and  C_11
REMARK    6  A    between atoms: N_14  and  S_15
REMARK    7  A    between atoms: S_15  and  C_18
REMARK    8  A    between atoms: C_21  and  O_22
REMARK    9  A    between atoms: O_22  and  C_23
REMARK   10  A    between atoms: C_23  and  C_24
REMARK   11  A    between atoms: C_25  and  C_26
REMARK   12  A    between atoms: C_29  and  O_30
REMARK                            x       y       z     vdW  Elec       q    Type
REMARK                         _______ _______ _______ _____ _____    ______ ____
ROOT
ATOM      1  C   UNL     1       6.725  -4.802  25.554  0.00  0.00    +0.189 C 
ENDROOT
BRANCH   1   2
ATOM      2  C   UNL     1       6.700  -5.672  26.810  0.00  0.00    +0.324 C 
ATOM      3  O   UNL     1       5.710  -6.291  27.179  0.00  0.00    -0.249 OA
BRANCH   2   4
ATOM      4  O   UNL     1       7.877  -5.742  27.472  0.00  0.00    -0.479 OA
ATOM      5  H   UNL     1       8.507  -6.391  27.107  0.00  0.00    +0.295 HD
ENDBRANCH   2   4
ENDBRANCH   1   2
BRANCH   1   6
ATOM      6  N   UNL     1       7.871  -3.857  25.626  0.00  0.00    -0.176 NA
ATOM      7  H   UNL     1       8.332  -3.789  26.538  0.00  0.00    +0.149 HD
BRANCH   6   8
ATOM      8  S   UNL     1       9.006  -3.895  24.381  0.00  0.00    +0.059 S 
ATOM      9  O   UNL     1       8.317  -4.205  23.150  0.00  0.00    -0.153 OA
ATOM     10  O   UNL     1      10.118  -4.673  24.863  0.00  0.00    -0.153 OA
BRANCH   8  11
ATOM     11  C   UNL     1       9.515  -2.197  24.282  0.00  0.00    +0.105 A 
ATOM     12  C   UNL     1       9.389  -1.390  25.416  0.00  0.00    +0.032 A 
ATOM     13  C   UNL     1       9.813  -0.061  25.380  0.00  0.00    +0.047 A 
ATOM     14  C   UNL     1      10.335   0.471  24.199  0.00  0.00    +0.122 A 
ATOM     15  C   UNL     1      10.406  -0.332  23.055  0.00  0.00    +0.047 A 
ATOM     16  C   UNL     1       9.986  -1.665  23.084  0.00  0.00    +0.032 A 
BRANCH  14  17
ATOM     17  O   UNL     1      10.844   1.733  24.052  0.00  0.00    -0.480 OA
BRANCH  17  18
ATOM     18  C   UNL     1      10.042   2.676  23.341  0.00  0.00    +0.317 C 
BRANCH  18  19
ATOM     19  C   UNL     1       9.179   3.398  24.288  0.00  0.00    -0.062 C 
ATOM     20  C   UNL     1       8.483   4.025  25.042  0.00  0.00    -0.102 C 
ATOM     21  C   UNL     1       7.642   4.807  25.948  0.00  0.00    +0.106 C 
ENDBRANCH  18  19
ENDBRANCH  17  18
ENDBRANCH  14  17
ENDBRANCH   8  11
ENDBRANCH   6   8
ENDBRANCH   1   6
BRANCH   1  22
ATOM     22  C   UNL     1       5.374  -4.064  25.513  0.00  0.00    +0.069 C 
BRANCH  22  23
ATOM     23  C   UNL     1       5.363  -2.732  26.202  0.00  0.00    -0.020 A 
ATOM     24  C   UNL     1       5.691  -1.459  25.629  0.00  0.00    +0.003 A 
ATOM     25  C   UNL     1       6.108  -1.033  24.349  0.00  0.00    +0.013 A 
ATOM     26  C   UNL     1       6.362   0.329  24.111  0.00  0.00    -0.050 A 
ATOM     27  C   UNL     1       6.200   1.256  25.143  0.00  0.00    +0.005 A 
ATOM     28  C   UNL     1       5.772   0.866  26.413  0.00  0.00    +0.026 A 
ATOM     29  C   UNL     1       6.809   0.792  22.753  0.00  0.00    +0.044 C 
ATOM     30  C   UNL     1       5.521  -0.496  26.624  0.00  0.00    +0.047 A 
ATOM     31  N   UNL     1       5.077  -1.150  27.749  0.00  0.00    -0.360 N 
ATOM     32  H   UNL     1       4.845  -0.694  28.621  0.00  0.00    +0.165 HD
ATOM     33  C   UNL     1       4.973  -2.492  27.505  0.00  0.00    +0.087 A 
ENDBRANCH  22  23
ENDBRANCH   1  22
TORSDOF 10
ENDMDL
