MODEL 1
REMARK VINA RESULT:      -6.9      0.000      0.000
REMARK  Name = 
REMARK  14 active torsions:
REMARK  status: ('A' for Active; 'I' for Inactive)
REMARK    1  A    between atoms: C_1  and  C_2
REMARK    2  A    between atoms: N_4  and  C_5
REMARK    3  A    between atoms: C_5  and  C_7
REMARK    4  A    between atoms: C_5  and  C_21
REMARK    5  A    between atoms: C_7  and  C_8
REMARK    6  A    between atoms: C_11  and  C_12
REMARK    7  A    between atoms: C_12  and  C_13
REMARK    8  A    between atoms: C_13  and  O_14
REMARK    9  A    between atoms: C_16  and  C_18
REMARK   10  A    between atoms: C_18  and  O_19
REMARK   11  A    between atoms: N_23  and  C_24
REMARK   12  A    between atoms: N_30  and  C_31
REMARK   13  A    between atoms: C_31  and  C_32
REMARK   14  A    between atoms: C_35  and  C_38
REMARK                            x       y       z     vdW  Elec       q    Type
REMARK                         _______ _______ _______ _____ _____    ______ ____
ROOT
ATOM      1  C   UNL     1       6.621   1.346  27.336  0.00  0.00    +0.234 C 
ATOM      2  N   UNL     1       6.424   2.011  26.151  0.00  0.00    -0.302 N 
ATOM      3  H   UNL     1       5.806   1.618  25.460  0.00  0.00    +0.150 HD
ATOM      4  O   UNL     1       7.120   1.883  28.329  0.00  0.00    -0.274 OA
ENDROOT
BRANCH   2   5
ATOM      5  C   UNL     1       6.671   3.441  25.917  0.00  0.00    +0.159 C 
ATOM      6  C   UNL     1       8.080   3.605  25.313  0.00  0.00    +0.236 C 
ATOM      7  O   UNL     1       8.715   4.653  25.395  0.00  0.00    -0.274 OA
ATOM      8  N   UNL     1       8.318   2.641  24.321  0.00  0.00    -0.296 N 
ATOM      9  C   UNL     1       8.228   3.108  22.948  0.00  0.00    +0.108 C 
ATOM     10  C   UNL     1       6.955   3.928  22.682  0.00  0.00    +0.019 C 
ATOM     11  C   UNL     1       5.728   3.473  23.485  0.00  0.00    +0.004 C 
ATOM     12  C   UNL     1       5.649   4.025  24.923  0.00  0.00    +0.032 C 
BRANCH   8  13
ATOM     13  C   UNL     1       9.208   1.526  24.618  0.00  0.00    +0.143 C 
BRANCH  13  14
ATOM     14  C   UNL     1       8.754   0.162  24.182  0.00  0.00    -0.030 A 
ATOM     15  C   UNL     1       9.381  -0.998  24.639  0.00  0.00    +0.006 A 
ATOM     16  C   UNL     1       9.004  -2.253  24.138  0.00  0.00    +0.009 A 
ATOM     17  C   UNL     1       7.971  -2.396  23.192  0.00  0.00    -0.018 A 
ATOM     18  C   UNL     1       7.339  -1.215  22.765  0.00  0.00    +0.009 A 
ATOM     19  C   UNL     1       7.722   0.040  23.245  0.00  0.00    +0.006 A 
BRANCH  17  20
ATOM     20  C   UNL     1       7.530  -3.725  22.695  0.00  0.00    -0.018 A 
ATOM     21  C   UNL     1       8.028  -4.920  23.246  0.00  0.00    +0.008 A 
ATOM     22  C   UNL     1       7.560  -6.172  22.833  0.00  0.00    +0.001 A 
ATOM     23  C   UNL     1       6.573  -6.262  21.858  0.00  0.00    +0.000 A 
ATOM     24  C   UNL     1       6.076  -5.102  21.277  0.00  0.00    +0.001 A 
ATOM     25  C   UNL     1       6.557  -3.852  21.682  0.00  0.00    +0.008 A 
ENDBRANCH  17  20
ENDBRANCH  13  14
ENDBRANCH   8  13
ENDBRANCH   2   5
BRANCH   1  26
ATOM     26  C   UNL     1       6.174  -0.155  27.363  0.00  0.00    +0.163 C 
BRANCH  26  29
ATOM     27  C   UNL     1       3.194   0.182  29.711  0.00  0.00    +0.109 C 
ATOM     28  C   UNL     1       3.990   0.352  28.448  0.00  0.00    +0.211 C 
ATOM     29  N   UNL     1       5.177  -0.340  28.431  0.00  0.00    -0.304 N 
ATOM     30  H   UNL     1       5.291  -1.154  29.029  0.00  0.00    +0.149 HD
ATOM     31  O   UNL     1       3.617   1.082  27.536  0.00  0.00    -0.276 OA
ENDBRANCH  26  29
BRANCH  26  32
ATOM     32  C   UNL     1       5.629  -0.657  26.003  0.00  0.00    +0.067 C 
BRANCH  32  33
ATOM     33  C   UNL     1       5.634  -2.160  25.766  0.00  0.00    -0.044 A 
ATOM     34  C   UNL     1       6.470  -3.046  26.463  0.00  0.00    +0.019 A 
ATOM     35  C   UNL     1       6.293  -4.435  26.395  0.00  0.00    +0.063 A 
ATOM     36  C   UNL     1       5.269  -4.968  25.595  0.00  0.00    -0.023 A 
ATOM     37  C   UNL     1       4.512  -4.084  24.804  0.00  0.00    +0.005 A 
ATOM     38  C   UNL     1       4.693  -2.699  24.886  0.00  0.00    +0.004 A 
BRANCH  35  39
ATOM     39  C   UNL     1       7.113  -5.288  27.297  0.00  0.00    +0.337 C 
ATOM     40  O   UNL     1       6.791  -5.496  28.457  0.00  0.00    -0.245 OA
BRANCH  39  41
ATOM     41  O   UNL     1       8.214  -5.816  26.731  0.00  0.00    -0.477 OA
ATOM     42  H   UNL     1       8.554  -6.635  27.135  0.00  0.00    +0.295 HD
ENDBRANCH  39  41
ENDBRANCH  35  39
BRANCH  36  43
ATOM     43  C   UNL     1       4.889  -6.430  25.603  0.00  0.00    +0.156 C 
BRANCH  43  44
ATOM     44  C   UNL     1       3.867  -6.769  26.669  0.00  0.00    +0.309 C 
ATOM     45  O   UNL     1       2.673  -6.518  26.560  0.00  0.00    -0.251 OA
BRANCH  44  46
ATOM     46  O   UNL     1       4.383  -7.343  27.779  0.00  0.00    -0.480 OA
ATOM     47  H   UNL     1       4.037  -6.957  28.624  0.00  0.00    +0.295 HD
ENDBRANCH  44  46
ENDBRANCH  43  44
ENDBRANCH  36  43
ENDBRANCH  32  33
ENDBRANCH  26  32
ENDBRANCH   1  26
TORSDOF 13
ENDMDL
MODEL 2
REMARK VINA RESULT:      -6.4      1.430      2.193
REMARK  Name = 
REMARK  14 active torsions:
REMARK  status: ('A' for Active; 'I' for Inactive)
REMARK    1  A    between atoms: C_1  and  C_2
REMARK    2  A    between atoms: N_4  and  C_5
REMARK    3  A    between atoms: C_5  and  C_7
REMARK    4  A    between atoms: C_5  and  C_21
REMARK    5  A    between atoms: C_7  and  C_8
REMARK    6  A    between atoms: C_11  and  C_12
REMARK    7  A    between atoms: C_12  and  C_13
REMARK    8  A    between atoms: C_13  and  O_14
REMARK    9  A    between atoms: C_16  and  C_18
REMARK   10  A    between atoms: C_18  and  O_19
REMARK   11  A    between atoms: N_23  and  C_24
REMARK   12  A    between atoms: N_30  and  C_31
REMARK   13  A    between atoms: C_31  and  C_32
REMARK   14  A    between atoms: C_35  and  C_38
REMARK                            x       y       z     vdW  Elec       q    Type
REMARK                         _______ _______ _______ _____ _____    ______ ____
ROOT
ATOM      1  C   UNL     1       7.194   2.594  27.297  0.00  0.00    +0.234 C 
ATOM      2  N   UNL     1       7.578   2.829  25.999  0.00  0.00    -0.302 N 
ATOM      3  H   UNL     1       7.342   2.160  25.284  0.00  0.00    +0.150 HD
ATOM      4  O   UNL     1       7.187   3.475  28.162  0.00  0.00    -0.274 OA
ENDROOT
BRANCH   2   5
ATOM      5  C   UNL     1       7.929   4.139  25.432  0.00  0.00    +0.159 C 
ATOM      6  C   UNL     1       9.060   3.941  24.403  0.00  0.00    +0.236 C 
ATOM      7  O   UNL     1       9.827   4.846  24.082  0.00  0.00    -0.274 OA
ATOM      8  N   UNL     1       8.812   2.824  23.589  0.00  0.00    -0.296 N 
ATOM      9  C   UNL     1       8.331   3.109  22.248  0.00  0.00    +0.108 C 
ATOM     10  C   UNL     1       7.171   4.119  22.236  0.00  0.00    +0.019 C 
ATOM     11  C   UNL     1       6.237   4.025  23.450  0.00  0.00    +0.004 C 
ATOM     12  C   UNL     1       6.725   4.771  24.708  0.00  0.00    +0.032 C 
BRANCH   8  13
ATOM     13  C   UNL     1       9.584   1.607  23.806  0.00  0.00    +0.143 C 
BRANCH  13  14
ATOM     14  C   UNL     1       8.902   0.307  23.489  0.00  0.00    -0.030 A 
ATOM     15  C   UNL     1       7.539   0.250  23.193  0.00  0.00    +0.006 A 
ATOM     16  C   UNL     1       6.906  -0.987  23.000  0.00  0.00    +0.009 A 
ATOM     17  C   UNL     1       7.615  -2.203  23.065  0.00  0.00    -0.018 A 
ATOM     18  C   UNL     1       8.990  -2.117  23.342  0.00  0.00    +0.009 A 
ATOM     19  C   UNL     1       9.623  -0.890  23.554  0.00  0.00    +0.006 A 
BRANCH  17  20
ATOM     20  C   UNL     1       6.963  -3.514  22.812  0.00  0.00    -0.018 A 
ATOM     21  C   UNL     1       7.718  -4.684  22.610  0.00  0.00    +0.008 A 
ATOM     22  C   UNL     1       7.108  -5.933  22.446  0.00  0.00    +0.001 A 
ATOM     23  C   UNL     1       5.723  -6.046  22.487  0.00  0.00    +0.000 A 
ATOM     24  C   UNL     1       4.948  -4.906  22.662  0.00  0.00    +0.001 A 
ATOM     25  C   UNL     1       5.560  -3.656  22.810  0.00  0.00    +0.008 A 
ENDBRANCH  17  20
ENDBRANCH  13  14
ENDBRANCH   8  13
ENDBRANCH   2   5
BRANCH   1  26
ATOM     26  C   UNL     1       6.759   1.126  27.628  0.00  0.00    +0.163 C 
BRANCH  26  29
ATOM     27  C   UNL     1       4.244   0.944  30.484  0.00  0.00    +0.109 C 
ATOM     28  C   UNL     1       5.586   1.094  29.826  0.00  0.00    +0.211 C 
ATOM     29  N   UNL     1       5.540   1.162  28.454  0.00  0.00    -0.304 N 
ATOM     30  H   UNL     1       4.684   1.463  27.997  0.00  0.00    +0.149 HD
ATOM     31  O   UNL     1       6.629   1.113  30.472  0.00  0.00    -0.276 OA
ENDBRANCH  26  29
BRANCH  26  32
ATOM     32  C   UNL     1       6.549   0.250  26.368  0.00  0.00    +0.067 C 
BRANCH  32  33
ATOM     33  C   UNL     1       6.448  -1.253  26.578  0.00  0.00    -0.044 A 
ATOM     34  C   UNL     1       5.226  -1.940  26.652  0.00  0.00    +0.019 A 
ATOM     35  C   UNL     1       5.163  -3.340  26.611  0.00  0.00    +0.063 A 
ATOM     36  C   UNL     1       6.348  -4.088  26.516  0.00  0.00    -0.023 A 
ATOM     37  C   UNL     1       7.576  -3.402  26.565  0.00  0.00    +0.005 A 
ATOM     38  C   UNL     1       7.626  -2.004  26.598  0.00  0.00    +0.004 A 
BRANCH  35  39
ATOM     39  C   UNL     1       3.820  -3.975  26.524  0.00  0.00    +0.337 C 
ATOM     40  O   UNL     1       3.312  -4.543  27.478  0.00  0.00    -0.245 OA
BRANCH  39  41
ATOM     41  O   UNL     1       3.215  -3.857  25.328  0.00  0.00    -0.477 OA
ATOM     42  H   UNL     1       3.528  -3.130  24.758  0.00  0.00    +0.295 HD
ENDBRANCH  39  41
ENDBRANCH  35  39
BRANCH  36  43
ATOM     43  C   UNL     1       6.367  -5.580  26.285  0.00  0.00    +0.156 C 
BRANCH  43  44
ATOM     44  C   UNL     1       6.178  -6.378  27.559  0.00  0.00    +0.309 C 
ATOM     45  O   UNL     1       6.958  -6.335  28.503  0.00  0.00    -0.251 OA
BRANCH  44  46
ATOM     46  O   UNL     1       5.087  -7.177  27.565  0.00  0.00    -0.480 OA
ATOM     47  H   UNL     1       4.602  -7.183  28.429  0.00  0.00    +0.295 HD
ENDBRANCH  44  46
ENDBRANCH  43  44
ENDBRANCH  36  43
ENDBRANCH  32  33
ENDBRANCH  26  32
ENDBRANCH   1  26
TORSDOF 13
ENDMDL
MODEL 3
REMARK VINA RESULT:      -6.4      1.046      2.151
REMARK  Name = 
REMARK  14 active torsions:
REMARK  status: ('A' for Active; 'I' for Inactive)
REMARK    1  A    between atoms: C_1  and  C_2
REMARK    2  A    between atoms: N_4  and  C_5
REMARK    3  A    between atoms: C_5  and  C_7
REMARK    4  A    between atoms: C_5  and  C_21
REMARK    5  A    between atoms: C_7  and  C_8
REMARK    6  A    between atoms: C_11  and  C_12
REMARK    7  A    between atoms: C_12  and  C_13
REMARK    8  A    between atoms: C_13  and  O_14
REMARK    9  A    between atoms: C_16  and  C_18
REMARK   10  A    between atoms: C_18  and  O_19
REMARK   11  A    between atoms: N_23  and  C_24
REMARK   12  A    between atoms: N_30  and  C_31
REMARK   13  A    between atoms: C_31  and  C_32
REMARK   14  A    between atoms: C_35  and  C_38
REMARK                            x       y       z     vdW  Elec       q    Type
REMARK                         _______ _______ _______ _____ _____    ______ ____
ROOT
ATOM      1  C   UNL     1       6.855   2.040  27.223  0.00  0.00    +0.234 C 
ATOM      2  N   UNL     1       7.016   2.462  25.926  0.00  0.00    -0.302 N 
ATOM      3  H   UNL     1       6.616   1.922  25.176  0.00  0.00    +0.150 HD
ATOM      4  O   UNL     1       7.056   2.774  28.195  0.00  0.00    -0.274 OA
ENDROOT
BRANCH   2   5
ATOM      5  C   UNL     1       7.340   3.832  25.503  0.00  0.00    +0.159 C 
ATOM      6  C   UNL     1       8.673   3.805  24.728  0.00  0.00    +0.236 C 
ATOM      7  O   UNL     1       9.392   4.795  24.617  0.00  0.00    -0.274 OA
ATOM      8  N   UNL     1       8.714   2.725  23.833  0.00  0.00    -0.296 N 
ATOM      9  C   UNL     1       8.493   3.050  22.435  0.00  0.00    +0.108 C 
ATOM     10  C   UNL     1       7.263   3.948  22.222  0.00  0.00    +0.019 C 
ATOM     11  C   UNL     1       6.113   3.692  23.206  0.00  0.00    +0.004 C 
ATOM     12  C   UNL     1       6.252   4.397  24.570  0.00  0.00    +0.032 C 
BRANCH   8  13
ATOM     13  C   UNL     1       9.546   1.572  24.154  0.00  0.00    +0.143 C 
BRANCH  13  14
ATOM     14  C   UNL     1       9.032   0.226  23.728  0.00  0.00    -0.030 A 
ATOM     15  C   UNL     1       7.872   0.096  22.962  0.00  0.00    +0.006 A 
ATOM     16  C   UNL     1       7.359  -1.175  22.663  0.00  0.00    +0.009 A 
ATOM     17  C   UNL     1       8.000  -2.355  23.088  0.00  0.00    -0.018 A 
ATOM     18  C   UNL     1       9.179  -2.197  23.838  0.00  0.00    +0.009 A 
ATOM     19  C   UNL     1       9.685  -0.934  24.156  0.00  0.00    +0.006 A 
BRANCH  17  20
ATOM     20  C   UNL     1       7.492  -3.705  22.732  0.00  0.00    -0.018 A 
ATOM     21  C   UNL     1       6.463  -3.880  21.789  0.00  0.00    +0.008 A 
ATOM     22  C   UNL     1       6.034  -5.152  21.396  0.00  0.00    +0.001 A 
ATOM     23  C   UNL     1       6.630  -6.288  21.933  0.00  0.00    +0.000 A 
ATOM     24  C   UNL     1       7.633  -6.150  22.885  0.00  0.00    +0.001 A 
ATOM     25  C   UNL     1       8.049  -4.876  23.287  0.00  0.00    +0.008 A 
ENDBRANCH  17  20
ENDBRANCH  13  14
ENDBRANCH   8  13
ENDBRANCH   2   5
BRANCH   1  26
ATOM     26  C   UNL     1       6.396   0.553  27.408  0.00  0.00    +0.163 C 
BRANCH  26  29
ATOM     27  C   UNL     1       2.662   1.098  27.928  0.00  0.00    +0.109 C 
ATOM     28  C   UNL     1       3.959   1.012  27.174  0.00  0.00    +0.211 C 
ATOM     29  N   UNL     1       5.014   0.536  27.915  0.00  0.00    -0.304 N 
ATOM     30  H   UNL     1       4.832  -0.040  28.733  0.00  0.00    +0.149 HD
ATOM     31  O   UNL     1       4.060   1.378  26.008  0.00  0.00    -0.276 OA
ENDBRANCH  26  29
BRANCH  26  32
ATOM     32  C   UNL     1       6.523  -0.293  26.117  0.00  0.00    +0.067 C 
BRANCH  32  33
ATOM     33  C   UNL     1       6.129  -1.759  26.207  0.00  0.00    -0.044 A 
ATOM     34  C   UNL     1       4.945  -2.274  25.657  0.00  0.00    +0.019 A 
ATOM     35  C   UNL     1       4.719  -3.653  25.550  0.00  0.00    +0.063 A 
ATOM     36  C   UNL     1       5.687  -4.556  26.022  0.00  0.00    -0.023 A 
ATOM     37  C   UNL     1       6.817  -4.038  26.681  0.00  0.00    +0.005 A 
ATOM     38  C   UNL     1       7.035  -2.659  26.775  0.00  0.00    +0.004 A 
BRANCH  35  39
ATOM     39  C   UNL     1       3.516  -4.107  24.802  0.00  0.00    +0.337 C 
ATOM     40  O   UNL     1       3.506  -4.186  23.583  0.00  0.00    -0.245 OA
BRANCH  39  41
ATOM     41  O   UNL     1       2.461  -4.435  25.570  0.00  0.00    -0.477 OA
ATOM     42  H   UNL     1       2.658  -4.953  26.372  0.00  0.00    +0.295 HD
ENDBRANCH  39  41
ENDBRANCH  35  39
BRANCH  36  43
ATOM     43  C   UNL     1       5.612  -6.046  25.785  0.00  0.00    +0.156 C 
BRANCH  43  44
ATOM     44  C   UNL     1       4.951  -6.792  26.926  0.00  0.00    +0.309 C 
ATOM     45  O   UNL     1       5.541  -7.114  27.951  0.00  0.00    -0.251 OA
BRANCH  44  46
ATOM     46  O   UNL     1       3.655  -7.111  26.713  0.00  0.00    -0.480 OA
ATOM     47  H   UNL     1       3.016  -6.476  27.125  0.00  0.00    +0.295 HD
ENDBRANCH  44  46
ENDBRANCH  43  44
ENDBRANCH  36  43
ENDBRANCH  32  33
ENDBRANCH  26  32
ENDBRANCH   1  26
TORSDOF 13
ENDMDL
MODEL 4
REMARK VINA RESULT:      -6.3      2.181      5.081
REMARK  Name = 
REMARK  14 active torsions:
REMARK  status: ('A' for Active; 'I' for Inactive)
REMARK    1  A    between atoms: C_1  and  C_2
REMARK    2  A    between atoms: N_4  and  C_5
REMARK    3  A    between atoms: C_5  and  C_7
REMARK    4  A    between atoms: C_5  and  C_21
REMARK    5  A    between atoms: C_7  and  C_8
REMARK    6  A    between atoms: C_11  and  C_12
REMARK    7  A    between atoms: C_12  and  C_13
REMARK    8  A    between atoms: C_13  and  O_14
REMARK    9  A    between atoms: C_16  and  C_18
REMARK   10  A    between atoms: C_18  and  O_19
REMARK   11  A    between atoms: N_23  and  C_24
REMARK   12  A    between atoms: N_30  and  C_31
REMARK   13  A    between atoms: C_31  and  C_32
REMARK   14  A    between atoms: C_35  and  C_38
REMARK                            x       y       z     vdW  Elec       q    Type
REMARK                         _______ _______ _______ _____ _____    ______ ____
ROOT
ATOM      1  C   UNL     1       7.740   1.254  22.802  0.00  0.00    +0.234 C 
ATOM      2  N   UNL     1       7.228   1.114  24.069  0.00  0.00    -0.302 N 
ATOM      3  H   UNL     1       7.843   0.864  24.826  0.00  0.00    +0.150 HD
ATOM      4  O   UNL     1       7.130   1.826  21.894  0.00  0.00    -0.274 OA
ENDROOT
BRANCH   2   5
ATOM      5  C   UNL     1       5.966   1.693  24.554  0.00  0.00    +0.159 C 
ATOM      6  C   UNL     1       5.453   0.837  25.729  0.00  0.00    +0.236 C 
ATOM      7  O   UNL     1       4.270   0.809  26.058  0.00  0.00    -0.274 OA
ATOM      8  N   UNL     1       6.499   0.503  26.604  0.00  0.00    -0.296 N 
ATOM      9  C   UNL     1       6.556   1.259  27.843  0.00  0.00    +0.108 C 
ATOM     10  C   UNL     1       6.435   2.775  27.619  0.00  0.00    +0.019 C 
ATOM     11  C   UNL     1       7.066   3.275  26.312  0.00  0.00    +0.004 C 
ATOM     12  C   UNL     1       6.175   3.132  25.061  0.00  0.00    +0.032 C 
BRANCH   8  13
ATOM     13  C   UNL     1       7.017  -0.859  26.597  0.00  0.00    +0.143 C 
BRANCH  13  14
ATOM     14  C   UNL     1       6.049  -1.951  26.239  0.00  0.00    -0.030 A 
ATOM     15  C   UNL     1       5.690  -2.939  27.157  0.00  0.00    +0.006 A 
ATOM     16  C   UNL     1       4.864  -4.004  26.766  0.00  0.00    +0.009 A 
ATOM     17  C   UNL     1       4.344  -4.101  25.461  0.00  0.00    -0.018 A 
ATOM     18  C   UNL     1       4.702  -3.081  24.562  0.00  0.00    +0.009 A 
ATOM     19  C   UNL     1       5.540  -2.029  24.938  0.00  0.00    +0.006 A 
BRANCH  17  20
ATOM     20  C   UNL     1       3.427  -5.197  25.053  0.00  0.00    -0.018 A 
ATOM     21  C   UNL     1       2.203  -4.932  24.412  0.00  0.00    +0.008 A 
ATOM     22  C   UNL     1       1.372  -5.962  23.959  0.00  0.00    +0.001 A 
ATOM     23  C   UNL     1       1.748  -7.290  24.129  0.00  0.00    +0.000 A 
ATOM     24  C   UNL     1       2.940  -7.586  24.779  0.00  0.00    +0.001 A 
ATOM     25  C   UNL     1       3.762  -6.553  25.245  0.00  0.00    +0.008 A 
ENDBRANCH  17  20
ENDBRANCH  13  14
ENDBRANCH   8  13
ENDBRANCH   2   5
BRANCH   1  26
ATOM     26  C   UNL     1       9.160   0.638  22.564  0.00  0.00    +0.163 C 
BRANCH  26  29
ATOM     27  C   UNL     1      11.274   3.751  23.154  0.00  0.00    +0.109 C 
ATOM     28  C   UNL     1      10.389   2.590  23.506  0.00  0.00    +0.211 C 
ATOM     29  N   UNL     1      10.146   1.727  22.464  0.00  0.00    -0.304 N 
ATOM     30  H   UNL     1      10.800   1.685  21.687  0.00  0.00    +0.149 HD
ATOM     31  O   UNL     1       9.900   2.459  24.623  0.00  0.00    -0.276 OA
ENDBRANCH  26  29
BRANCH  26  32
ATOM     32  C   UNL     1       9.575  -0.385  23.651  0.00  0.00    +0.067 C 
BRANCH  32  33
ATOM     33  C   UNL     1       9.103  -1.820  23.469  0.00  0.00    -0.044 A 
ATOM     34  C   UNL     1       9.385  -2.845  24.385  0.00  0.00    +0.019 A 
ATOM     35  C   UNL     1       8.749  -4.093  24.316  0.00  0.00    +0.063 A 
ATOM     36  C   UNL     1       7.818  -4.343  23.294  0.00  0.00    -0.023 A 
ATOM     37  C   UNL     1       7.628  -3.358  22.308  0.00  0.00    +0.005 A 
ATOM     38  C   UNL     1       8.263  -2.114  22.392  0.00  0.00    +0.004 A 
BRANCH  35  39
ATOM     39  C   UNL     1       8.982  -5.057  25.424  0.00  0.00    +0.337 C 
ATOM     40  O   UNL     1       8.371  -4.986  26.480  0.00  0.00    -0.245 OA
BRANCH  39  41
ATOM     41  O   UNL     1       9.896  -6.010  25.164  0.00  0.00    -0.477 OA
ATOM     42  H   UNL     1      10.588  -5.776  24.518  0.00  0.00    +0.295 HD
ENDBRANCH  39  41
ENDBRANCH  35  39
BRANCH  36  43
ATOM     43  C   UNL     1       6.956  -5.582  23.248  0.00  0.00    +0.156 C 
BRANCH  43  44
ATOM     44  C   UNL     1       6.201  -5.727  21.942  0.00  0.00    +0.309 C 
ATOM     45  O   UNL     1       6.739  -6.028  20.883  0.00  0.00    -0.251 OA
BRANCH  44  46
ATOM     46  O   UNL     1       4.878  -5.462  22.025  0.00  0.00    -0.480 OA
ATOM     47  H   UNL     1       4.391  -5.594  21.172  0.00  0.00    +0.295 HD
ENDBRANCH  44  46
ENDBRANCH  43  44
ENDBRANCH  36  43
ENDBRANCH  32  33
ENDBRANCH  26  32
ENDBRANCH   1  26
TORSDOF 13
ENDMDL
MODEL 5
REMARK VINA RESULT:      -6.3      2.851      8.956
REMARK  Name = 
REMARK  14 active torsions:
REMARK  status: ('A' for Active; 'I' for Inactive)
REMARK    1  A    between atoms: C_1  and  C_2
REMARK    2  A    between atoms: N_4  and  C_5
REMARK    3  A    between atoms: C_5  and  C_7
REMARK    4  A    between atoms: C_5  and  C_21
REMARK    5  A    between atoms: C_7  and  C_8
REMARK    6  A    between atoms: C_11  and  C_12
REMARK    7  A    between atoms: C_12  and  C_13
REMARK    8  A    between atoms: C_13  and  O_14
REMARK    9  A    between atoms: C_16  and  C_18
REMARK   10  A    between atoms: C_18  and  O_19
REMARK   11  A    between atoms: N_23  and  C_24
REMARK   12  A    between atoms: N_30  and  C_31
REMARK   13  A    between atoms: C_31  and  C_32
REMARK   14  A    between atoms: C_35  and  C_38
REMARK                            x       y       z     vdW  Elec       q    Type
REMARK                         _______ _______ _______ _____ _____    ______ ____
ROOT
ATOM      1  C   UNL     1       8.501  -0.986  22.612  0.00  0.00    +0.234 C 
ATOM      2  N   UNL     1       7.672  -2.004  23.014  0.00  0.00    -0.302 N 
ATOM      3  H   UNL     1       6.772  -1.783  23.408  0.00  0.00    +0.150 HD
ATOM      4  O   UNL     1       9.473  -1.168  21.873  0.00  0.00    -0.274 OA
ENDROOT
BRANCH   2   5
ATOM      5  C   UNL     1       7.745  -3.401  22.562  0.00  0.00    +0.159 C 
ATOM      6  C   UNL     1       7.973  -4.304  23.791  0.00  0.00    +0.236 C 
ATOM      7  O   UNL     1       8.476  -5.422  23.705  0.00  0.00    -0.274 OA
ATOM      8  N   UNL     1       7.153  -3.915  24.862  0.00  0.00    -0.296 N 
ATOM      9  C   UNL     1       5.985  -4.745  25.103  0.00  0.00    +0.108 C 
ATOM     10  C   UNL     1       5.186  -5.031  23.820  0.00  0.00    +0.019 C 
ATOM     11  C   UNL     1       5.192  -3.884  22.800  0.00  0.00    +0.004 C 
ATOM     12  C   UNL     1       6.432  -3.833  21.883  0.00  0.00    +0.032 C 
BRANCH   8  13
ATOM     13  C   UNL     1       7.751  -3.215  25.991  0.00  0.00    +0.143 C 
BRANCH  13  14
ATOM     14  C   UNL     1       7.290  -1.806  26.236  0.00  0.00    -0.030 A 
ATOM     15  C   UNL     1       6.007  -1.385  25.883  0.00  0.00    +0.006 A 
ATOM     16  C   UNL     1       5.636  -0.040  26.030  0.00  0.00    +0.009 A 
ATOM     17  C   UNL     1       6.518   0.921  26.561  0.00  0.00    -0.018 A 
ATOM     18  C   UNL     1       7.797   0.467  26.930  0.00  0.00    +0.009 A 
ATOM     19  C   UNL     1       8.179  -0.866  26.769  0.00  0.00    +0.006 A 
BRANCH  17  20
ATOM     20  C   UNL     1       6.117   2.337  26.767  0.00  0.00    -0.018 A 
ATOM     21  C   UNL     1       4.819   2.680  27.188  0.00  0.00    +0.008 A 
ATOM     22  C   UNL     1       4.460   4.005  27.457  0.00  0.00    +0.001 A 
ATOM     23  C   UNL     1       5.394   5.025  27.316  0.00  0.00    +0.000 A 
ATOM     24  C   UNL     1       6.678   4.723  26.879  0.00  0.00    +0.001 A 
ATOM     25  C   UNL     1       7.030   3.398  26.597  0.00  0.00    +0.008 A 
ENDBRANCH  17  20
ENDBRANCH  13  14
ENDBRANCH   8  13
ENDBRANCH   2   5
BRANCH   1  26
ATOM     26  C   UNL     1       8.147   0.441  23.150  0.00  0.00    +0.163 C 
BRANCH  26  29
ATOM     27  C   UNL     1      11.161   2.765  23.307  0.00  0.00    +0.109 C 
ATOM     28  C   UNL     1      10.239   1.659  23.737  0.00  0.00    +0.211 C 
ATOM     29  N   UNL     1       9.249   1.363  22.831  0.00  0.00    -0.304 N 
ATOM     30  H   UNL     1       9.383   1.597  21.850  0.00  0.00    +0.149 HD
ATOM     31  O   UNL     1      10.349   1.106  24.826  0.00  0.00    -0.276 OA
ENDBRANCH  26  29
BRANCH  26  32
ATOM     32  C   UNL     1       6.799   0.982  22.611  0.00  0.00    +0.067 C 
BRANCH  32  33
ATOM     33  C   UNL     1       6.411   2.398  23.008  0.00  0.00    -0.044 A 
ATOM     34  C   UNL     1       7.236   3.512  22.787  0.00  0.00    +0.019 A 
ATOM     35  C   UNL     1       6.764   4.823  22.946  0.00  0.00    +0.063 A 
ATOM     36  C   UNL     1       5.439   5.041  23.358  0.00  0.00    -0.023 A 
ATOM     37  C   UNL     1       4.653   3.923  23.696  0.00  0.00    +0.005 A 
ATOM     38  C   UNL     1       5.133   2.620  23.525  0.00  0.00    +0.004 A 
BRANCH  35  39
ATOM     39  C   UNL     1       7.653   5.940  22.527  0.00  0.00    +0.337 C 
ATOM     40  O   UNL     1       8.470   6.434  23.289  0.00  0.00    -0.245 OA
BRANCH  39  41
ATOM     41  O   UNL     1       7.497   6.341  21.252  0.00  0.00    -0.477 OA
ATOM     42  H   UNL     1       7.126   5.682  20.637  0.00  0.00    +0.295 HD
ENDBRANCH  39  41
ENDBRANCH  35  39
BRANCH  36  43
ATOM     43  C   UNL     1       4.794   6.406  23.380  0.00  0.00    +0.156 C 
BRANCH  43  44
ATOM     44  C   UNL     1       3.938   6.674  22.158  0.00  0.00    +0.309 C 
ATOM     45  O   UNL     1       2.727   6.497  22.133  0.00  0.00    -0.251 OA
BRANCH  44  46
ATOM     46  O   UNL     1       4.625   7.095  21.073  0.00  0.00    -0.480 OA
ATOM     47  H   UNL     1       4.461   8.044  20.841  0.00  0.00    +0.295 HD
ENDBRANCH  44  46
ENDBRANCH  43  44
ENDBRANCH  36  43
ENDBRANCH  32  33
ENDBRANCH  26  32
ENDBRANCH   1  26
TORSDOF 13
ENDMDL
MODEL 6
REMARK VINA RESULT:      -6.3      2.581      7.979
REMARK  Name = 
REMARK  14 active torsions:
REMARK  status: ('A' for Active; 'I' for Inactive)
REMARK    1  A    between atoms: C_1  and  C_2
REMARK    2  A    between atoms: N_4  and  C_5
REMARK    3  A    between atoms: C_5  and  C_7
REMARK    4  A    between atoms: C_5  and  C_21
REMARK    5  A    between atoms: C_7  and  C_8
REMARK    6  A    between atoms: C_11  and  C_12
REMARK    7  A    between atoms: C_12  and  C_13
REMARK    8  A    between atoms: C_13  and  O_14
REMARK    9  A    between atoms: C_16  and  C_18
REMARK   10  A    between atoms: C_18  and  O_19
REMARK   11  A    between atoms: N_23  and  C_24
REMARK   12  A    between atoms: N_30  and  C_31
REMARK   13  A    between atoms: C_31  and  C_32
REMARK   14  A    between atoms: C_35  and  C_38
REMARK                            x       y       z     vdW  Elec       q    Type
REMARK                         _______ _______ _______ _____ _____    ______ ____
ROOT
ATOM      1  C   UNL     1       4.711  -1.723  26.046  0.00  0.00    +0.234 C 
ATOM      2  N   UNL     1       5.955  -2.260  25.823  0.00  0.00    -0.302 N 
ATOM      3  H   UNL     1       6.753  -1.873  26.300  0.00  0.00    +0.150 HD
ATOM      4  O   UNL     1       3.666  -2.304  25.736  0.00  0.00    -0.274 OA
ENDROOT
BRANCH   2   5
ATOM      5  C   UNL     1       6.228  -3.604  25.295  0.00  0.00    +0.159 C 
ATOM      6  C   UNL     1       6.656  -3.476  23.820  0.00  0.00    +0.236 C 
ATOM      7  O   UNL     1       6.548  -4.400  23.018  0.00  0.00    -0.274 OA
ATOM      8  N   UNL     1       7.560  -2.415  23.648  0.00  0.00    -0.296 N 
ATOM      9  C   UNL     1       8.955  -2.788  23.492  0.00  0.00    +0.108 C 
ATOM     10  C   UNL     1       9.422  -3.796  24.555  0.00  0.00    +0.019 C 
ATOM     11  C   UNL     1       8.758  -3.622  25.929  0.00  0.00    +0.004 C 
ATOM     12  C   UNL     1       7.372  -4.283  26.072  0.00  0.00    +0.032 C 
BRANCH   8  13
ATOM     13  C   UNL     1       7.095  -1.186  23.016  0.00  0.00    +0.143 C 
BRANCH  13  14
ATOM     14  C   UNL     1       7.972   0.024  23.163  0.00  0.00    -0.030 A 
ATOM     15  C   UNL     1       8.870   0.152  24.225  0.00  0.00    +0.006 A 
ATOM     16  C   UNL     1       9.603   1.336  24.395  0.00  0.00    +0.009 A 
ATOM     17  C   UNL     1       9.491   2.415  23.498  0.00  0.00    -0.018 A 
ATOM     18  C   UNL     1       8.597   2.253  22.425  0.00  0.00    +0.009 A 
ATOM     19  C   UNL     1       7.849   1.085  22.260  0.00  0.00    +0.006 A 
BRANCH  17  20
ATOM     20  C   UNL     1      10.302   3.653  23.642  0.00  0.00    -0.018 A 
ATOM     21  C   UNL     1      11.668   3.680  23.307  0.00  0.00    +0.008 A 
ATOM     22  C   UNL     1      12.416   4.860  23.369  0.00  0.00    +0.001 A 
ATOM     23  C   UNL     1      11.814   6.051  23.762  0.00  0.00    +0.000 A 
ATOM     24  C   UNL     1      10.472   6.053  24.122  0.00  0.00    +0.001 A 
ATOM     25  C   UNL     1       9.730   4.867  24.074  0.00  0.00    +0.008 A 
ENDBRANCH  17  20
ENDBRANCH  13  14
ENDBRANCH   8  13
ENDBRANCH   2   5
BRANCH   1  26
ATOM     26  C   UNL     1       4.684  -0.311  26.724  0.00  0.00    +0.163 C 
BRANCH  26  29
ATOM     27  C   UNL     1       3.519   0.260  30.306  0.00  0.00    +0.109 C 
ATOM     28  C   UNL     1       3.627   0.505  28.827  0.00  0.00    +0.211 C 
ATOM     29  N   UNL     1       4.318  -0.466  28.142  0.00  0.00    -0.304 N 
ATOM     30  H   UNL     1       4.392  -1.400  28.536  0.00  0.00    +0.149 HD
ATOM     31  O   UNL     1       3.166   1.511  28.299  0.00  0.00    -0.276 OA
ENDBRANCH  26  29
BRANCH  26  32
ATOM     32  C   UNL     1       6.017   0.465  26.578  0.00  0.00    +0.067 C 
BRANCH  32  33
ATOM     33  C   UNL     1       6.004   1.705  25.697  0.00  0.00    -0.044 A 
ATOM     34  C   UNL     1       5.136   1.865  24.606  0.00  0.00    +0.019 A 
ATOM     35  C   UNL     1       4.982   3.100  23.960  0.00  0.00    +0.063 A 
ATOM     36  C   UNL     1       5.728   4.209  24.392  0.00  0.00    -0.023 A 
ATOM     37  C   UNL     1       6.685   4.015  25.405  0.00  0.00    +0.005 A 
ATOM     38  C   UNL     1       6.823   2.781  26.048  0.00  0.00    +0.004 A 
BRANCH  35  39
ATOM     39  C   UNL     1       3.919   3.219  22.927  0.00  0.00    +0.337 C 
ATOM     40  O   UNL     1       2.735   3.092  23.202  0.00  0.00    -0.245 OA
BRANCH  39  41
ATOM     41  O   UNL     1       4.362   3.491  21.685  0.00  0.00    -0.477 OA
ATOM     42  H   UNL     1       5.288   3.787  21.615  0.00  0.00    +0.295 HD
ENDBRANCH  39  41
ENDBRANCH  35  39
BRANCH  36  43
ATOM     43  C   UNL     1       5.497   5.611  23.880  0.00  0.00    +0.156 C 
BRANCH  43  44
ATOM     44  C   UNL     1       6.553   6.059  22.890  0.00  0.00    +0.309 C 
ATOM     45  O   UNL     1       7.177   7.108  22.998  0.00  0.00    -0.251 OA
BRANCH  44  46
ATOM     46  O   UNL     1       6.735   5.221  21.844  0.00  0.00    -0.480 OA
ATOM     47  H   UNL     1       5.968   4.614  21.683  0.00  0.00    +0.295 HD
ENDBRANCH  44  46
ENDBRANCH  43  44
ENDBRANCH  36  43
ENDBRANCH  32  33
ENDBRANCH  26  32
ENDBRANCH   1  26
TORSDOF 13
ENDMDL
MODEL 7
REMARK VINA RESULT:      -6.1      3.239      6.972
REMARK  Name = 
REMARK  14 active torsions:
REMARK  status: ('A' for Active; 'I' for Inactive)
REMARK    1  A    between atoms: C_1  and  C_2
REMARK    2  A    between atoms: N_4  and  C_5
REMARK    3  A    between atoms: C_5  and  C_7
REMARK    4  A    between atoms: C_5  and  C_21
REMARK    5  A    between atoms: C_7  and  C_8
REMARK    6  A    between atoms: C_11  and  C_12
REMARK    7  A    between atoms: C_12  and  C_13
REMARK    8  A    between atoms: C_13  and  O_14
REMARK    9  A    between atoms: C_16  and  C_18
REMARK   10  A    between atoms: C_18  and  O_19
REMARK   11  A    between atoms: N_23  and  C_24
REMARK   12  A    between atoms: N_30  and  C_31
REMARK   13  A    between atoms: C_31  and  C_32
REMARK   14  A    between atoms: C_35  and  C_38
REMARK                            x       y       z     vdW  Elec       q    Type
REMARK                         _______ _______ _______ _____ _____    ______ ____
ROOT
ATOM      1  C   UNL     1       5.946  -5.451  22.891  0.00  0.00    +0.234 C 
ATOM      2  N   UNL     1       6.771  -4.622  23.610  0.00  0.00    -0.302 N 
ATOM      3  H   UNL     1       6.380  -4.042  24.334  0.00  0.00    +0.150 HD
ATOM      4  O   UNL     1       6.370  -6.384  22.201  0.00  0.00    -0.274 OA
ENDROOT
BRANCH   2   5
ATOM      5  C   UNL     1       8.227  -4.771  23.751  0.00  0.00    +0.159 C 
ATOM      6  C   UNL     1       8.846  -3.375  23.960  0.00  0.00    +0.236 C 
ATOM      7  O   UNL     1      10.020  -3.127  23.699  0.00  0.00    -0.274 OA
ATOM      8  N   UNL     1       8.088  -2.617  24.867  0.00  0.00    -0.296 N 
ATOM      9  C   UNL     1       8.633  -2.501  26.208  0.00  0.00    +0.108 C 
ATOM     10  C   UNL     1       9.071  -3.856  26.790  0.00  0.00    +0.019 C 
ATOM     11  C   UNL     1       8.208  -5.045  26.345  0.00  0.00    +0.004 C 
ATOM     12  C   UNL     1       8.579  -5.641  24.972  0.00  0.00    +0.032 C 
BRANCH   8  13
ATOM     13  C   UNL     1       7.255  -1.534  24.360  0.00  0.00    +0.143 C 
BRANCH  13  14
ATOM     14  C   UNL     1       7.919  -0.200  24.170  0.00  0.00    -0.030 A 
ATOM     15  C   UNL     1       8.861   0.010  23.162  0.00  0.00    +0.006 A 
ATOM     16  C   UNL     1       9.541   1.234  23.070  0.00  0.00    +0.009 A 
ATOM     17  C   UNL     1       9.282   2.296  23.958  0.00  0.00    -0.018 A 
ATOM     18  C   UNL     1       8.312   2.067  24.950  0.00  0.00    +0.009 A 
ATOM     19  C   UNL     1       7.646   0.845  25.059  0.00  0.00    +0.006 A 
BRANCH  17  20
ATOM     20  C   UNL     1       9.959   3.614  23.836  0.00  0.00    -0.018 A 
ATOM     21  C   UNL     1       9.314   4.809  24.201  0.00  0.00    +0.008 A 
ATOM     22  C   UNL     1       9.974   6.043  24.159  0.00  0.00    +0.001 A 
ATOM     23  C   UNL     1      11.303   6.112  23.757  0.00  0.00    +0.000 A 
ATOM     24  C   UNL     1      11.962   4.952  23.368  0.00  0.00    +0.001 A 
ATOM     25  C   UNL     1      11.295   3.722  23.396  0.00  0.00    +0.008 A 
ENDBRANCH  17  20
ENDBRANCH  13  14
ENDBRANCH   8  13
ENDBRANCH   2   5
BRANCH   1  26
ATOM     26  C   UNL     1       4.412  -5.148  22.990  0.00  0.00    +0.163 C 
BRANCH  26  29
ATOM     27  C   UNL     1       1.724  -7.825  23.326  0.00  0.00    +0.109 C 
ATOM     28  C   UNL     1       2.322  -6.502  22.940  0.00  0.00    +0.211 C 
ATOM     29  N   UNL     1       3.680  -6.416  23.135  0.00  0.00    -0.304 N 
ATOM     30  H   UNL     1       4.236  -7.267  23.162  0.00  0.00    +0.149 HD
ATOM     31  O   UNL     1       1.636  -5.573  22.526  0.00  0.00    -0.276 OA
ENDBRANCH  26  29
BRANCH  26  32
ATOM     32  C   UNL     1       4.054  -4.167  24.134  0.00  0.00    +0.067 C 
BRANCH  32  33
ATOM     33  C   UNL     1       3.697  -4.775  25.482  0.00  0.00    -0.044 A 
ATOM     34  C   UNL     1       4.631  -5.419  26.307  0.00  0.00    +0.019 A 
ATOM     35  C   UNL     1       4.332  -5.761  27.634  0.00  0.00    +0.063 A 
ATOM     36  C   UNL     1       3.060  -5.475  28.156  0.00  0.00    -0.023 A 
ATOM     37  C   UNL     1       2.088  -4.940  27.290  0.00  0.00    +0.005 A 
ATOM     38  C   UNL     1       2.401  -4.596  25.971  0.00  0.00    +0.004 A 
BRANCH  35  39
ATOM     39  C   UNL     1       5.434  -6.286  28.484  0.00  0.00    +0.337 C 
ATOM     40  O   UNL     1       6.226  -5.543  29.044  0.00  0.00    -0.245 OA
BRANCH  39  41
ATOM     41  O   UNL     1       5.474  -7.626  28.597  0.00  0.00    -0.477 OA
ATOM     42  H   UNL     1       5.836  -7.976  29.431  0.00  0.00    +0.295 HD
ENDBRANCH  39  41
ENDBRANCH  35  39
BRANCH  36  43
ATOM     43  C   UNL     1       2.710  -5.639  29.616  0.00  0.00    +0.156 C 
BRANCH  43  44
ATOM     44  C   UNL     1       2.204  -7.028  29.949  0.00  0.00    +0.309 C 
ATOM     45  O   UNL     1       2.930  -7.933  30.344  0.00  0.00    -0.251 OA
BRANCH  44  46
ATOM     46  O   UNL     1       0.880  -7.209  29.741  0.00  0.00    -0.480 OA
ATOM     47  H   UNL     1       0.426  -6.416  29.357  0.00  0.00    +0.295 HD
ENDBRANCH  44  46
ENDBRANCH  43  44
ENDBRANCH  36  43
ENDBRANCH  32  33
ENDBRANCH  26  32
ENDBRANCH   1  26
TORSDOF 13
ENDMDL
MODEL 8
REMARK VINA RESULT:      -5.9      2.064      3.221
REMARK  Name = 
REMARK  14 active torsions:
REMARK  status: ('A' for Active; 'I' for Inactive)
REMARK    1  A    between atoms: C_1  and  C_2
REMARK    2  A    between atoms: N_4  and  C_5
REMARK    3  A    between atoms: C_5  and  C_7
REMARK    4  A    between atoms: C_5  and  C_21
REMARK    5  A    between atoms: C_7  and  C_8
REMARK    6  A    between atoms: C_11  and  C_12
REMARK    7  A    between atoms: C_12  and  C_13
REMARK    8  A    between atoms: C_13  and  O_14
REMARK    9  A    between atoms: C_16  and  C_18
REMARK   10  A    between atoms: C_18  and  O_19
REMARK   11  A    between atoms: N_23  and  C_24
REMARK   12  A    between atoms: N_30  and  C_31
REMARK   13  A    between atoms: C_31  and  C_32
REMARK   14  A    between atoms: C_35  and  C_38
REMARK                            x       y       z     vdW  Elec       q    Type
REMARK                         _______ _______ _______ _____ _____    ______ ____
ROOT
ATOM      1  C   UNL     1       7.431   0.544  26.551  0.00  0.00    +0.234 C 
ATOM      2  N   UNL     1       8.221   0.118  25.511  0.00  0.00    -0.302 N 
ATOM      3  H   UNL     1       7.956  -0.703  24.992  0.00  0.00    +0.150 HD
ATOM      4  O   UNL     1       7.523   1.674  27.040  0.00  0.00    -0.274 OA
ENDROOT
BRANCH   2   5
ATOM      5  C   UNL     1       9.192   0.942  24.776  0.00  0.00    +0.159 C 
ATOM      6  C   UNL     1      10.196   0.009  24.072  0.00  0.00    +0.236 C 
ATOM      7  O   UNL     1      11.321   0.376  23.743  0.00  0.00    -0.274 OA
ATOM      8  N   UNL     1       9.539  -1.076  23.469  0.00  0.00    -0.296 N 
ATOM      9  C   UNL     1       9.376  -0.998  22.027  0.00  0.00    +0.108 C 
ATOM     10  C   UNL     1       8.822   0.360  21.565  0.00  0.00    +0.019 C 
ATOM     11  C   UNL     1       7.838   1.011  22.547  0.00  0.00    +0.004 C 
ATOM     12  C   UNL     1       8.493   1.796  23.702  0.00  0.00    +0.032 C 
BRANCH   8  13
ATOM     13  C   UNL     1       9.635  -2.392  24.087  0.00  0.00    +0.143 C 
BRANCH  13  14
ATOM     14  C   UNL     1       8.423  -3.275  23.992  0.00  0.00    -0.030 A 
ATOM     15  C   UNL     1       7.313  -2.913  23.228  0.00  0.00    +0.006 A 
ATOM     16  C   UNL     1       6.156  -3.706  23.237  0.00  0.00    +0.009 A 
ATOM     17  C   UNL     1       6.078  -4.899  23.982  0.00  0.00    -0.018 A 
ATOM     18  C   UNL     1       7.218  -5.254  24.725  0.00  0.00    +0.009 A 
ATOM     19  C   UNL     1       8.366  -4.459  24.736  0.00  0.00    +0.006 A 
BRANCH  17  20
ATOM     20  C   UNL     1       4.876  -5.772  23.957  0.00  0.00    -0.018 A 
ATOM     21  C   UNL     1       4.666  -6.764  24.932  0.00  0.00    +0.008 A 
ATOM     22  C   UNL     1       3.500  -7.536  24.957  0.00  0.00    +0.001 A 
ATOM     23  C   UNL     1       2.505  -7.331  24.007  0.00  0.00    +0.000 A 
ATOM     24  C   UNL     1       2.691  -6.375  23.016  0.00  0.00    +0.001 A 
ATOM     25  C   UNL     1       3.866  -5.615  22.985  0.00  0.00    +0.008 A 
ENDBRANCH  17  20
ENDBRANCH  13  14
ENDBRANCH   8  13
ENDBRANCH   2   5
BRANCH   1  26
ATOM     26  C   UNL     1       6.392  -0.494  27.093  0.00  0.00    +0.163 C 
BRANCH  26  29
ATOM     27  C   UNL     1       3.142   0.953  28.454  0.00  0.00    +0.109 C 
ATOM     28  C   UNL     1       4.561   0.461  28.487  0.00  0.00    +0.211 C 
ATOM     29  N   UNL     1       5.087   0.169  27.251  0.00  0.00    -0.304 N 
ATOM     30  H   UNL     1       4.692   0.607  26.423  0.00  0.00    +0.149 HD
ATOM     31  O   UNL     1       5.171   0.300  29.539  0.00  0.00    -0.276 OA
ENDBRANCH  26  29
BRANCH  26  32
ATOM     32  C   UNL     1       6.267  -1.758  26.206  0.00  0.00    +0.067 C 
BRANCH  32  33
ATOM     33  C   UNL     1       5.397  -2.890  26.729  0.00  0.00    -0.044 A 
ATOM     34  C   UNL     1       5.894  -3.947  27.507  0.00  0.00    +0.019 A 
ATOM     35  C   UNL     1       5.041  -4.842  28.167  0.00  0.00    +0.063 A 
ATOM     36  C   UNL     1       3.649  -4.702  28.037  0.00  0.00    -0.023 A 
ATOM     37  C   UNL     1       3.157  -3.717  27.160  0.00  0.00    +0.005 A 
ATOM     38  C   UNL     1       4.018  -2.825  26.513  0.00  0.00    +0.004 A 
BRANCH  35  39
ATOM     39  C   UNL     1       5.650  -5.824  29.104  0.00  0.00    +0.337 C 
ATOM     40  O   UNL     1       6.071  -5.493  30.202  0.00  0.00    -0.245 OA
BRANCH  39  41
ATOM     41  O   UNL     1       5.682  -7.092  28.654  0.00  0.00    -0.477 OA
ATOM     42  H   UNL     1       5.727  -7.203  27.686  0.00  0.00    +0.295 HD
ENDBRANCH  39  41
ENDBRANCH  35  39
BRANCH  36  43
ATOM     43  C   UNL     1       2.658  -5.500  28.851  0.00  0.00    +0.156 C 
BRANCH  43  44
ATOM     44  C   UNL     1       2.093  -6.686  28.094  0.00  0.00    +0.309 C 
ATOM     45  O   UNL     1       1.148  -6.601  27.319  0.00  0.00    -0.251 OA
BRANCH  44  46
ATOM     46  O   UNL     1       2.694  -7.866  28.369  0.00  0.00    -0.480 OA
ATOM     47  H   UNL     1       3.548  -7.999  27.885  0.00  0.00    +0.295 HD
ENDBRANCH  44  46
ENDBRANCH  43  44
ENDBRANCH  36  43
ENDBRANCH  32  33
ENDBRANCH  26  32
ENDBRANCH   1  26
TORSDOF 13
ENDMDL
MODEL 9
REMARK VINA RESULT:      -5.8      2.595      7.449
REMARK  Name = 
REMARK  14 active torsions:
REMARK  status: ('A' for Active; 'I' for Inactive)
REMARK    1  A    between atoms: C_1  and  C_2
REMARK    2  A    between atoms: N_4  and  C_5
REMARK    3  A    between atoms: C_5  and  C_7
REMARK    4  A    between atoms: C_5  and  C_21
REMARK    5  A    between atoms: C_7  and  C_8
REMARK    6  A    between atoms: C_11  and  C_12
REMARK    7  A    between atoms: C_12  and  C_13
REMARK    8  A    between atoms: C_13  and  O_14
REMARK    9  A    between atoms: C_16  and  C_18
REMARK   10  A    between atoms: C_18  and  O_19
REMARK   11  A    between atoms: N_23  and  C_24
REMARK   12  A    between atoms: N_30  and  C_31
REMARK   13  A    between atoms: C_31  and  C_32
REMARK   14  A    between atoms: C_35  and  C_38
REMARK                            x       y       z     vdW  Elec       q    Type
REMARK                         _______ _______ _______ _____ _____    ______ ____
ROOT
ATOM      1  C   UNL     1       3.155  -1.905  27.786  0.00  0.00    +0.234 C 
ATOM      2  N   UNL     1       3.729  -3.097  28.153  0.00  0.00    -0.302 N 
ATOM      3  H   UNL     1       4.732  -3.190  28.134  0.00  0.00    +0.150 HD
ATOM      4  O   UNL     1       1.983  -1.618  28.051  0.00  0.00    -0.274 OA
ENDROOT
BRANCH   2   5
ATOM      5  C   UNL     1       3.098  -4.138  28.977  0.00  0.00    +0.159 C 
ATOM      6  C   UNL     1       2.742  -5.334  28.072  0.00  0.00    +0.236 C 
ATOM      7  O   UNL     1       1.866  -6.144  28.362  0.00  0.00    -0.274 OA
ATOM      8  N   UNL     1       3.793  -5.626  27.187  0.00  0.00    -0.296 N 
ATOM      9  C   UNL     1       4.608  -6.779  27.529  0.00  0.00    +0.108 C 
ATOM     10  C   UNL     1       5.058  -6.773  28.999  0.00  0.00    +0.019 C 
ATOM     11  C   UNL     1       5.315  -5.374  29.578  0.00  0.00    +0.004 C 
ATOM     12  C   UNL     1       4.057  -4.633  30.076  0.00  0.00    +0.032 C 
BRANCH   8  13
ATOM     13  C   UNL     1       3.654  -5.266  25.782  0.00  0.00    +0.143 C 
BRANCH  13  14
ATOM     14  C   UNL     1       4.796  -4.514  25.160  0.00  0.00    -0.030 A 
ATOM     15  C   UNL     1       4.605  -3.673  24.062  0.00  0.00    +0.006 A 
ATOM     16  C   UNL     1       5.702  -3.062  23.437  0.00  0.00    +0.009 A 
ATOM     17  C   UNL     1       7.018  -3.242  23.904  0.00  0.00    -0.018 A 
ATOM     18  C   UNL     1       7.182  -4.075  25.025  0.00  0.00    +0.009 A 
ATOM     19  C   UNL     1       6.096  -4.702  25.640  0.00  0.00    +0.006 A 
BRANCH  17  20
ATOM     20  C   UNL     1       8.181  -2.558  23.280  0.00  0.00    -0.018 A 
ATOM     21  C   UNL     1       8.043  -1.792  22.108  0.00  0.00    +0.008 A 
ATOM     22  C   UNL     1       9.119  -1.086  21.560  0.00  0.00    +0.001 A 
ATOM     23  C   UNL     1      10.365  -1.121  22.176  0.00  0.00    +0.000 A 
ATOM     24  C   UNL     1      10.541  -1.887  23.322  0.00  0.00    +0.001 A 
ATOM     25  C   UNL     1       9.466  -2.605  23.859  0.00  0.00    +0.008 A 
ENDBRANCH  17  20
ENDBRANCH  13  14
ENDBRANCH   8  13
ENDBRANCH   2   5
BRANCH   1  26
ATOM     26  C   UNL     1       4.076  -0.912  27.001  0.00  0.00    +0.163 C 
BRANCH  26  29
ATOM     27  C   UNL     1       3.746   2.798  27.803  0.00  0.00    +0.109 C 
ATOM     28  C   UNL     1       3.513   1.514  27.057  0.00  0.00    +0.211 C 
ATOM     29  N   UNL     1       4.043   0.402  27.665  0.00  0.00    -0.304 N 
ATOM     30  H   UNL     1       4.217   0.414  28.667  0.00  0.00    +0.149 HD
ATOM     31  O   UNL     1       2.931   1.485  25.978  0.00  0.00    -0.276 OA
ENDBRANCH  26  29
BRANCH  26  32
ATOM     32  C   UNL     1       5.532  -1.418  26.846  0.00  0.00    +0.067 C 
BRANCH  32  33
ATOM     33  C   UNL     1       6.493  -0.538  26.061  0.00  0.00    -0.044 A 
ATOM     34  C   UNL     1       6.135   0.128  24.878  0.00  0.00    +0.019 A 
ATOM     35  C   UNL     1       6.956   1.109  24.306  0.00  0.00    +0.063 A 
ATOM     36  C   UNL     1       8.184   1.428  24.911  0.00  0.00    -0.023 A 
ATOM     37  C   UNL     1       8.594   0.674  26.026  0.00  0.00    +0.005 A 
ATOM     38  C   UNL     1       7.762  -0.297  26.593  0.00  0.00    +0.004 A 
BRANCH  35  39
ATOM     39  C   UNL     1       6.421   1.880  23.152  0.00  0.00    +0.337 C 
ATOM     40  O   UNL     1       6.844   1.719  22.017  0.00  0.00    -0.245 OA
BRANCH  39  41
ATOM     41  O   UNL     1       5.435   2.744  23.456  0.00  0.00    -0.477 OA
ATOM     42  H   UNL     1       4.776   2.433  24.103  0.00  0.00    +0.295 HD
ENDBRANCH  39  41
ENDBRANCH  35  39
BRANCH  36  43
ATOM     43  C   UNL     1       9.044   2.590  24.472  0.00  0.00    +0.156 C 
BRANCH  43  44
ATOM     44  C   UNL     1      10.157   2.177  23.530  0.00  0.00    +0.309 C 
ATOM     45  O   UNL     1      11.239   1.748  23.914  0.00  0.00    -0.251 OA
BRANCH  44  46
ATOM     46  O   UNL     1       9.878   2.352  22.219  0.00  0.00    -0.480 OA
ATOM     47  H   UNL     1       9.231   1.694  21.858  0.00  0.00    +0.295 HD
ENDBRANCH  44  46
ENDBRANCH  43  44
ENDBRANCH  36  43
ENDBRANCH  32  33
ENDBRANCH  26  32
ENDBRANCH   1  26
TORSDOF 13
ENDMDL
