MODEL 1
REMARK VINA RESULT:      -3.9      0.000      0.000
REMARK  Name = 
REMARK  7 active torsions:
REMARK  status: ('A' for Active; 'I' for Inactive)
REMARK    1  A    between atoms: CD1_1  and  CG1_2
REMARK    2  A    between atoms: CG1_2  and  CB_3
REMARK    3  A    between atoms: CB_3  and  CG2_5
REMARK    4  A    between atoms: CB_3  and  CA_6
REMARK    5  A    between atoms: CA_6  and  N_8
REMARK    6  A    between atoms: CA_6  and  C_9
REMARK    7  A    between atoms: C_9  and  O_10
REMARK                            x       y       z     vdW  Elec       q    Type
REMARK                         _______ _______ _______ _____ _____    ______ ____
ROOT
ATOM      1  CA  ILE A   1       9.783   0.732  21.916  0.00  0.00    +0.163 C 
ENDROOT
BRANCH   1   2
ATOM      2  N   ILE A   1       8.871   1.493  21.014  0.00  0.00    -0.318 NA
ATOM      3  H1  ILE A   1       8.954   1.100  20.073  0.00  0.00    +0.119 HD
ATOM      4  H2  ILE A   1       7.908   1.264  21.287  0.00  0.00    +0.119 HD
ENDBRANCH   1   2
BRANCH   1   5
ATOM      5  CB  ILE A   1       9.859   1.320  23.352  0.00  0.00    +0.013 C 
ATOM      6  CG2 ILE A   1      10.469   2.729  23.377  0.00  0.00    +0.009 C 
BRANCH   5   8
ATOM      7  CD1 ILE A   1       9.769  -0.141  25.469  0.00  0.00    +0.004 C 
ATOM      8  CG1 ILE A   1      10.613   0.362  24.303  0.00  0.00    +0.002 C 
ENDBRANCH   5   8
ENDBRANCH   1   5
BRANCH   1   9
ATOM      9  C   ILE A   1       9.298  -0.730  21.962  0.00  0.00    +0.322 C 
ATOM     10  OXT ILE A   1       8.204  -1.100  22.360  0.00  0.00    -0.249 OA
BRANCH   9  11
ATOM     11  O   ILE A   1      10.246  -1.573  21.472  0.00  0.00    -0.480 OA
ATOM     12  H   ILE A   1      11.033  -1.471  22.062  0.00  0.00    +0.295 HD
ENDBRANCH   9  11
ENDBRANCH   1   9
TORSDOF 5
ENDMDL
MODEL 2
REMARK VINA RESULT:      -3.9      1.952      2.631
REMARK  Name = 
REMARK  7 active torsions:
REMARK  status: ('A' for Active; 'I' for Inactive)
REMARK    1  A    between atoms: CD1_1  and  CG1_2
REMARK    2  A    between atoms: CG1_2  and  CB_3
REMARK    3  A    between atoms: CB_3  and  CG2_5
REMARK    4  A    between atoms: CB_3  and  CA_6
REMARK    5  A    between atoms: CA_6  and  N_8
REMARK    6  A    between atoms: CA_6  and  C_9
REMARK    7  A    between atoms: C_9  and  O_10
REMARK                            x       y       z     vdW  Elec       q    Type
REMARK                         _______ _______ _______ _____ _____    ______ ____
ROOT
ATOM      1  CA  ILE A   1       9.264  -0.450  23.220  0.00  0.00    +0.163 C 
ENDROOT
BRANCH   1   2
ATOM      2  N   ILE A   1       8.725  -0.658  24.595  0.00  0.00    -0.318 NA
ATOM      3  H1  ILE A   1       8.730   0.244  25.077  0.00  0.00    +0.119 HD
ATOM      4  H2  ILE A   1       7.726  -0.877  24.503  0.00  0.00    +0.119 HD
ENDBRANCH   1   2
BRANCH   1   5
ATOM      5  CB  ILE A   1      10.231   0.763  23.116  0.00  0.00    +0.013 C 
ATOM      6  CG2 ILE A   1      10.324   1.552  24.430  0.00  0.00    +0.009 C 
BRANCH   5   8
ATOM      7  CD1 ILE A   1       8.360   1.633  21.577  0.00  0.00    +0.004 C 
ATOM      8  CG1 ILE A   1       9.842   1.679  21.933  0.00  0.00    +0.002 C 
ENDBRANCH   5   8
ENDBRANCH   1   5
BRANCH   1   9
ATOM      9  C   ILE A   1       9.983  -1.744  22.788  0.00  0.00    +0.322 C 
ATOM     10  OXT ILE A   1      10.246  -2.684  23.521  0.00  0.00    -0.249 OA
BRANCH   9  11
ATOM     11  O   ILE A   1      10.270  -1.720  21.459  0.00  0.00    -0.480 OA
ATOM     12  H   ILE A   1      11.235  -1.925  21.385  0.00  0.00    +0.295 HD
ENDBRANCH   9  11
ENDBRANCH   1   9
TORSDOF 5
ENDMDL
MODEL 3
REMARK VINA RESULT:      -3.8      1.957      2.669
REMARK  Name = 
REMARK  7 active torsions:
REMARK  status: ('A' for Active; 'I' for Inactive)
REMARK    1  A    between atoms: CD1_1  and  CG1_2
REMARK    2  A    between atoms: CG1_2  and  CB_3
REMARK    3  A    between atoms: CB_3  and  CG2_5
REMARK    4  A    between atoms: CB_3  and  CA_6
REMARK    5  A    between atoms: CA_6  and  N_8
REMARK    6  A    between atoms: CA_6  and  C_9
REMARK    7  A    between atoms: C_9  and  O_10
REMARK                            x       y       z     vdW  Elec       q    Type
REMARK                         _______ _______ _______ _____ _____    ______ ____
ROOT
ATOM      1  CA  ILE A   1      10.282  -1.062  22.857  0.00  0.00    +0.163 C 
ENDROOT
BRANCH   1   2
ATOM      2  N   ILE A   1      10.084  -1.550  21.462  0.00  0.00    -0.318 NA
ATOM      3  H1  ILE A   1       9.901  -0.740  20.865  0.00  0.00    +0.119 HD
ATOM      4  H2  ILE A   1      10.991  -1.896  21.126  0.00  0.00    +0.119 HD
ENDBRANCH   1   2
BRANCH   1   5
ATOM      5  CB  ILE A   1       9.667   0.343  23.108  0.00  0.00    +0.013 C 
ATOM      6  CG2 ILE A   1       9.288   1.059  21.804  0.00  0.00    +0.009 C 
BRANCH   5   8
ATOM      7  CD1 ILE A   1      10.657   2.676  23.559  0.00  0.00    +0.004 C 
ATOM      8  CG1 ILE A   1      10.608   1.211  23.976  0.00  0.00    +0.002 C 
ENDBRANCH   5   8
ENDBRANCH   1   5
BRANCH   1   9
ATOM      9  C   ILE A   1       9.662  -2.096  23.817  0.00  0.00    +0.322 C 
ATOM     10  OXT ILE A   1      10.109  -3.210  24.041  0.00  0.00    -0.249 OA
BRANCH   9  11
ATOM     11  O   ILE A   1       8.549  -1.596  24.417  0.00  0.00    -0.480 OA
ATOM     12  H   ILE A   1       8.846  -0.800  24.923  0.00  0.00    +0.295 HD
ENDBRANCH   9  11
ENDBRANCH   1   9
TORSDOF 5
ENDMDL
MODEL 4
REMARK VINA RESULT:      -3.8      5.021      5.958
REMARK  Name = 
REMARK  7 active torsions:
REMARK  status: ('A' for Active; 'I' for Inactive)
REMARK    1  A    between atoms: CD1_1  and  CG1_2
REMARK    2  A    between atoms: CG1_2  and  CB_3
REMARK    3  A    between atoms: CB_3  and  CG2_5
REMARK    4  A    between atoms: CB_3  and  CA_6
REMARK    5  A    between atoms: CA_6  and  N_8
REMARK    6  A    between atoms: CA_6  and  C_9
REMARK    7  A    between atoms: C_9  and  O_10
REMARK                            x       y       z     vdW  Elec       q    Type
REMARK                         _______ _______ _______ _____ _____    ______ ____
ROOT
ATOM      1  CA  ILE A   1       9.124  -4.522  26.002  0.00  0.00    +0.163 C 
ENDROOT
BRANCH   1   2
ATOM      2  N   ILE A   1      10.086  -5.424  25.305  0.00  0.00    -0.318 NA
ATOM      3  H1  ILE A   1      10.699  -4.846  24.724  0.00  0.00    +0.119 HD
ATOM      4  H2  ILE A   1      10.719  -5.807  26.017  0.00  0.00    +0.119 HD
ENDBRANCH   1   2
BRANCH   1   5
ATOM      5  CB  ILE A   1       8.768  -3.252  25.180  0.00  0.00    +0.013 C 
ATOM      6  CG2 ILE A   1       9.834  -2.917  24.127  0.00  0.00    +0.009 C 
BRANCH   5   8
ATOM      7  CD1 ILE A   1       9.044  -0.726  25.588  0.00  0.00    +0.004 C 
ATOM      8  CG1 ILE A   1       8.497  -2.048  26.112  0.00  0.00    +0.002 C 
ENDBRANCH   5   8
ENDBRANCH   1   5
BRANCH   1   9
ATOM      9  C   ILE A   1       7.850  -5.332  26.313  0.00  0.00    +0.322 C 
ATOM     10  OXT ILE A   1       6.905  -5.482  25.554  0.00  0.00    -0.249 OA
BRANCH   9  11
ATOM     11  O   ILE A   1       7.919  -5.891  27.550  0.00  0.00    -0.480 OA
ATOM     12  H   ILE A   1       8.452  -6.718  27.446  0.00  0.00    +0.295 HD
ENDBRANCH   9  11
ENDBRANCH   1   9
TORSDOF 5
ENDMDL
MODEL 5
REMARK VINA RESULT:      -3.8      5.195      6.298
REMARK  Name = 
REMARK  7 active torsions:
REMARK  status: ('A' for Active; 'I' for Inactive)
REMARK    1  A    between atoms: CD1_1  and  CG1_2
REMARK    2  A    between atoms: CG1_2  and  CB_3
REMARK    3  A    between atoms: CB_3  and  CG2_5
REMARK    4  A    between atoms: CB_3  and  CA_6
REMARK    5  A    between atoms: CA_6  and  N_8
REMARK    6  A    between atoms: CA_6  and  C_9
REMARK    7  A    between atoms: C_9  and  O_10
REMARK                            x       y       z     vdW  Elec       q    Type
REMARK                         _______ _______ _______ _____ _____    ______ ____
ROOT
ATOM      1  CA  ILE A   1       8.981  -4.484  25.205  0.00  0.00    +0.163 C 
ENDROOT
BRANCH   1   2
ATOM      2  N   ILE A   1       9.755  -5.720  24.890  0.00  0.00    -0.318 NA
ATOM      3  H1  ILE A   1       9.570  -5.970  23.915  0.00  0.00    +0.119 HD
ATOM      4  H2  ILE A   1      10.751  -5.467  24.888  0.00  0.00    +0.119 HD
ENDBRANCH   1   2
BRANCH   1   5
ATOM      5  CB  ILE A   1       7.993  -4.074  24.077  0.00  0.00    +0.013 C 
ATOM      6  CG2 ILE A   1       7.629  -5.251  23.160  0.00  0.00    +0.009 C 
BRANCH   5   8
ATOM      7  CD1 ILE A   1       9.882  -2.353  23.776  0.00  0.00    +0.004 C 
ATOM      8  CG1 ILE A   1       8.544  -2.877  23.269  0.00  0.00    +0.002 C 
ENDBRANCH   5   8
ENDBRANCH   1   5
BRANCH   1   9
ATOM      9  C   ILE A   1       8.219  -4.722  26.523  0.00  0.00    +0.322 C 
ATOM     10  OXT ILE A   1       7.629  -3.866  27.163  0.00  0.00    -0.249 OA
BRANCH   9  11
ATOM     11  O   ILE A   1       8.262  -6.034  26.880  0.00  0.00    -0.480 OA
ATOM     12  H   ILE A   1       7.696  -6.115  27.688  0.00  0.00    +0.295 HD
ENDBRANCH   9  11
ENDBRANCH   1   9
TORSDOF 5
ENDMDL
MODEL 6
REMARK VINA RESULT:      -3.8      5.465      6.537
REMARK  Name = 
REMARK  7 active torsions:
REMARK  status: ('A' for Active; 'I' for Inactive)
REMARK    1  A    between atoms: CD1_1  and  CG1_2
REMARK    2  A    between atoms: CG1_2  and  CB_3
REMARK    3  A    between atoms: CB_3  and  CG2_5
REMARK    4  A    between atoms: CB_3  and  CA_6
REMARK    5  A    between atoms: CA_6  and  N_8
REMARK    6  A    between atoms: CA_6  and  C_9
REMARK    7  A    between atoms: C_9  and  O_10
REMARK                            x       y       z     vdW  Elec       q    Type
REMARK                         _______ _______ _______ _____ _____    ______ ____
ROOT
ATOM      1  CA  ILE A   1       9.220  -4.453  25.376  0.00  0.00    +0.163 C 
ENDROOT
BRANCH   1   2
ATOM      2  N   ILE A   1      10.095  -5.660  25.305  0.00  0.00    -0.318 NA
ATOM      3  H1  ILE A   1       9.600  -6.436  25.751  0.00  0.00    +0.119 HD
ATOM      4  H2  ILE A   1      10.149  -5.943  24.320  0.00  0.00    +0.119 HD
ENDBRANCH   1   2
BRANCH   1   5
ATOM      5  CB  ILE A   1       8.506  -4.134  24.033  0.00  0.00    +0.013 C 
ATOM      6  CG2 ILE A   1       8.063  -2.666  23.939  0.00  0.00    +0.009 C 
BRANCH   5   8
ATOM      7  CD1 ILE A   1       7.302  -5.722  22.404  0.00  0.00    +0.004 C 
ATOM      8  CG1 ILE A   1       7.321  -5.098  23.794  0.00  0.00    +0.002 C 
ENDBRANCH   5   8
ENDBRANCH   1   5
BRANCH   1   9
ATOM      9  C   ILE A   1       8.182  -4.681  26.492  0.00  0.00    +0.322 C 
ATOM     10  OXT ILE A   1       7.412  -3.837  26.923  0.00  0.00    -0.249 OA
BRANCH   9  11
ATOM     11  O   ILE A   1       8.212  -5.968  26.928  0.00  0.00    -0.480 OA
ATOM     12  H   ILE A   1       7.587  -6.011  27.695  0.00  0.00    +0.295 HD
ENDBRANCH   9  11
ENDBRANCH   1   9
TORSDOF 5
ENDMDL
MODEL 7
REMARK VINA RESULT:      -3.7      6.182      6.830
REMARK  Name = 
REMARK  7 active torsions:
REMARK  status: ('A' for Active; 'I' for Inactive)
REMARK    1  A    between atoms: CD1_1  and  CG1_2
REMARK    2  A    between atoms: CG1_2  and  CB_3
REMARK    3  A    between atoms: CB_3  and  CG2_5
REMARK    4  A    between atoms: CB_3  and  CA_6
REMARK    5  A    between atoms: CA_6  and  N_8
REMARK    6  A    between atoms: CA_6  and  C_9
REMARK    7  A    between atoms: C_9  and  O_10
REMARK                            x       y       z     vdW  Elec       q    Type
REMARK                         _______ _______ _______ _____ _____    ______ ____
ROOT
ATOM      1  CA  ILE A   1       8.018  -5.257  25.723  0.00  0.00    +0.163 C 
ENDROOT
BRANCH   1   2
ATOM      2  N   ILE A   1       8.156  -5.646  27.156  0.00  0.00    -0.318 NA
ATOM      3  H1  ILE A   1       8.766  -6.466  27.205  0.00  0.00    +0.119 HD
ATOM      4  H2  ILE A   1       8.700  -4.912  27.624  0.00  0.00    +0.119 HD
ENDBRANCH   1   2
BRANCH   1   5
ATOM      5  CB  ILE A   1       7.010  -4.095  25.496  0.00  0.00    +0.013 C 
ATOM      6  CG2 ILE A   1       6.612  -3.401  26.806  0.00  0.00    +0.009 C 
BRANCH   5   8
ATOM      7  CD1 ILE A   1       6.100  -5.482  23.529  0.00  0.00    +0.004 C 
ATOM      8  CG1 ILE A   1       5.769  -4.586  24.716  0.00  0.00    +0.002 C 
ENDBRANCH   5   8
ENDBRANCH   1   5
BRANCH   1   9
ATOM      9  C   ILE A   1       9.414  -4.863  25.199  0.00  0.00    +0.322 C 
ATOM     10  OXT ILE A   1       9.643  -3.965  24.405  0.00  0.00    -0.249 OA
BRANCH   9  11
ATOM     11  O   ILE A   1      10.380  -5.637  25.762  0.00  0.00    -0.480 OA
ATOM     12  H   ILE A   1      10.056  -5.860  26.670  0.00  0.00    +0.295 HD
ENDBRANCH   9  11
ENDBRANCH   1   9
TORSDOF 5
ENDMDL
MODEL 8
REMARK VINA RESULT:      -3.7      1.886      2.579
REMARK  Name = 
REMARK  7 active torsions:
REMARK  status: ('A' for Active; 'I' for Inactive)
REMARK    1  A    between atoms: CD1_1  and  CG1_2
REMARK    2  A    between atoms: CG1_2  and  CB_3
REMARK    3  A    between atoms: CB_3  and  CG2_5
REMARK    4  A    between atoms: CB_3  and  CA_6
REMARK    5  A    between atoms: CA_6  and  N_8
REMARK    6  A    between atoms: CA_6  and  C_9
REMARK    7  A    between atoms: C_9  and  O_10
REMARK                            x       y       z     vdW  Elec       q    Type
REMARK                         _______ _______ _______ _____ _____    ______ ____
ROOT
ATOM      1  CA  ILE A   1       9.039  -0.776  23.500  0.00  0.00    +0.163 C 
ENDROOT
BRANCH   1   2
ATOM      2  N   ILE A   1       7.645  -1.309  23.517  0.00  0.00    -0.318 NA
ATOM      3  H1  ILE A   1       7.277  -1.202  24.466  0.00  0.00    +0.119 HD
ATOM      4  H2  ILE A   1       7.065  -0.670  22.960  0.00  0.00    +0.119 HD
ENDBRANCH   1   2
BRANCH   1   5
ATOM      5  CB  ILE A   1       9.499  -0.216  24.874  0.00  0.00    +0.013 C 
ATOM      6  CG2 ILE A   1       8.385   0.555  25.597  0.00  0.00    +0.009 C 
BRANCH   5   8
ATOM      7  CD1 ILE A   1      10.575   1.896  23.872  0.00  0.00    +0.004 C 
ATOM      8  CG1 ILE A   1      10.774   0.646  24.721  0.00  0.00    +0.002 C 
ENDBRANCH   5   8
ENDBRANCH   1   5
BRANCH   1   9
ATOM      9  C   ILE A   1       9.977  -1.911  23.043  0.00  0.00    +0.322 C 
ATOM     10  OXT ILE A   1      10.276  -2.890  23.707  0.00  0.00    -0.249 OA
BRANCH   9  11
ATOM     11  O   ILE A   1      10.419  -1.695  21.776  0.00  0.00    -0.480 OA
ATOM     12  H   ILE A   1       9.750  -1.102  21.351  0.00  0.00    +0.295 HD
ENDBRANCH   9  11
ENDBRANCH   1   9
TORSDOF 5
ENDMDL
MODEL 9
REMARK VINA RESULT:      -3.6      2.479      3.295
REMARK  Name = 
REMARK  7 active torsions:
REMARK  status: ('A' for Active; 'I' for Inactive)
REMARK    1  A    between atoms: CD1_1  and  CG1_2
REMARK    2  A    between atoms: CG1_2  and  CB_3
REMARK    3  A    between atoms: CB_3  and  CG2_5
REMARK    4  A    between atoms: CB_3  and  CA_6
REMARK    5  A    between atoms: CA_6  and  N_8
REMARK    6  A    between atoms: CA_6  and  C_9
REMARK    7  A    between atoms: C_9  and  O_10
REMARK                            x       y       z     vdW  Elec       q    Type
REMARK                         _______ _______ _______ _____ _____    ______ ____
ROOT
ATOM      1  CA  ILE A   1       9.272   1.363  22.776  0.00  0.00    +0.163 C 
ENDROOT
BRANCH   1   2
ATOM      2  N   ILE A   1       9.161   2.157  21.518  0.00  0.00    -0.318 NA
ATOM      3  H1  ILE A   1       9.098   3.146  21.772  0.00  0.00    +0.119 HD
ATOM      4  H2  ILE A   1      10.062   2.090  21.031  0.00  0.00    +0.119 HD
ENDBRANCH   1   2
BRANCH   1   5
ATOM      5  CB  ILE A   1      10.034   0.021  22.590  0.00  0.00    +0.013 C 
ATOM      6  CG2 ILE A   1       9.474  -0.815  21.431  0.00  0.00    +0.009 C 
BRANCH   5   8
ATOM      7  CD1 ILE A   1       9.897  -2.289  23.715  0.00  0.00    +0.004 C 
ATOM      8  CG1 ILE A   1      10.061  -0.786  23.908  0.00  0.00    +0.002 C 
ENDBRANCH   5   8
ENDBRANCH   1   5
BRANCH   1   9
ATOM      9  C   ILE A   1       9.979   2.237  23.831  0.00  0.00    +0.322 C 
ATOM     10  OXT ILE A   1      11.074   2.760  23.696  0.00  0.00    -0.249 OA
BRANCH   9  11
ATOM     11  O   ILE A   1       9.207   2.379  24.941  0.00  0.00    -0.480 OA
ATOM     12  H   ILE A   1       9.674   3.034  25.516  0.00  0.00    +0.295 HD
ENDBRANCH   9  11
ENDBRANCH   1   9
TORSDOF 5
ENDMDL
