MODEL 1
REMARK VINA RESULT:      -8.0      0.000      0.000
REMARK  Name = 
REMARK  5 active torsions:
REMARK  status: ('A' for Active; 'I' for Inactive)
REMARK    1  A    between atoms: O_1  and  C_2
REMARK    2  A    between atoms: C_2  and  C_4
REMARK    3  A    between atoms: N_7  and  C_10
REMARK    4  A    between atoms: C_11  and  N_12
REMARK    5  A    between atoms: C_16  and  C_18
REMARK                            x       y       z     vdW  Elec       q    Type
REMARK                         _______ _______ _______ _____ _____    ______ ____
ROOT
ATOM      1  C   UNL     1       7.461  -2.986  23.006  0.00  0.00    +0.051 A 
ATOM      2  C   UNL     1       6.511  -2.908  21.963  0.00  0.00    +0.028 A 
ATOM      3  C   UNL     1       6.002  -4.039  21.312  0.00  0.00    +0.040 A 
ATOM      4  C   UNL     1       6.427  -5.294  21.695  0.00  0.00    +0.125 A 
ATOM      5  F   UNL     1       5.951  -6.380  21.075  0.00  0.00    -0.205 F 
ATOM      6  C   UNL     1       7.340  -5.438  22.723  0.00  0.00    +0.063 A 
ATOM      7  C   UNL     1       7.859  -4.303  23.371  0.00  0.00    +0.059 A 
ENDROOT
BRANCH   7   8
ATOM      8  N   UNL     1       8.711  -4.531  24.469  0.00  0.00    -0.267 N 
ATOM      9  H   UNL     1       9.696  -4.660  24.265  0.00  0.00    +0.156 HD
ATOM     10  C   UNL     1       8.378  -4.802  25.778  0.00  0.00    +0.310 C 
ATOM     11  N   UNL     1       7.045  -5.067  26.015  0.00  0.00    -0.236 N 
ATOM     12  H   UNL     1       6.484  -5.189  25.191  0.00  0.00    +0.159 HD
ATOM     13  C   UNL     1       6.526  -5.522  27.209  0.00  0.00    +0.253 C 
ATOM     14  O   UNL     1       7.126  -5.541  28.277  0.00  0.00    -0.270 OA
ATOM     15  O   UNL     1       9.283  -4.879  26.604  0.00  0.00    -0.252 OA
BRANCH  13  16
ATOM     16  C   UNL     1       5.093  -5.957  27.226  0.00  0.00    +0.058 A 
ATOM     17  C   UNL     1       4.120  -5.552  28.154  0.00  0.00    +0.056 A 
ATOM     18 CL   UNL     1       4.456  -4.514  29.496  0.00  0.00    -0.083 Cl
ATOM     19  C   UNL     1       2.785  -5.962  28.004  0.00  0.00    +0.062 A 
ATOM     20  C   UNL     1       2.423  -6.778  26.936  0.00  0.00    +0.160 A 
ATOM     21  F   UNL     1       1.142  -7.140  26.789  0.00  0.00    -0.202 F 
ATOM     22  C   UNL     1       3.377  -7.199  26.026  0.00  0.00    +0.159 A 
ATOM     23  F   UNL     1       3.032  -7.986  25.000  0.00  0.00    -0.202 F 
ATOM     24  C   UNL     1       4.702  -6.797  26.163  0.00  0.00    +0.055 A 
ENDBRANCH  13  16
ENDBRANCH   7   8
BRANCH   1  28
ATOM     25  C   UNL     1       9.855  -0.086  24.971  0.00  0.00    +0.101 C 
ATOM     26  C   UNL     1      10.220  -0.757  23.640  0.00  0.00    +0.033 C 
ATOM     27  C   UNL     1       8.987  -1.017  22.768  0.00  0.00    +0.106 C 
ATOM     28  N   UNL     1       8.002  -1.810  23.526  0.00  0.00    -0.328 N 
ATOM     29  C   UNL     1       7.566  -1.208  24.790  0.00  0.00    +0.106 C 
ATOM     30  C   UNL     1       8.770  -0.894  25.682  0.00  0.00    +0.033 C 
BRANCH  25  31
ATOM     31  C   UNL     1       9.451   1.366  24.773  0.00  0.00    +0.308 C 
ATOM     32  O   UNL     1       9.936   2.120  23.944  0.00  0.00    -0.251 OA
BRANCH  31  33
ATOM     33  O   UNL     1       8.508   1.787  25.646  0.00  0.00    -0.480 OA
ATOM     34  H   UNL     1       7.883   1.099  25.941  0.00  0.00    +0.295 HD
ENDBRANCH  31  33
ENDBRANCH  25  31
ENDBRANCH   1  28
TORSDOF 5
ENDMDL
MODEL 2
REMARK VINA RESULT:      -7.7      5.016      8.844
REMARK  Name = 
REMARK  5 active torsions:
REMARK  status: ('A' for Active; 'I' for Inactive)
REMARK    1  A    between atoms: O_1  and  C_2
REMARK    2  A    between atoms: C_2  and  C_4
REMARK    3  A    between atoms: N_7  and  C_10
REMARK    4  A    between atoms: C_11  and  N_12
REMARK    5  A    between atoms: C_16  and  C_18
REMARK                            x       y       z     vdW  Elec       q    Type
REMARK                         _______ _______ _______ _____ _____    ______ ____
ROOT
ATOM      1  C   UNL     1       7.070  -2.298  25.238  0.00  0.00    +0.051 A 
ATOM      2  C   UNL     1       6.121  -1.943  26.223  0.00  0.00    +0.028 A 
ATOM      3  C   UNL     1       6.406  -1.055  27.268  0.00  0.00    +0.040 A 
ATOM      4  C   UNL     1       7.659  -0.485  27.354  0.00  0.00    +0.125 A 
ATOM      5  F   UNL     1       7.943   0.360  28.352  0.00  0.00    -0.205 F 
ATOM      6  C   UNL     1       8.626  -0.777  26.410  0.00  0.00    +0.063 A 
ATOM      7  C   UNL     1       8.344  -1.676  25.365  0.00  0.00    +0.059 A 
ENDROOT
BRANCH   7   8
ATOM      8  N   UNL     1       9.343  -1.851  24.389  0.00  0.00    -0.267 N 
ATOM      9  H   UNL     1       9.971  -2.637  24.514  0.00  0.00    +0.156 HD
ATOM     10  C   UNL     1       9.725  -0.994  23.381  0.00  0.00    +0.310 C 
ATOM     11  N   UNL     1       9.191   0.277  23.440  0.00  0.00    -0.236 N 
ATOM     12  H   UNL     1       8.706   0.494  24.293  0.00  0.00    +0.159 HD
ATOM     13  C   UNL     1       9.565   1.334  22.636  0.00  0.00    +0.253 C 
ATOM     14  O   UNL     1      10.249   1.242  21.624  0.00  0.00    -0.270 OA
ATOM     15  O   UNL     1      10.565  -1.383  22.574  0.00  0.00    -0.252 OA
BRANCH  13  16
ATOM     16  C   UNL     1       9.034   2.691  22.977  0.00  0.00    +0.058 A 
ATOM     17  C   UNL     1       7.698   3.106  22.861  0.00  0.00    +0.056 A 
ATOM     18 CL   UNL     1       6.440   2.105  22.223  0.00  0.00    -0.083 Cl
ATOM     19  C   UNL     1       7.311   4.383  23.303  0.00  0.00    +0.062 A 
ATOM     20  C   UNL     1       8.256   5.243  23.855  0.00  0.00    +0.160 A 
ATOM     21  F   UNL     1       7.870   6.447  24.298  0.00  0.00    -0.202 F 
ATOM     22  C   UNL     1       9.579   4.851  23.958  0.00  0.00    +0.159 A 
ATOM     23  F   UNL     1      10.491   5.679  24.485  0.00  0.00    -0.202 F 
ATOM     24  C   UNL     1       9.973   3.589  23.525  0.00  0.00    +0.055 A 
ENDBRANCH  13  16
ENDBRANCH   7   8
BRANCH   1  28
ATOM     25  C   UNL     1       5.100  -5.179  22.826  0.00  0.00    +0.101 C 
ATOM     26  C   UNL     1       4.943  -3.661  22.669  0.00  0.00    +0.033 C 
ATOM     27  C   UNL     1       6.250  -2.914  22.955  0.00  0.00    +0.106 C 
ATOM     28  N   UNL     1       6.743  -3.275  24.296  0.00  0.00    -0.328 N 
ATOM     29  C   UNL     1       6.966  -4.709  24.507  0.00  0.00    +0.106 C 
ATOM     30  C   UNL     1       5.695  -5.503  24.196  0.00  0.00    +0.033 C 
BRANCH  25  31
ATOM     31  C   UNL     1       5.915  -5.778  21.691  0.00  0.00    +0.308 C 
ATOM     32  O   UNL     1       6.068  -5.265  20.594  0.00  0.00    -0.251 OA
BRANCH  31  33
ATOM     33  O   UNL     1       6.444  -6.987  21.987  0.00  0.00    -0.480 OA
ATOM     34  H   UNL     1       7.417  -7.032  21.948  0.00  0.00    +0.295 HD
ENDBRANCH  31  33
ENDBRANCH  25  31
ENDBRANCH   1  28
TORSDOF 5
ENDMDL
MODEL 3
REMARK VINA RESULT:      -7.6      4.897      8.557
REMARK  Name = 
REMARK  5 active torsions:
REMARK  status: ('A' for Active; 'I' for Inactive)
REMARK    1  A    between atoms: O_1  and  C_2
REMARK    2  A    between atoms: C_2  and  C_4
REMARK    3  A    between atoms: N_7  and  C_10
REMARK    4  A    between atoms: C_11  and  N_12
REMARK    5  A    between atoms: C_16  and  C_18
REMARK                            x       y       z     vdW  Elec       q    Type
REMARK                         _______ _______ _______ _____ _____    ______ ____
ROOT
ATOM      1  C   UNL     1       7.050  -2.243  25.340  0.00  0.00    +0.051 A 
ATOM      2  C   UNL     1       6.019  -1.957  26.264  0.00  0.00    +0.028 A 
ATOM      3  C   UNL     1       6.182  -1.067  27.333  0.00  0.00    +0.040 A 
ATOM      4  C   UNL     1       7.391  -0.425  27.507  0.00  0.00    +0.125 A 
ATOM      5  F   UNL     1       7.558   0.421  28.529  0.00  0.00    -0.205 F 
ATOM      6  C   UNL     1       8.432  -0.648  26.625  0.00  0.00    +0.063 A 
ATOM      7  C   UNL     1       8.273  -1.548  25.556  0.00  0.00    +0.059 A 
ENDROOT
BRANCH   7   8
ATOM      8  N   UNL     1       9.342  -1.652  24.647  0.00  0.00    -0.267 N 
ATOM      9  H   UNL     1      10.088  -2.296  24.888  0.00  0.00    +0.156 HD
ATOM     10  C   UNL     1       9.630  -0.859  23.558  0.00  0.00    +0.310 C 
ATOM     11  N   UNL     1       8.884   0.297  23.444  0.00  0.00    -0.236 N 
ATOM     12  H   UNL     1       8.320   0.518  24.246  0.00  0.00    +0.159 HD
ATOM     13  C   UNL     1       9.117   1.306  22.534  0.00  0.00    +0.253 C 
ATOM     14  O   UNL     1       9.864   1.225  21.567  0.00  0.00    -0.270 OA
ATOM     15  O   UNL     1      10.570  -1.180  22.835  0.00  0.00    -0.252 OA
BRANCH  13  16
ATOM     16  C   UNL     1       8.343   2.578  22.690  0.00  0.00    +0.058 A 
ATOM     17  C   UNL     1       8.862   3.812  23.114  0.00  0.00    +0.056 A 
ATOM     18 CL   UNL     1      10.507   4.039  23.599  0.00  0.00    -0.083 Cl
ATOM     19  C   UNL     1       8.047   4.956  23.130  0.00  0.00    +0.062 A 
ATOM     20  C   UNL     1       6.717   4.868  22.729  0.00  0.00    +0.160 A 
ATOM     21  F   UNL     1       5.957   5.971  22.723  0.00  0.00    -0.202 F 
ATOM     22  C   UNL     1       6.189   3.653  22.327  0.00  0.00    +0.159 A 
ATOM     23  F   UNL     1       4.909   3.565  21.944  0.00  0.00    -0.202 F 
ATOM     24  C   UNL     1       6.988   2.514  22.304  0.00  0.00    +0.055 A 
ENDBRANCH  13  16
ENDBRANCH   7   8
BRANCH   1  28
ATOM     25  C   UNL     1       5.404  -5.160  22.736  0.00  0.00    +0.101 C 
ATOM     26  C   UNL     1       5.233  -3.645  22.562  0.00  0.00    +0.033 C 
ATOM     27  C   UNL     1       6.488  -2.872  22.984  0.00  0.00    +0.106 C 
ATOM     28  N   UNL     1       6.844  -3.225  24.370  0.00  0.00    -0.328 N 
ATOM     29  C   UNL     1       7.071  -4.654  24.604  0.00  0.00    +0.106 C 
ATOM     30  C   UNL     1       5.857  -5.473  24.161  0.00  0.00    +0.033 C 
BRANCH  25  31
ATOM     31  C   UNL     1       6.345  -5.741  21.694  0.00  0.00    +0.308 C 
ATOM     32  O   UNL     1       7.390  -6.323  21.943  0.00  0.00    -0.251 OA
BRANCH  31  33
ATOM     33  O   UNL     1       5.944  -5.520  20.422  0.00  0.00    -0.480 OA
ATOM     34  H   UNL     1       6.500  -5.933  19.736  0.00  0.00    +0.295 HD
ENDBRANCH  31  33
ENDBRANCH  25  31
ENDBRANCH   1  28
TORSDOF 5
ENDMDL
MODEL 4
REMARK VINA RESULT:      -7.5      3.329      4.797
REMARK  Name = 
REMARK  5 active torsions:
REMARK  status: ('A' for Active; 'I' for Inactive)
REMARK    1  A    between atoms: O_1  and  C_2
REMARK    2  A    between atoms: C_2  and  C_4
REMARK    3  A    between atoms: N_7  and  C_10
REMARK    4  A    between atoms: C_11  and  N_12
REMARK    5  A    between atoms: C_16  and  C_18
REMARK                            x       y       z     vdW  Elec       q    Type
REMARK                         _______ _______ _______ _____ _____    ______ ____
ROOT
ATOM      1  C   UNL     1       9.008   0.947  23.286  0.00  0.00    +0.051 A 
ATOM      2  C   UNL     1       9.867   0.284  22.380  0.00  0.00    +0.028 A 
ATOM      3  C   UNL     1      10.307  -1.032  22.574  0.00  0.00    +0.040 A 
ATOM      4  C   UNL     1       9.890  -1.732  23.687  0.00  0.00    +0.125 A 
ATOM      5  F   UNL     1      10.309  -2.987  23.884  0.00  0.00    -0.205 F 
ATOM      6  C   UNL     1       9.034  -1.146  24.600  0.00  0.00    +0.063 A 
ATOM      7  C   UNL     1       8.599   0.179  24.411  0.00  0.00    +0.059 A 
ENDROOT
BRANCH   7   8
ATOM      8  N   UNL     1       7.656   0.676  25.330  0.00  0.00    -0.267 N 
ATOM      9  H   UNL     1       7.949   1.453  25.913  0.00  0.00    +0.156 HD
ATOM     10  C   UNL     1       6.443   0.137  25.701  0.00  0.00    +0.310 C 
ATOM     11  N   UNL     1       6.198  -1.147  25.257  0.00  0.00    -0.236 N 
ATOM     12  H   UNL     1       6.988  -1.611  24.844  0.00  0.00    +0.159 HD
ATOM     13  C   UNL     1       5.132  -1.931  25.645  0.00  0.00    +0.253 C 
ATOM     14  O   UNL     1       4.147  -1.531  26.253  0.00  0.00    -0.270 OA
ATOM     15  O   UNL     1       5.726   0.783  26.459  0.00  0.00    -0.252 OA
BRANCH  13  16
ATOM     16  C   UNL     1       5.136  -3.369  25.228  0.00  0.00    +0.058 A 
ATOM     17  C   UNL     1       5.935  -4.384  25.779  0.00  0.00    +0.056 A 
ATOM     18 CL   UNL     1       7.116  -4.105  27.011  0.00  0.00    -0.083 Cl
ATOM     19  C   UNL     1       5.777  -5.716  25.361  0.00  0.00    +0.062 A 
ATOM     20  C   UNL     1       4.828  -6.033  24.392  0.00  0.00    +0.160 A 
ATOM     21  F   UNL     1       4.669  -7.309  24.020  0.00  0.00    -0.202 F 
ATOM     22  C   UNL     1       4.049  -5.038  23.828  0.00  0.00    +0.159 A 
ATOM     23  F   UNL     1       3.139  -5.339  22.893  0.00  0.00    -0.202 F 
ATOM     24  C   UNL     1       4.195  -3.716  24.237  0.00  0.00    +0.055 A 
ENDBRANCH  13  16
ENDBRANCH   7   8
BRANCH   1  28
ATOM     25  C   UNL     1       7.295   4.827  23.351  0.00  0.00    +0.101 C 
ATOM     26  C   UNL     1       8.159   4.241  24.475  0.00  0.00    +0.033 C 
ATOM     27  C   UNL     1       9.281   3.349  23.932  0.00  0.00    +0.106 C 
ATOM     28  N   UNL     1       8.707   2.294  23.079  0.00  0.00    -0.328 N 
ATOM     29  C   UNL     1       7.907   2.780  21.951  0.00  0.00    +0.106 C 
ATOM     30  C   UNL     1       6.793   3.708  22.441  0.00  0.00    +0.033 C 
BRANCH  25  31
ATOM     31  C   UNL     1       8.038   5.905  22.578  0.00  0.00    +0.308 C 
ATOM     32  O   UNL     1       8.973   6.559  23.014  0.00  0.00    -0.251 OA
BRANCH  31  33
ATOM     33  O   UNL     1       7.540   6.120  21.339  0.00  0.00    -0.480 OA
ATOM     34  H   UNL     1       8.066   5.740  20.612  0.00  0.00    +0.295 HD
ENDBRANCH  31  33
ENDBRANCH  25  31
ENDBRANCH   1  28
TORSDOF 5
ENDMDL
MODEL 5
REMARK VINA RESULT:      -7.4      4.172      6.715
REMARK  Name = 
REMARK  5 active torsions:
REMARK  status: ('A' for Active; 'I' for Inactive)
REMARK    1  A    between atoms: O_1  and  C_2
REMARK    2  A    between atoms: C_2  and  C_4
REMARK    3  A    between atoms: N_7  and  C_10
REMARK    4  A    between atoms: C_11  and  N_12
REMARK    5  A    between atoms: C_16  and  C_18
REMARK                            x       y       z     vdW  Elec       q    Type
REMARK                         _______ _______ _______ _____ _____    ______ ____
ROOT
ATOM      1  C   UNL     1       8.174   3.059  24.765  0.00  0.00    +0.051 A 
ATOM      2  C   UNL     1       7.557   3.187  26.031  0.00  0.00    +0.028 A 
ATOM      3  C   UNL     1       6.317   2.609  26.333  0.00  0.00    +0.040 A 
ATOM      4  C   UNL     1       5.655   1.874  25.372  0.00  0.00    +0.125 A 
ATOM      5  F   UNL     1       4.468   1.324  25.650  0.00  0.00    -0.205 F 
ATOM      6  C   UNL     1       6.215   1.697  24.120  0.00  0.00    +0.063 A 
ATOM      7  C   UNL     1       7.456   2.284  23.812  0.00  0.00    +0.059 A 
ENDROOT
BRANCH   7   8
ATOM      8  N   UNL     1       8.007   1.982  22.552  0.00  0.00    -0.267 N 
ATOM      9  H   UNL     1       7.821   2.638  21.802  0.00  0.00    +0.156 HD
ATOM     10  C   UNL     1       8.606   0.816  22.129  0.00  0.00    +0.310 C 
ATOM     11  N   UNL     1       8.492  -0.262  22.984  0.00  0.00    -0.236 N 
ATOM     12  H   UNL     1       7.854  -0.130  23.749  0.00  0.00    +0.159 HD
ATOM     13  C   UNL     1       8.868  -1.555  22.686  0.00  0.00    +0.253 C 
ATOM     14  O   UNL     1       9.551  -1.887  21.726  0.00  0.00    -0.270 OA
ATOM     15  O   UNL     1       9.106   0.792  21.008  0.00  0.00    -0.252 OA
BRANCH  13  16
ATOM     16  C   UNL     1       8.479  -2.633  23.649  0.00  0.00    +0.058 A 
ATOM     17  C   UNL     1       7.172  -3.085  23.896  0.00  0.00    +0.056 A 
ATOM     18 CL   UNL     1       5.769  -2.398  23.153  0.00  0.00    -0.083 Cl
ATOM     19  C   UNL     1       6.949  -4.171  24.759  0.00  0.00    +0.062 A 
ATOM     20  C   UNL     1       8.026  -4.800  25.378  0.00  0.00    +0.160 A 
ATOM     21  F   UNL     1       7.803  -5.850  26.178  0.00  0.00    -0.202 F 
ATOM     22  C   UNL     1       9.316  -4.350  25.157  0.00  0.00    +0.159 A 
ATOM     23  F   UNL     1      10.353  -4.952  25.755  0.00  0.00    -0.202 F 
ATOM     24  C   UNL     1       9.549  -3.278  24.302  0.00  0.00    +0.055 A 
ENDBRANCH  13  16
ENDBRANCH   7   8
BRANCH   1  28
ATOM     25  C   UNL     1      11.302   5.332  23.019  0.00  0.00    +0.101 C 
ATOM     26  C   UNL     1       9.976   5.921  23.520  0.00  0.00    +0.033 C 
ATOM     27  C   UNL     1       9.465   5.203  24.774  0.00  0.00    +0.106 C 
ATOM     28  N   UNL     1       9.354   3.758  24.508  0.00  0.00    -0.328 N 
ATOM     29  C   UNL     1      10.597   3.114  24.072  0.00  0.00    +0.106 C 
ATOM     30  C   UNL     1      11.168   3.821  22.841  0.00  0.00    +0.033 C 
BRANCH  25  31
ATOM     31  C   UNL     1      12.458   5.701  23.935  0.00  0.00    +0.308 C 
ATOM     32  O   UNL     1      12.390   6.489  24.865  0.00  0.00    -0.251 OA
BRANCH  31  33
ATOM     33  O   UNL     1      13.622   5.098  23.602  0.00  0.00    -0.480 OA
ATOM     34  H   UNL     1      14.028   5.414  22.774  0.00  0.00    +0.295 HD
ENDBRANCH  31  33
ENDBRANCH  25  31
ENDBRANCH   1  28
TORSDOF 5
ENDMDL
MODEL 6
REMARK VINA RESULT:      -7.4      2.813      3.566
REMARK  Name = 
REMARK  5 active torsions:
REMARK  status: ('A' for Active; 'I' for Inactive)
REMARK    1  A    between atoms: O_1  and  C_2
REMARK    2  A    between atoms: C_2  and  C_4
REMARK    3  A    between atoms: N_7  and  C_10
REMARK    4  A    between atoms: C_11  and  N_12
REMARK    5  A    between atoms: C_16  and  C_18
REMARK                            x       y       z     vdW  Elec       q    Type
REMARK                         _______ _______ _______ _____ _____    ______ ____
ROOT
ATOM      1  C   UNL     1       8.664  -2.184  24.634  0.00  0.00    +0.051 A 
ATOM      2  C   UNL     1       9.579  -3.217  24.329  0.00  0.00    +0.028 A 
ATOM      3  C   UNL     1       9.508  -4.491  24.908  0.00  0.00    +0.040 A 
ATOM      4  C   UNL     1       8.505  -4.773  25.812  0.00  0.00    +0.125 A 
ATOM      5  F   UNL     1       8.433  -5.984  26.376  0.00  0.00    -0.205 F 
ATOM      6  C   UNL     1       7.567  -3.810  26.137  0.00  0.00    +0.063 A 
ATOM      7  C   UNL     1       7.643  -2.528  25.563  0.00  0.00    +0.059 A 
ENDROOT
BRANCH   7   8
ATOM      8  N   UNL     1       6.601  -1.632  25.868  0.00  0.00    -0.267 N 
ATOM      9  H   UNL     1       6.840  -0.830  26.441  0.00  0.00    +0.156 HD
ATOM     10  C   UNL     1       5.246  -1.782  25.667  0.00  0.00    +0.310 C 
ATOM     11  N   UNL     1       4.833  -3.043  25.287  0.00  0.00    -0.236 N 
ATOM     12  H   UNL     1       5.538  -3.757  25.348  0.00  0.00    +0.159 HD
ATOM     13  C   UNL     1       3.519  -3.454  25.195  0.00  0.00    +0.253 C 
ATOM     14  O   UNL     1       2.545  -2.712  25.218  0.00  0.00    -0.270 OA
ATOM     15  O   UNL     1       4.511  -0.833  25.924  0.00  0.00    -0.252 OA
BRANCH  13  16
ATOM     16  C   UNL     1       3.259  -4.912  24.974  0.00  0.00    +0.058 A 
ATOM     17  C   UNL     1       3.441  -5.934  25.919  0.00  0.00    +0.056 A 
ATOM     18 CL   UNL     1       4.076  -5.665  27.505  0.00  0.00    -0.083 Cl
ATOM     19  C   UNL     1       3.071  -7.255  25.614  0.00  0.00    +0.062 A 
ATOM     20  C   UNL     1       2.526  -7.555  24.369  0.00  0.00    +0.160 A 
ATOM     21  F   UNL     1       2.152  -8.812  24.100  0.00  0.00    -0.202 F 
ATOM     22  C   UNL     1       2.360  -6.559  23.423  0.00  0.00    +0.159 A 
ATOM     23  F   UNL     1       1.839  -6.846  22.223  0.00  0.00    -0.202 F 
ATOM     24  C   UNL     1       2.720  -5.247  23.715  0.00  0.00    +0.055 A 
ENDBRANCH  13  16
ENDBRANCH   7   8
BRANCH   1  28
ATOM     25  C   UNL     1      10.171   1.220  22.599  0.00  0.00    +0.101 C 
ATOM     26  C   UNL     1       9.472   0.038  21.915  0.00  0.00    +0.033 C 
ATOM     27  C   UNL     1       8.343  -0.540  22.775  0.00  0.00    +0.106 C 
ATOM     28  N   UNL     1       8.870  -0.911  24.100  0.00  0.00    -0.328 N 
ATOM     29  C   UNL     1       9.510   0.182  24.838  0.00  0.00    +0.106 C 
ATOM     30  C   UNL     1      10.623   0.818  24.002  0.00  0.00    +0.033 C 
BRANCH  25  31
ATOM     31  C   UNL     1       9.289   2.459  22.614  0.00  0.00    +0.308 C 
ATOM     32  O   UNL     1       9.201   3.243  23.547  0.00  0.00    -0.251 OA
BRANCH  31  33
ATOM     33  O   UNL     1       8.552   2.609  21.490  0.00  0.00    -0.480 OA
ATOM     34  H   UNL     1       8.623   3.483  21.065  0.00  0.00    +0.295 HD
ENDBRANCH  31  33
ENDBRANCH  25  31
ENDBRANCH   1  28
TORSDOF 5
ENDMDL
MODEL 7
REMARK VINA RESULT:      -7.4      5.113      9.013
REMARK  Name = 
REMARK  5 active torsions:
REMARK  status: ('A' for Active; 'I' for Inactive)
REMARK    1  A    between atoms: O_1  and  C_2
REMARK    2  A    between atoms: C_2  and  C_4
REMARK    3  A    between atoms: N_7  and  C_10
REMARK    4  A    between atoms: C_11  and  N_12
REMARK    5  A    between atoms: C_16  and  C_18
REMARK                            x       y       z     vdW  Elec       q    Type
REMARK                         _______ _______ _______ _____ _____    ______ ____
ROOT
ATOM      1  C   UNL     1       7.892  -1.691  22.536  0.00  0.00    +0.051 A 
ATOM      2  C   UNL     1       9.150  -1.729  21.894  0.00  0.00    +0.028 A 
ATOM      3  C   UNL     1       9.881  -0.575  21.585  0.00  0.00    +0.040 A 
ATOM      4  C   UNL     1       9.373   0.663  21.920  0.00  0.00    +0.125 A 
ATOM      5  F   UNL     1      10.061   1.772  21.623  0.00  0.00    -0.205 F 
ATOM      6  C   UNL     1       8.155   0.766  22.567  0.00  0.00    +0.063 A 
ATOM      7  C   UNL     1       7.416  -0.392  22.870  0.00  0.00    +0.059 A 
ENDROOT
BRANCH   7   8
ATOM      8  N   UNL     1       6.233  -0.215  23.613  0.00  0.00    -0.267 N 
ATOM      9  H   UNL     1       5.426  -0.758  23.324  0.00  0.00    +0.156 HD
ATOM     10  C   UNL     1       5.945   0.738  24.564  0.00  0.00    +0.310 C 
ATOM     11  N   UNL     1       6.858   1.767  24.677  0.00  0.00    -0.236 N 
ATOM     12  H   UNL     1       7.554   1.798  23.953  0.00  0.00    +0.159 HD
ATOM     13  C   UNL     1       6.684   2.903  25.440  0.00  0.00    +0.253 C 
ATOM     14  O   UNL     1       5.813   3.057  26.286  0.00  0.00    -0.270 OA
ATOM     15  O   UNL     1       4.876   0.659  25.163  0.00  0.00    -0.252 OA
BRANCH  13  16
ATOM     16  C   UNL     1       7.681   4.008  25.281  0.00  0.00    +0.058 A 
ATOM     17  C   UNL     1       7.701   5.211  26.007  0.00  0.00    +0.056 A 
ATOM     18 CL   UNL     1       6.502   5.637  27.179  0.00  0.00    -0.083 Cl
ATOM     19  C   UNL     1       8.748   6.130  25.827  0.00  0.00    +0.062 A 
ATOM     20  C   UNL     1       9.769   5.853  24.922  0.00  0.00    +0.160 A 
ATOM     21  F   UNL     1      10.775   6.724  24.779  0.00  0.00    -0.202 F 
ATOM     22  C   UNL     1       9.750   4.680  24.188  0.00  0.00    +0.159 A 
ATOM     23  F   UNL     1      10.729   4.413  23.314  0.00  0.00    -0.202 F 
ATOM     24  C   UNL     1       8.719   3.761  24.360  0.00  0.00    +0.055 A 
ENDBRANCH  13  16
ENDBRANCH   7   8
BRANCH   1  28
ATOM     25  C   UNL     1       6.545  -5.714  22.503  0.00  0.00    +0.101 C 
ATOM     26  C   UNL     1       7.673  -5.183  23.398  0.00  0.00    +0.033 C 
ATOM     27  C   UNL     1       7.406  -3.750  23.872  0.00  0.00    +0.106 C 
ATOM     28  N   UNL     1       7.177  -2.877  22.708  0.00  0.00    -0.328 N 
ATOM     29  C   UNL     1       6.078  -3.294  21.830  0.00  0.00    +0.106 C 
ATOM     30  C   UNL     1       6.282  -4.736  21.360  0.00  0.00    +0.033 C 
BRANCH  25  31
ATOM     31  C   UNL     1       5.288  -6.010  23.305  0.00  0.00    +0.308 C 
ATOM     32  O   UNL     1       5.257  -6.209  24.510  0.00  0.00    -0.251 OA
BRANCH  31  33
ATOM     33  O   UNL     1       4.169  -6.078  22.548  0.00  0.00    -0.480 OA
ATOM     34  H   UNL     1       3.634  -6.883  22.675  0.00  0.00    +0.295 HD
ENDBRANCH  31  33
ENDBRANCH  25  31
ENDBRANCH   1  28
TORSDOF 5
ENDMDL
MODEL 8
REMARK VINA RESULT:      -7.2      4.252      6.560
REMARK  Name = 
REMARK  5 active torsions:
REMARK  status: ('A' for Active; 'I' for Inactive)
REMARK    1  A    between atoms: O_1  and  C_2
REMARK    2  A    between atoms: C_2  and  C_4
REMARK    3  A    between atoms: N_7  and  C_10
REMARK    4  A    between atoms: C_11  and  N_12
REMARK    5  A    between atoms: C_16  and  C_18
REMARK                            x       y       z     vdW  Elec       q    Type
REMARK                         _______ _______ _______ _____ _____    ______ ____
ROOT
ATOM      1  C   UNL     1       7.906   2.590  23.519  0.00  0.00    +0.051 A 
ATOM      2  C   UNL     1       9.030   2.633  22.662  0.00  0.00    +0.028 A 
ATOM      3  C   UNL     1      10.232   1.975  22.951  0.00  0.00    +0.040 A 
ATOM      4  C   UNL     1      10.344   1.241  24.114  0.00  0.00    +0.125 A 
ATOM      5  F   UNL     1      11.490   0.614  24.403  0.00  0.00    -0.205 F 
ATOM      6  C   UNL     1       9.274   1.145  24.985  0.00  0.00    +0.063 A 
ATOM      7  C   UNL     1       8.069   1.813  24.700  0.00  0.00    +0.059 A 
ENDROOT
BRANCH   7   8
ATOM      8  N   UNL     1       6.995   1.592  25.582  0.00  0.00    -0.267 N 
ATOM      9  H   UNL     1       6.959   2.172  26.413  0.00  0.00    +0.156 HD
ATOM     10  C   UNL     1       6.079   0.563  25.587  0.00  0.00    +0.310 C 
ATOM     11  N   UNL     1       6.353  -0.487  24.735  0.00  0.00    -0.236 N 
ATOM     12  H   UNL     1       7.266  -0.466  24.316  0.00  0.00    +0.159 HD
ATOM     13  C   UNL     1       5.666  -1.683  24.702  0.00  0.00    +0.253 C 
ATOM     14  O   UNL     1       4.595  -1.896  25.256  0.00  0.00    -0.270 OA
ATOM     15  O   UNL     1       5.157   0.608  26.398  0.00  0.00    -0.252 OA
BRANCH  13  16
ATOM     16  C   UNL     1       6.230  -2.788  23.863  0.00  0.00    +0.058 A 
ATOM     17  C   UNL     1       7.061  -3.824  24.316  0.00  0.00    +0.056 A 
ATOM     18 CL   UNL     1       7.631  -3.947  25.945  0.00  0.00    -0.083 Cl
ATOM     19  C   UNL     1       7.448  -4.855  23.443  0.00  0.00    +0.062 A 
ATOM     20  C   UNL     1       7.011  -4.848  22.121  0.00  0.00    +0.160 A 
ATOM     21  F   UNL     1       7.365  -5.850  21.306  0.00  0.00    -0.202 F 
ATOM     22  C   UNL     1       6.207  -3.821  21.659  0.00  0.00    +0.159 A 
ATOM     23  F   UNL     1       5.789  -3.810  20.387  0.00  0.00    -0.202 F 
ATOM     24  C   UNL     1       5.815  -2.797  22.515  0.00  0.00    +0.055 A 
ENDBRANCH  13  16
ENDBRANCH   7   8
BRANCH   1  28
ATOM     25  C   UNL     1       4.198   4.649  23.585  0.00  0.00    +0.101 C 
ATOM     26  C   UNL     1       5.460   5.111  24.324  0.00  0.00    +0.033 C 
ATOM     27  C   UNL     1       6.736   4.802  23.532  0.00  0.00    +0.106 C 
ATOM     28  N   UNL     1       6.786   3.364  23.214  0.00  0.00    -0.328 N 
ATOM     29  C   UNL     1       5.633   2.858  22.463  0.00  0.00    +0.106 C 
ATOM     30  C   UNL     1       4.329   3.177  23.197  0.00  0.00    +0.033 C 
BRANCH  25  31
ATOM     31  C   UNL     1       3.897   5.533  22.385  0.00  0.00    +0.308 C 
ATOM     32  O   UNL     1       4.250   6.696  22.267  0.00  0.00    -0.251 OA
BRANCH  31  33
ATOM     33  O   UNL     1       3.144   4.923  21.441  0.00  0.00    -0.480 OA
ATOM     34  H   UNL     1       2.359   4.454  21.780  0.00  0.00    +0.295 HD
ENDBRANCH  31  33
ENDBRANCH  25  31
ENDBRANCH   1  28
TORSDOF 5
ENDMDL
MODEL 9
REMARK VINA RESULT:      -7.1      3.629      6.060
REMARK  Name = 
REMARK  5 active torsions:
REMARK  status: ('A' for Active; 'I' for Inactive)
REMARK    1  A    between atoms: O_1  and  C_2
REMARK    2  A    between atoms: C_2  and  C_4
REMARK    3  A    between atoms: N_7  and  C_10
REMARK    4  A    between atoms: C_11  and  N_12
REMARK    5  A    between atoms: C_16  and  C_18
REMARK                            x       y       z     vdW  Elec       q    Type
REMARK                         _______ _______ _______ _____ _____    ______ ____
ROOT
ATOM      1  C   UNL     1       6.752   2.110  25.798  0.00  0.00    +0.051 A 
ATOM      2  C   UNL     1       5.471   2.062  26.393  0.00  0.00    +0.028 A 
ATOM      3  C   UNL     1       5.009   0.953  27.113  0.00  0.00    +0.040 A 
ATOM      4  C   UNL     1       5.826  -0.148  27.267  0.00  0.00    +0.125 A 
ATOM      5  F   UNL     1       5.391  -1.214  27.948  0.00  0.00    -0.205 F 
ATOM      6  C   UNL     1       7.098  -0.154  26.726  0.00  0.00    +0.063 A 
ATOM      7  C   UNL     1       7.560   0.956  25.994  0.00  0.00    +0.059 A 
ENDROOT
BRANCH   7   8
ATOM      8  N   UNL     1       8.896   0.916  25.555  0.00  0.00    -0.267 N 
ATOM      9  H   UNL     1       9.392   1.800  25.514  0.00  0.00    +0.156 HD
ATOM     10  C   UNL     1       9.585  -0.128  24.977  0.00  0.00    +0.310 C 
ATOM     11  N   UNL     1       8.824  -1.219  24.612  0.00  0.00    -0.236 N 
ATOM     12  H   UNL     1       7.830  -1.078  24.660  0.00  0.00    +0.159 HD
ATOM     13  C   UNL     1       9.277  -2.293  23.875  0.00  0.00    +0.253 C 
ATOM     14  O   UNL     1      10.453  -2.538  23.635  0.00  0.00    -0.270 OA
ATOM     15  O   UNL     1      10.783   0.020  24.749  0.00  0.00    -0.252 OA
BRANCH  13  16
ATOM     16  C   UNL     1       8.264  -3.284  23.391  0.00  0.00    +0.058 A 
ATOM     17  C   UNL     1       8.088  -4.588  23.882  0.00  0.00    +0.056 A 
ATOM     18 CL   UNL     1       9.086  -5.289  25.108  0.00  0.00    -0.083 Cl
ATOM     19  C   UNL     1       7.036  -5.389  23.404  0.00  0.00    +0.062 A 
ATOM     20  C   UNL     1       6.168  -4.891  22.436  0.00  0.00    +0.160 A 
ATOM     21  F   UNL     1       5.154  -5.654  22.008  0.00  0.00    -0.202 F 
ATOM     22  C   UNL     1       6.345  -3.615  21.932  0.00  0.00    +0.159 A 
ATOM     23  F   UNL     1       5.513  -3.136  20.998  0.00  0.00    -0.202 F 
ATOM     24  C   UNL     1       7.380  -2.812  22.399  0.00  0.00    +0.055 A 
ENDBRANCH  13  16
ENDBRANCH   7   8
BRANCH   1  28
ATOM     25  C   UNL     1       8.738   4.924  23.321  0.00  0.00    +0.101 C 
ATOM     26  C   UNL     1       8.201   3.570  22.840  0.00  0.00    +0.033 C 
ATOM     27  C   UNL     1       6.895   3.185  23.543  0.00  0.00    +0.106 C 
ATOM     28  N   UNL     1       7.094   3.205  25.003  0.00  0.00    -0.328 N 
ATOM     29  C   UNL     1       7.560   4.485  25.545  0.00  0.00    +0.106 C 
ATOM     30  C   UNL     1       8.846   4.931  24.845  0.00  0.00    +0.033 C 
BRANCH  25  31
ATOM     31  C   UNL     1       7.895   6.077  22.801  0.00  0.00    +0.308 C 
ATOM     32  O   UNL     1       7.497   7.013  23.477  0.00  0.00    -0.251 OA
BRANCH  31  33
ATOM     33  O   UNL     1       7.573   5.962  21.493  0.00  0.00    -0.480 OA
ATOM     34  H   UNL     1       7.040   5.178  21.267  0.00  0.00    +0.295 HD
ENDBRANCH  31  33
ENDBRANCH  25  31
ENDBRANCH   1  28
TORSDOF 5
ENDMDL
