MODEL 1
REMARK VINA RESULT:      -8.0      0.000      0.000
REMARK  Name = 
REMARK  11 active torsions:
REMARK  status: ('A' for Active; 'I' for Inactive)
REMARK    1  A    between atoms: C_2  and  C_3
REMARK    2  A    between atoms: C_2  and  N_8
REMARK    3  A    between atoms: C_2  and  C_28
REMARK    4  A    between atoms: C_3  and  C_4
REMARK    5  A    between atoms: C_4  and  C_5
REMARK    6  A    between atoms: C_5  and  O_6
REMARK    7  A    between atoms: C_9  and  C_11
REMARK    8  A    between atoms: C_18  and  C_21
REMARK    9  A    between atoms: C_21  and  P_24
REMARK   10  A    between atoms: P_24  and  O_25
REMARK   11  A    between atoms: P_24  and  O_26
REMARK                            x       y       z     vdW  Elec       q    Type
REMARK                         _______ _______ _______ _____ _____    ______ ____
ROOT
ATOM      1  C   UNL     1       8.736  -0.776  24.643  0.00  0.00    +0.037 A 
ATOM      2  C   UNL     1      10.001  -0.814  24.053  0.00  0.00    +0.013 A 
ATOM      3  C   UNL     1      10.650   0.382  23.720  0.00  0.00    +0.009 A 
ATOM      4  C   UNL     1      10.043   1.621  23.977  0.00  0.00    -0.017 A 
ATOM      5  C   UNL     1      10.687   2.832  23.676  0.00  0.00    +0.018 A 
ATOM      6  C   UNL     1      10.087   4.064  23.976  0.00  0.00    +0.033 A 
ATOM      7  C   UNL     1       8.820   4.081  24.573  0.00  0.00    +0.011 A 
ATOM      8  C   UNL     1       8.161   2.887  24.860  0.00  0.00    +0.009 A 
ATOM      9  C   UNL     1       8.761   1.655  24.572  0.00  0.00    -0.017 A 
ATOM     10  C   UNL     1       8.115   0.455  24.884  0.00  0.00    +0.021 A 
ENDROOT
BRANCH   1  13
ATOM     11  N   UNL     1       8.406  -3.176  24.433  0.00  0.00    -0.300 N 
ATOM     12  H   UNL     1       9.227  -3.204  23.835  0.00  0.00    +0.150 HD
ATOM     13  C   UNL     1       7.997  -2.007  25.023  0.00  0.00    +0.245 C 
ATOM     14  O   UNL     1       7.101  -1.962  25.859  0.00  0.00    -0.270 OA
BRANCH  11  15
ATOM     15  C   UNL     1       7.827  -4.461  24.806  0.00  0.00    +0.159 C 
BRANCH  15  16
ATOM     16  C   UNL     1       8.707  -5.035  25.927  0.00  0.00    +0.231 C 
ATOM     17  O   UNL     1       8.379  -5.014  27.111  0.00  0.00    -0.274 OA
ATOM     18  N   UNL     1       9.912  -5.548  25.543  0.00  0.00    -0.328 N 
ATOM     19  H   UNL     1      10.471  -5.977  26.271  0.00  0.00    +0.145 HD
ATOM     20  H   UNL     1      10.112  -5.809  24.586  0.00  0.00    +0.145 HD
ENDBRANCH  15  16
BRANCH  15  21
ATOM     21  C   UNL     1       7.764  -5.374  23.577  0.00  0.00    +0.043 C 
BRANCH  21  22
ATOM     22  C   UNL     1       7.171  -4.701  22.344  0.00  0.00    +0.123 C 
BRANCH  22  23
ATOM     23  C   UNL     1       6.165  -5.582  21.652  0.00  0.00    +0.305 C 
ATOM     24  O   UNL     1       5.971  -5.573  20.448  0.00  0.00    -0.251 OA
BRANCH  23  25
ATOM     25  O   UNL     1       5.505  -6.421  22.480  0.00  0.00    -0.481 OA
ATOM     26  H   UNL     1       5.803  -6.396  23.406  0.00  0.00    +0.295 HD
ENDBRANCH  23  25
ENDBRANCH  22  23
ENDBRANCH  21  22
ENDBRANCH  15  21
ENDBRANCH  11  15
ENDBRANCH   1  13
BRANCH   6  27
ATOM     27  C   UNL     1      10.845   5.349  23.785  0.00  0.00    +0.371 C 
ATOM     28  F   UNL     1      10.946   6.104  24.923  0.00  0.00    -0.187 F 
ATOM     29  F   UNL     1      10.356   6.184  22.823  0.00  0.00    -0.187 F 
BRANCH  27  30
ATOM     30  P   UNL     1      12.618   5.117  23.391  0.00  0.00    +0.401 P 
ATOM     31  O   UNL     1      14.117   4.922  23.058  0.00  0.00    -0.252 OA
BRANCH  30  32
ATOM     32  O   UNL     1      12.942   6.501  24.268  0.00  0.00    -0.320 OA
ATOM     33  H   UNL     1      13.316   6.313  25.155  0.00  0.00    +0.220 HD
ENDBRANCH  30  32
BRANCH  30  34
ATOM     34  O   UNL     1      12.318   5.928  21.967  0.00  0.00    -0.320 OA
ATOM     35  H   UNL     1      11.743   5.372  21.399  0.00  0.00    +0.220 HD
ENDBRANCH  30  34
ENDBRANCH  27  30
ENDBRANCH   6  27
TORSDOF 11
ENDMDL
MODEL 2
REMARK VINA RESULT:      -7.7      4.881      9.811
REMARK  Name = 
REMARK  11 active torsions:
REMARK  status: ('A' for Active; 'I' for Inactive)
REMARK    1  A    between atoms: C_2  and  C_3
REMARK    2  A    between atoms: C_2  and  N_8
REMARK    3  A    between atoms: C_2  and  C_28
REMARK    4  A    between atoms: C_3  and  C_4
REMARK    5  A    between atoms: C_4  and  C_5
REMARK    6  A    between atoms: C_5  and  O_6
REMARK    7  A    between atoms: C_9  and  C_11
REMARK    8  A    between atoms: C_18  and  C_21
REMARK    9  A    between atoms: C_21  and  P_24
REMARK   10  A    between atoms: P_24  and  O_25
REMARK   11  A    between atoms: P_24  and  O_26
REMARK                            x       y       z     vdW  Elec       q    Type
REMARK                         _______ _______ _______ _____ _____    ______ ____
ROOT
ATOM      1  C   UNL     1       8.675   1.609  23.714  0.00  0.00    +0.037 A 
ATOM      2  C   UNL     1       9.009   1.279  22.399  0.00  0.00    +0.013 A 
ATOM      3  C   UNL     1       8.834  -0.034  21.944  0.00  0.00    +0.009 A 
ATOM      4  C   UNL     1       8.321  -1.024  22.797  0.00  0.00    -0.017 A 
ATOM      5  C   UNL     1       8.112  -2.340  22.354  0.00  0.00    +0.018 A 
ATOM      6  C   UNL     1       7.561  -3.310  23.204  0.00  0.00    +0.033 A 
ATOM      7  C   UNL     1       7.226  -2.959  24.518  0.00  0.00    +0.011 A 
ATOM      8  C   UNL     1       7.445  -1.661  24.977  0.00  0.00    +0.009 A 
ATOM      9  C   UNL     1       7.987  -0.687  24.128  0.00  0.00    -0.017 A 
ATOM     10  C   UNL     1       8.182   0.623  24.577  0.00  0.00    +0.021 A 
ENDROOT
BRANCH   1  13
ATOM     11  N   UNL     1       9.411   3.908  23.424  0.00  0.00    -0.300 N 
ATOM     12  H   UNL     1       9.638   3.680  22.460  0.00  0.00    +0.150 HD
ATOM     13  C   UNL     1       8.833   2.982  24.256  0.00  0.00    +0.245 C 
ATOM     14  O   UNL     1       8.418   3.262  25.376  0.00  0.00    -0.270 OA
BRANCH  11  15
ATOM     15  C   UNL     1       9.523   5.310  23.807  0.00  0.00    +0.159 C 
BRANCH  15  16
ATOM     16  C   UNL     1       8.384   6.056  23.094  0.00  0.00    +0.231 C 
ATOM     17  O   UNL     1       7.900   7.101  23.521  0.00  0.00    -0.274 OA
ATOM     18  N   UNL     1       7.900   5.472  21.959  0.00  0.00    -0.328 N 
ATOM     19  H   UNL     1       7.188   5.987  21.457  0.00  0.00    +0.145 HD
ATOM     20  H   UNL     1       8.417   4.768  21.447  0.00  0.00    +0.145 HD
ENDBRANCH  15  16
BRANCH  15  21
ATOM     21  C   UNL     1      10.909   5.841  23.422  0.00  0.00    +0.043 C 
BRANCH  21  22
ATOM     22  C   UNL     1      11.987   4.763  23.382  0.00  0.00    +0.123 C 
BRANCH  22  23
ATOM     23  C   UNL     1      13.227   5.235  22.673  0.00  0.00    +0.305 C 
ATOM     24  O   UNL     1      13.214   5.864  21.628  0.00  0.00    -0.251 OA
BRANCH  23  25
ATOM     25  O   UNL     1      14.378   4.929  23.313  0.00  0.00    -0.481 OA
ATOM     26  H   UNL     1      15.101   4.636  22.730  0.00  0.00    +0.295 HD
ENDBRANCH  23  25
ENDBRANCH  22  23
ENDBRANCH  21  22
ENDBRANCH  15  21
ENDBRANCH  11  15
ENDBRANCH   1  13
BRANCH   6  27
ATOM     27  C   UNL     1       7.205  -4.673  22.677  0.00  0.00    +0.371 C 
ATOM     28  F   UNL     1       7.716  -5.703  23.421  0.00  0.00    -0.187 F 
ATOM     29  F   UNL     1       7.578  -4.923  21.388  0.00  0.00    -0.187 F 
BRANCH  27  30
ATOM     30  P   UNL     1       5.419  -5.064  22.765  0.00  0.00    +0.401 P 
ATOM     31  O   UNL     1       3.909  -5.395  22.839  0.00  0.00    -0.252 OA
BRANCH  30  32
ATOM     32  O   UNL     1       5.675  -6.257  21.626  0.00  0.00    -0.320 OA
ATOM     33  H   UNL     1       4.938  -6.902  21.574  0.00  0.00    +0.220 HD
ENDBRANCH  30  32
BRANCH  30  34
ATOM     34  O   UNL     1       5.188  -3.854  21.643  0.00  0.00    -0.320 OA
ATOM     35  H   UNL     1       4.494  -4.135  21.010  0.00  0.00    +0.220 HD
ENDBRANCH  30  34
ENDBRANCH  27  30
ENDBRANCH   6  27
TORSDOF 11
ENDMDL
MODEL 3
REMARK VINA RESULT:      -7.5      4.892      9.358
REMARK  Name = 
REMARK  11 active torsions:
REMARK  status: ('A' for Active; 'I' for Inactive)
REMARK    1  A    between atoms: C_2  and  C_3
REMARK    2  A    between atoms: C_2  and  N_8
REMARK    3  A    between atoms: C_2  and  C_28
REMARK    4  A    between atoms: C_3  and  C_4
REMARK    5  A    between atoms: C_4  and  C_5
REMARK    6  A    between atoms: C_5  and  O_6
REMARK    7  A    between atoms: C_9  and  C_11
REMARK    8  A    between atoms: C_18  and  C_21
REMARK    9  A    between atoms: C_21  and  P_24
REMARK   10  A    between atoms: P_24  and  O_25
REMARK   11  A    between atoms: P_24  and  O_26
REMARK                            x       y       z     vdW  Elec       q    Type
REMARK                         _______ _______ _______ _____ _____    ______ ____
ROOT
ATOM      1  C   UNL     1       9.776   1.593  23.143  0.00  0.00    +0.037 A 
ATOM      2  C   UNL     1       9.872   1.137  21.827  0.00  0.00    +0.013 A 
ATOM      3  C   UNL     1       9.442  -0.156  21.503  0.00  0.00    +0.009 A 
ATOM      4  C   UNL     1       8.910  -1.000  22.490  0.00  0.00    -0.017 A 
ATOM      5  C   UNL     1       8.447  -2.290  22.184  0.00  0.00    +0.018 A 
ATOM      6  C   UNL     1       7.880  -3.108  23.171  0.00  0.00    +0.033 A 
ATOM      7  C   UNL     1       7.786  -2.632  24.485  0.00  0.00    +0.011 A 
ATOM      8  C   UNL     1       8.258  -1.360  24.808  0.00  0.00    +0.009 A 
ATOM      9  C   UNL     1       8.816  -0.536  23.823  0.00  0.00    -0.017 A 
ATOM     10  C   UNL     1       9.265   0.751  24.137  0.00  0.00    +0.021 A 
ENDROOT
BRANCH   1  13
ATOM     11  N   UNL     1       9.238   3.790  24.036  0.00  0.00    -0.300 N 
ATOM     12  H   UNL     1       8.289   3.460  24.188  0.00  0.00    +0.150 HD
ATOM     13  C   UNL     1      10.211   2.954  23.549  0.00  0.00    +0.245 C 
ATOM     14  O   UNL     1      11.393   3.274  23.486  0.00  0.00    -0.270 OA
BRANCH  11  15
ATOM     15  C   UNL     1       9.563   5.110  24.562  0.00  0.00    +0.159 C 
BRANCH  15  16
ATOM     16  C   UNL     1       8.591   5.376  25.722  0.00  0.00    +0.231 C 
ATOM     17  O   UNL     1       8.804   6.215  26.594  0.00  0.00    -0.274 OA
ATOM     18  N   UNL     1       7.471   4.595  25.760  0.00  0.00    -0.328 N 
ATOM     19  H   UNL     1       6.802   4.803  26.490  0.00  0.00    +0.145 HD
ATOM     20  H   UNL     1       7.138   4.082  24.953  0.00  0.00    +0.145 HD
ENDBRANCH  15  16
BRANCH  15  21
ATOM     21  C   UNL     1       9.449   6.153  23.445  0.00  0.00    +0.043 C 
BRANCH  21  22
ATOM     22  C   UNL     1       8.029   6.664  23.227  0.00  0.00    +0.123 C 
BRANCH  22  23
ATOM     23  C   UNL     1       7.363   5.991  22.058  0.00  0.00    +0.305 C 
ATOM     24  O   UNL     1       7.204   4.784  21.970  0.00  0.00    -0.251 OA
BRANCH  23  25
ATOM     25  O   UNL     1       6.916   6.844  21.110  0.00  0.00    -0.481 OA
ATOM     26  H   UNL     1       6.144   6.528  20.610  0.00  0.00    +0.295 HD
ENDBRANCH  23  25
ENDBRANCH  22  23
ENDBRANCH  21  22
ENDBRANCH  15  21
ENDBRANCH  11  15
ENDBRANCH   1  13
BRANCH   6  27
ATOM     27  C   UNL     1       7.255  -4.426  22.805  0.00  0.00    +0.371 C 
ATOM     28  F   UNL     1       7.539  -5.436  23.685  0.00  0.00    -0.187 F 
ATOM     29  F   UNL     1       7.577  -4.907  21.569  0.00  0.00    -0.187 F 
BRANCH  27  30
ATOM     30  P   UNL     1       5.427  -4.433  22.882  0.00  0.00    +0.401 P 
ATOM     31  O   UNL     1       3.880  -4.438  22.947  0.00  0.00    -0.252 OA
BRANCH  30  32
ATOM     32  O   UNL     1       5.454  -5.971  22.233  0.00  0.00    -0.320 OA
ATOM     33  H   UNL     1       4.935  -6.616  22.757  0.00  0.00    +0.220 HD
ENDBRANCH  30  32
BRANCH  30  34
ATOM     34  O   UNL     1       5.448  -3.663  21.404  0.00  0.00    -0.320 OA
ATOM     35  H   UNL     1       5.155  -2.735  21.524  0.00  0.00    +0.220 HD
ENDBRANCH  30  34
ENDBRANCH  27  30
ENDBRANCH   6  27
TORSDOF 11
ENDMDL
MODEL 4
REMARK VINA RESULT:      -7.4      4.884      9.210
REMARK  Name = 
REMARK  11 active torsions:
REMARK  status: ('A' for Active; 'I' for Inactive)
REMARK    1  A    between atoms: C_2  and  C_3
REMARK    2  A    between atoms: C_2  and  N_8
REMARK    3  A    between atoms: C_2  and  C_28
REMARK    4  A    between atoms: C_3  and  C_4
REMARK    5  A    between atoms: C_4  and  C_5
REMARK    6  A    between atoms: C_5  and  O_6
REMARK    7  A    between atoms: C_9  and  C_11
REMARK    8  A    between atoms: C_18  and  C_21
REMARK    9  A    between atoms: C_21  and  P_24
REMARK   10  A    between atoms: P_24  and  O_25
REMARK   11  A    between atoms: P_24  and  O_26
REMARK                            x       y       z     vdW  Elec       q    Type
REMARK                         _______ _______ _______ _____ _____    ______ ____
ROOT
ATOM      1  C   UNL     1      10.051   1.973  23.381  0.00  0.00    +0.037 A 
ATOM      2  C   UNL     1      10.073   1.217  22.207  0.00  0.00    +0.013 A 
ATOM      3  C   UNL     1       9.766  -0.149  22.252  0.00  0.00    +0.009 A 
ATOM      4  C   UNL     1       9.432  -0.767  23.466  0.00  0.00    -0.017 A 
ATOM      5  C   UNL     1       9.095  -2.128  23.531  0.00  0.00    +0.018 A 
ATOM      6  C   UNL     1       8.723  -2.725  24.744  0.00  0.00    +0.033 A 
ATOM      7  C   UNL     1       8.701  -1.949  25.910  0.00  0.00    +0.011 A 
ATOM      8  C   UNL     1       9.051  -0.601  25.865  0.00  0.00    +0.009 A 
ATOM      9  C   UNL     1       9.414   0.001  24.653  0.00  0.00    -0.017 A 
ATOM     10  C   UNL     1       9.739   1.360  24.599  0.00  0.00    +0.021 A 
ENDROOT
BRANCH   1  13
ATOM     11  N   UNL     1       9.294   4.282  23.495  0.00  0.00    -0.300 N 
ATOM     12  H   UNL     1       8.350   3.932  23.632  0.00  0.00    +0.150 HD
ATOM     13  C   UNL     1      10.362   3.425  23.399  0.00  0.00    +0.245 C 
ATOM     14  O   UNL     1      11.526   3.812  23.375  0.00  0.00    -0.270 OA
BRANCH  11  15
ATOM     15  C   UNL     1       9.482   5.721  23.627  0.00  0.00    +0.159 C 
BRANCH  15  16
ATOM     16  C   UNL     1       9.475   6.032  25.131  0.00  0.00    +0.231 C 
ATOM     17  O   UNL     1      10.311   6.756  25.668  0.00  0.00    -0.274 OA
ATOM     18  N   UNL     1       8.498   5.426  25.867  0.00  0.00    -0.328 N 
ATOM     19  H   UNL     1       8.455   5.672  26.848  0.00  0.00    +0.145 HD
ATOM     20  H   UNL     1       7.663   5.037  25.446  0.00  0.00    +0.145 HD
ENDBRANCH  15  16
BRANCH  15  21
ATOM     21  C   UNL     1       8.375   6.458  22.865  0.00  0.00    +0.043 C 
BRANCH  21  22
ATOM     22  C   UNL     1       7.410   5.528  22.138  0.00  0.00    +0.123 C 
BRANCH  22  23
ATOM     23  C   UNL     1       6.133   5.329  22.908  0.00  0.00    +0.305 C 
ATOM     24  O   UNL     1       6.087   4.876  24.040  0.00  0.00    -0.251 OA
BRANCH  23  25
ATOM     25  O   UNL     1       5.023   5.728  22.249  0.00  0.00    -0.481 OA
ATOM     26  H   UNL     1       4.846   5.245  21.423  0.00  0.00    +0.295 HD
ENDBRANCH  23  25
ENDBRANCH  22  23
ENDBRANCH  21  22
ENDBRANCH  15  21
ENDBRANCH  11  15
ENDBRANCH   1  13
BRANCH   6  27
ATOM     27  C   UNL     1       8.223  -4.143  24.777  0.00  0.00    +0.371 C 
ATOM     28  F   UNL     1       9.194  -5.077  24.530  0.00  0.00    -0.187 F 
ATOM     29  F   UNL     1       7.203  -4.428  23.915  0.00  0.00    -0.187 F 
BRANCH  27  30
ATOM     30  P   UNL     1       7.652  -4.695  26.425  0.00  0.00    +0.401 P 
ATOM     31  O   UNL     1       7.169  -5.162  27.820  0.00  0.00    -0.252 OA
BRANCH  30  32
ATOM     32  O   UNL     1       8.742  -5.956  26.326  0.00  0.00    -0.320 OA
ATOM     33  H   UNL     1       9.095  -6.227  27.200  0.00  0.00    +0.220 HD
ENDBRANCH  30  32
BRANCH  30  34
ATOM     34  O   UNL     1       6.432  -5.510  25.635  0.00  0.00    -0.320 OA
ATOM     35  H   UNL     1       6.604  -6.474  25.691  0.00  0.00    +0.220 HD
ENDBRANCH  30  34
ENDBRANCH  27  30
ENDBRANCH   6  27
TORSDOF 11
ENDMDL
MODEL 5
REMARK VINA RESULT:      -7.3      4.670      9.439
REMARK  Name = 
REMARK  11 active torsions:
REMARK  status: ('A' for Active; 'I' for Inactive)
REMARK    1  A    between atoms: C_2  and  C_3
REMARK    2  A    between atoms: C_2  and  N_8
REMARK    3  A    between atoms: C_2  and  C_28
REMARK    4  A    between atoms: C_3  and  C_4
REMARK    5  A    between atoms: C_4  and  C_5
REMARK    6  A    between atoms: C_5  and  O_6
REMARK    7  A    between atoms: C_9  and  C_11
REMARK    8  A    between atoms: C_18  and  C_21
REMARK    9  A    between atoms: C_21  and  P_24
REMARK   10  A    between atoms: P_24  and  O_25
REMARK   11  A    between atoms: P_24  and  O_26
REMARK                            x       y       z     vdW  Elec       q    Type
REMARK                         _______ _______ _______ _____ _____    ______ ____
ROOT
ATOM      1  C   UNL     1       8.112   2.476  25.338  0.00  0.00    +0.037 A 
ATOM      2  C   UNL     1       7.158   1.831  26.129  0.00  0.00    +0.013 A 
ATOM      3  C   UNL     1       7.099   0.432  26.147  0.00  0.00    +0.009 A 
ATOM      4  C   UNL     1       7.993  -0.332  25.380  0.00  0.00    -0.017 A 
ATOM      5  C   UNL     1       7.969  -1.735  25.404  0.00  0.00    +0.018 A 
ATOM      6  C   UNL     1       8.894  -2.487  24.665  0.00  0.00    +0.033 A 
ATOM      7  C   UNL     1       9.846  -1.823  23.882  0.00  0.00    +0.011 A 
ATOM      8  C   UNL     1       9.870  -0.430  23.834  0.00  0.00    +0.009 A 
ATOM      9  C   UNL     1       8.954   0.324  24.578  0.00  0.00    -0.017 A 
ATOM     10  C   UNL     1       8.993   1.722  24.554  0.00  0.00    +0.021 A 
ENDROOT
BRANCH   1  13
ATOM     11  N   UNL     1       8.403   4.508  24.034  0.00  0.00    -0.300 N 
ATOM     12  H   UNL     1       8.367   3.936  23.195  0.00  0.00    +0.150 HD
ATOM     13  C   UNL     1       8.229   3.955  25.278  0.00  0.00    +0.245 C 
ATOM     14  O   UNL     1       8.125   4.629  26.297  0.00  0.00    -0.270 OA
BRANCH  11  15
ATOM     15  C   UNL     1       8.425   5.952  23.839  0.00  0.00    +0.159 C 
BRANCH  15  16
ATOM     16  C   UNL     1       7.275   6.287  22.878  0.00  0.00    +0.231 C 
ATOM     17  O   UNL     1       6.173   6.673  23.262  0.00  0.00    -0.274 OA
ATOM     18  N   UNL     1       7.526   6.098  21.549  0.00  0.00    -0.328 N 
ATOM     19  H   UNL     1       6.790   6.369  20.909  0.00  0.00    +0.145 HD
ATOM     20  H   UNL     1       8.465   6.026  21.178  0.00  0.00    +0.145 HD
ENDBRANCH  15  16
BRANCH  15  21
ATOM     21  C   UNL     1       9.794   6.378  23.296  0.00  0.00    +0.043 C 
BRANCH  21  22
ATOM     22  C   UNL     1      10.964   5.926  24.162  0.00  0.00    +0.123 C 
BRANCH  22  23
ATOM     23  C   UNL     1      11.888   4.999  23.420  0.00  0.00    +0.305 C 
ATOM     24  O   UNL     1      13.076   5.219  23.249  0.00  0.00    -0.251 OA
BRANCH  23  25
ATOM     25  O   UNL     1      11.296   3.868  22.976  0.00  0.00    -0.481 OA
ATOM     26  H   UNL     1      11.785   3.403  22.274  0.00  0.00    +0.295 HD
ENDBRANCH  23  25
ENDBRANCH  22  23
ENDBRANCH  21  22
ENDBRANCH  15  21
ENDBRANCH  11  15
ENDBRANCH   1  13
BRANCH   6  27
ATOM     27  C   UNL     1       8.954  -3.983  24.813  0.00  0.00    +0.371 C 
ATOM     28  F   UNL     1      10.222  -4.470  24.987  0.00  0.00    -0.187 F 
ATOM     29  F   UNL     1       8.417  -4.698  23.782  0.00  0.00    -0.187 F 
BRANCH  27  30
ATOM     30  P   UNL     1       8.151  -4.615  26.331  0.00  0.00    +0.401 P 
ATOM     31  O   UNL     1       7.472  -5.150  27.615  0.00  0.00    -0.252 OA
BRANCH  30  32
ATOM     32  O   UNL     1       8.925  -6.072  26.074  0.00  0.00    -0.320 OA
ATOM     33  H   UNL     1       9.864  -6.062  26.358  0.00  0.00    +0.220 HD
ENDBRANCH  30  32
BRANCH  30  34
ATOM     34  O   UNL     1       6.838  -4.991  25.376  0.00  0.00    -0.320 OA
ATOM     35  H   UNL     1       7.139  -5.544  24.624  0.00  0.00    +0.220 HD
ENDBRANCH  30  34
ENDBRANCH  27  30
ENDBRANCH   6  27
TORSDOF 11
ENDMDL
MODEL 6
REMARK VINA RESULT:      -7.1      4.845      9.526
REMARK  Name = 
REMARK  11 active torsions:
REMARK  status: ('A' for Active; 'I' for Inactive)
REMARK    1  A    between atoms: C_2  and  C_3
REMARK    2  A    between atoms: C_2  and  N_8
REMARK    3  A    between atoms: C_2  and  C_28
REMARK    4  A    between atoms: C_3  and  C_4
REMARK    5  A    between atoms: C_4  and  C_5
REMARK    6  A    between atoms: C_5  and  O_6
REMARK    7  A    between atoms: C_9  and  C_11
REMARK    8  A    between atoms: C_18  and  C_21
REMARK    9  A    between atoms: C_21  and  P_24
REMARK   10  A    between atoms: P_24  and  O_25
REMARK   11  A    between atoms: P_24  and  O_26
REMARK                            x       y       z     vdW  Elec       q    Type
REMARK                         _______ _______ _______ _____ _____    ______ ____
ROOT
ATOM      1  C   UNL     1       9.369   1.592  23.423  0.00  0.00    +0.037 A 
ATOM      2  C   UNL     1       9.862   0.652  22.516  0.00  0.00    +0.013 A 
ATOM      3  C   UNL     1       9.855  -0.709  22.849  0.00  0.00    +0.009 A 
ATOM      4  C   UNL     1       9.351  -1.139  24.086  0.00  0.00    -0.017 A 
ATOM      5  C   UNL     1       9.308  -2.500  24.429  0.00  0.00    +0.018 A 
ATOM      6  C   UNL     1       8.765  -2.921  25.652  0.00  0.00    +0.033 A 
ATOM      7  C   UNL     1       8.270  -1.964  26.547  0.00  0.00    +0.011 A 
ATOM      8  C   UNL     1       8.322  -0.608  26.227  0.00  0.00    +0.009 A 
ATOM      9  C   UNL     1       8.855  -0.185  25.003  0.00  0.00    -0.017 A 
ATOM     10  C   UNL     1       8.884   1.173  24.667  0.00  0.00    +0.021 A 
ENDROOT
BRANCH   1  13
ATOM     11  N   UNL     1      10.366   3.797  23.658  0.00  0.00    -0.300 N 
ATOM     12  H   UNL     1      11.140   3.359  24.151  0.00  0.00    +0.150 HD
ATOM     13  C   UNL     1       9.346   3.047  23.129  0.00  0.00    +0.245 C 
ATOM     14  O   UNL     1       8.474   3.523  22.410  0.00  0.00    -0.270 OA
BRANCH  11  15
ATOM     15  C   UNL     1      10.507   5.215  23.351  0.00  0.00    +0.159 C 
BRANCH  15  16
ATOM     16  C   UNL     1      12.013   5.521  23.350  0.00  0.00    +0.231 C 
ATOM     17  O   UNL     1      12.614   5.920  24.345  0.00  0.00    -0.274 OA
ATOM     18  N   UNL     1      12.659   5.359  22.159  0.00  0.00    -0.328 N 
ATOM     19  H   UNL     1      13.661   5.505  22.168  0.00  0.00    +0.145 HD
ATOM     20  H   UNL     1      12.274   4.808  21.401  0.00  0.00    +0.145 HD
ENDBRANCH  15  16
BRANCH  15  21
ATOM     21  C   UNL     1       9.734   6.045  24.382  0.00  0.00    +0.043 C 
BRANCH  21  22
ATOM     22  C   UNL     1       8.834   7.108  23.762  0.00  0.00    +0.123 C 
BRANCH  22  23
ATOM     23  C   UNL     1       7.631   6.502  23.091  0.00  0.00    +0.305 C 
ATOM     24  O   UNL     1       6.617   6.172  23.684  0.00  0.00    -0.251 OA
BRANCH  23  25
ATOM     25  O   UNL     1       7.750   6.378  21.750  0.00  0.00    -0.481 OA
ATOM     26  H   UNL     1       7.125   5.753  21.343  0.00  0.00    +0.295 HD
ENDBRANCH  23  25
ENDBRANCH  22  23
ENDBRANCH  21  22
ENDBRANCH  15  21
ENDBRANCH  11  15
ENDBRANCH   1  13
BRANCH   6  27
ATOM     27  C   UNL     1       8.590  -4.386  25.946  0.00  0.00    +0.371 C 
ATOM     28  F   UNL     1       9.539  -4.896  26.791  0.00  0.00    -0.187 F 
ATOM     29  F   UNL     1       8.578  -5.208  24.857  0.00  0.00    -0.187 F 
BRANCH  27  30
ATOM     30  P   UNL     1       7.071  -4.781  26.887  0.00  0.00    +0.401 P 
ATOM     31  O   UNL     1       5.786  -5.115  27.683  0.00  0.00    -0.252 OA
BRANCH  30  32
ATOM     32  O   UNL     1       7.891  -6.061  27.578  0.00  0.00    -0.320 OA
ATOM     33  H   UNL     1       8.223  -5.862  28.478  0.00  0.00    +0.220 HD
ENDBRANCH  30  32
BRANCH  30  34
ATOM     34  O   UNL     1       6.573  -5.645  25.552  0.00  0.00    -0.320 OA
ATOM     35  H   UNL     1       7.354  -6.071  25.139  0.00  0.00    +0.220 HD
ENDBRANCH  30  34
ENDBRANCH  27  30
ENDBRANCH   6  27
TORSDOF 11
ENDMDL
MODEL 7
REMARK VINA RESULT:      -6.9      2.812      4.012
REMARK  Name = 
REMARK  11 active torsions:
REMARK  status: ('A' for Active; 'I' for Inactive)
REMARK    1  A    between atoms: C_2  and  C_3
REMARK    2  A    between atoms: C_2  and  N_8
REMARK    3  A    between atoms: C_2  and  C_28
REMARK    4  A    between atoms: C_3  and  C_4
REMARK    5  A    between atoms: C_4  and  C_5
REMARK    6  A    between atoms: C_5  and  O_6
REMARK    7  A    between atoms: C_9  and  C_11
REMARK    8  A    between atoms: C_18  and  C_21
REMARK    9  A    between atoms: C_21  and  P_24
REMARK   10  A    between atoms: P_24  and  O_25
REMARK   11  A    between atoms: P_24  and  O_26
REMARK                            x       y       z     vdW  Elec       q    Type
REMARK                         _______ _______ _______ _____ _____    ______ ____
ROOT
ATOM      1  C   UNL     1       8.646  -1.582  23.985  0.00  0.00    +0.037 A 
ATOM      2  C   UNL     1       9.550  -1.035  24.897  0.00  0.00    +0.013 A 
ATOM      3  C   UNL     1       9.700   0.356  24.981  0.00  0.00    +0.009 A 
ATOM      4  C   UNL     1       8.946   1.207  24.158  0.00  0.00    -0.017 A 
ATOM      5  C   UNL     1       9.060   2.603  24.244  0.00  0.00    +0.018 A 
ATOM      6  C   UNL     1       8.272   3.445  23.445  0.00  0.00    +0.033 A 
ATOM      7  C   UNL     1       7.368   2.877  22.539  0.00  0.00    +0.011 A 
ATOM      8  C   UNL     1       7.257   1.491  22.430  0.00  0.00    +0.009 A 
ATOM      9  C   UNL     1       8.035   0.649  23.233  0.00  0.00    -0.017 A 
ATOM     10  C   UNL     1       7.906  -0.741  23.145  0.00  0.00    +0.021 A 
ENDROOT
BRANCH   1  13
ATOM     11  N   UNL     1       7.174  -3.459  23.514  0.00  0.00    -0.300 N 
ATOM     12  H   UNL     1       6.445  -2.789  23.287  0.00  0.00    +0.150 HD
ATOM     13  C   UNL     1       8.439  -3.046  23.850  0.00  0.00    +0.245 C 
ATOM     14  O   UNL     1       9.377  -3.824  23.991  0.00  0.00    -0.270 OA
BRANCH  11  15
ATOM     15  C   UNL     1       6.876  -4.862  23.252  0.00  0.00    +0.159 C 
BRANCH  15  16
ATOM     16  C   UNL     1       6.087  -4.908  21.934  0.00  0.00    +0.231 C 
ATOM     17  O   UNL     1       5.647  -3.902  21.383  0.00  0.00    -0.274 OA
ATOM     18  N   UNL     1       5.862  -6.148  21.410  0.00  0.00    -0.328 N 
ATOM     19  H   UNL     1       5.392  -6.180  20.514  0.00  0.00    +0.145 HD
ATOM     20  H   UNL     1       6.403  -6.960  21.683  0.00  0.00    +0.145 HD
ENDBRANCH  15  16
BRANCH  15  21
ATOM     21  C   UNL     1       6.093  -5.452  24.431  0.00  0.00    +0.043 C 
BRANCH  21  22
ATOM     22  C   UNL     1       6.151  -4.597  25.692  0.00  0.00    +0.123 C 
BRANCH  22  23
ATOM     23  C   UNL     1       6.988  -5.237  26.767  0.00  0.00    +0.305 C 
ATOM     24  O   UNL     1       8.054  -4.789  27.154  0.00  0.00    -0.251 OA
BRANCH  23  25
ATOM     25  O   UNL     1       6.441  -6.351  27.302  0.00  0.00    -0.481 OA
ATOM     26  H   UNL     1       6.171  -6.263  28.233  0.00  0.00    +0.295 HD
ENDBRANCH  23  25
ENDBRANCH  22  23
ENDBRANCH  21  22
ENDBRANCH  15  21
ENDBRANCH  11  15
ENDBRANCH   1  13
BRANCH   6  27
ATOM     27  C   UNL     1       8.296   4.934  23.648  0.00  0.00    +0.371 C 
ATOM     28  F   UNL     1       9.330   5.563  23.006  0.00  0.00    -0.187 F 
ATOM     29  F   UNL     1       8.354   5.351  24.946  0.00  0.00    -0.187 F 
BRANCH  27  30
ATOM     30  P   UNL     1       6.871   5.811  22.906  0.00  0.00    +0.401 P 
ATOM     31  O   UNL     1       5.666   6.553  22.278  0.00  0.00    -0.252 OA
BRANCH  30  32
ATOM     32  O   UNL     1       7.869   6.263  21.646  0.00  0.00    -0.320 OA
ATOM     33  H   UNL     1       8.650   5.679  21.547  0.00  0.00    +0.220 HD
ENDBRANCH  30  32
BRANCH  30  34
ATOM     34  O   UNL     1       7.277   7.108  23.871  0.00  0.00    -0.320 OA
ATOM     35  H   UNL     1       6.756   7.890  23.590  0.00  0.00    +0.220 HD
ENDBRANCH  30  34
ENDBRANCH  27  30
ENDBRANCH   6  27
TORSDOF 11
ENDMDL
MODEL 8
REMARK VINA RESULT:      -6.8      5.768      9.758
REMARK  Name = 
REMARK  11 active torsions:
REMARK  status: ('A' for Active; 'I' for Inactive)
REMARK    1  A    between atoms: C_2  and  C_3
REMARK    2  A    between atoms: C_2  and  N_8
REMARK    3  A    between atoms: C_2  and  C_28
REMARK    4  A    between atoms: C_3  and  C_4
REMARK    5  A    between atoms: C_4  and  C_5
REMARK    6  A    between atoms: C_5  and  O_6
REMARK    7  A    between atoms: C_9  and  C_11
REMARK    8  A    between atoms: C_18  and  C_21
REMARK    9  A    between atoms: C_21  and  P_24
REMARK   10  A    between atoms: P_24  and  O_25
REMARK   11  A    between atoms: P_24  and  O_26
REMARK                            x       y       z     vdW  Elec       q    Type
REMARK                         _______ _______ _______ _____ _____    ______ ____
ROOT
ATOM      1  C   UNL     1       8.127  -2.623  23.271  0.00  0.00    +0.037 A 
ATOM      2  C   UNL     1       7.424  -3.563  22.516  0.00  0.00    +0.013 A 
ATOM      3  C   UNL     1       6.545  -4.450  23.150  0.00  0.00    +0.009 A 
ATOM      4  C   UNL     1       6.360  -4.402  24.541  0.00  0.00    -0.017 A 
ATOM      5  C   UNL     1       5.464  -5.263  25.194  0.00  0.00    +0.018 A 
ATOM      6  C   UNL     1       5.257  -5.177  26.579  0.00  0.00    +0.033 A 
ATOM      7  C   UNL     1       5.969  -4.224  27.319  0.00  0.00    +0.011 A 
ATOM      8  C   UNL     1       6.875  -3.375  26.686  0.00  0.00    +0.009 A 
ATOM      9  C   UNL     1       7.076  -3.451  25.303  0.00  0.00    -0.017 A 
ATOM     10  C   UNL     1       7.965  -2.582  24.661  0.00  0.00    +0.021 A 
ENDROOT
BRANCH   1  13
ATOM     11  N   UNL     1       9.094  -0.393  23.200  0.00  0.00    -0.300 N 
ATOM     12  H   UNL     1       8.555  -0.168  24.031  0.00  0.00    +0.150 HD
ATOM     13  C   UNL     1       9.071  -1.654  22.659  0.00  0.00    +0.245 C 
ATOM     14  O   UNL     1       9.813  -1.999  21.746  0.00  0.00    -0.270 OA
BRANCH  11  15
ATOM     15  C   UNL     1      10.052   0.611  22.752  0.00  0.00    +0.159 C 
BRANCH  15  16
ATOM     16  C   UNL     1      10.487   1.396  23.998  0.00  0.00    +0.231 C 
ATOM     17  O   UNL     1      11.147   2.430  23.940  0.00  0.00    -0.274 OA
ATOM     18  N   UNL     1      10.128   0.861  25.202  0.00  0.00    -0.328 N 
ATOM     19  H   UNL     1      10.365   1.403  26.023  0.00  0.00    +0.145 HD
ATOM     20  H   UNL     1       9.393   0.170  25.293  0.00  0.00    +0.145 HD
ENDBRANCH  15  16
BRANCH  15  21
ATOM     21  C   UNL     1       9.403   1.502  21.687  0.00  0.00    +0.043 C 
BRANCH  21  22
ATOM     22  C   UNL     1       8.533   2.612  22.267  0.00  0.00    +0.123 C 
BRANCH  22  23
ATOM     23  C   UNL     1       7.066   2.312  22.118  0.00  0.00    +0.305 C 
ATOM     24  O   UNL     1       6.574   1.214  22.319  0.00  0.00    -0.251 OA
BRANCH  23  25
ATOM     25  O   UNL     1       6.316   3.381  21.768  0.00  0.00    -0.481 OA
ATOM     26  H   UNL     1       5.619   3.614  22.405  0.00  0.00    +0.295 HD
ENDBRANCH  23  25
ENDBRANCH  22  23
ENDBRANCH  21  22
ENDBRANCH  15  21
ENDBRANCH  11  15
ENDBRANCH   1  13
BRANCH   6  27
ATOM     27  C   UNL     1       4.190  -6.002  27.245  0.00  0.00    +0.371 C 
ATOM     28  F   UNL     1       4.004  -7.230  26.671  0.00  0.00    -0.187 F 
ATOM     29  F   UNL     1       2.955  -5.426  27.307  0.00  0.00    -0.187 F 
BRANCH  27  30
ATOM     30  P   UNL     1       4.595  -6.501  28.958  0.00  0.00    +0.401 P 
ATOM     31  O   UNL     1       4.937  -6.924  30.408  0.00  0.00    -0.252 OA
BRANCH  30  32
ATOM     32  O   UNL     1       5.649  -7.631  28.327  0.00  0.00    -0.320 OA
ATOM     33  H   UNL     1       6.587  -7.442  28.542  0.00  0.00    +0.220 HD
ENDBRANCH  30  32
BRANCH  30  34
ATOM     34  O   UNL     1       3.265  -7.503  28.888  0.00  0.00    -0.320 OA
ATOM     35  H   UNL     1       3.455  -8.321  29.395  0.00  0.00    +0.220 HD
ENDBRANCH  30  34
ENDBRANCH  27  30
ENDBRANCH   6  27
TORSDOF 11
ENDMDL
MODEL 9
REMARK VINA RESULT:      -6.8      2.535      3.654
REMARK  Name = 
REMARK  11 active torsions:
REMARK  status: ('A' for Active; 'I' for Inactive)
REMARK    1  A    between atoms: C_2  and  C_3
REMARK    2  A    between atoms: C_2  and  N_8
REMARK    3  A    between atoms: C_2  and  C_28
REMARK    4  A    between atoms: C_3  and  C_4
REMARK    5  A    between atoms: C_4  and  C_5
REMARK    6  A    between atoms: C_5  and  O_6
REMARK    7  A    between atoms: C_9  and  C_11
REMARK    8  A    between atoms: C_18  and  C_21
REMARK    9  A    between atoms: C_21  and  P_24
REMARK   10  A    between atoms: P_24  and  O_25
REMARK   11  A    between atoms: P_24  and  O_26
REMARK                            x       y       z     vdW  Elec       q    Type
REMARK                         _______ _______ _______ _____ _____    ______ ____
ROOT
ATOM      1  C   UNL     1       8.945  -1.081  23.830  0.00  0.00    +0.037 A 
ATOM      2  C   UNL     1       9.825  -0.521  24.758  0.00  0.00    +0.013 A 
ATOM      3  C   UNL     1       9.926   0.871  24.870  0.00  0.00    +0.009 A 
ATOM      4  C   UNL     1       9.148   1.713  24.061  0.00  0.00    -0.017 A 
ATOM      5  C   UNL     1       9.213   3.110  24.174  0.00  0.00    +0.018 A 
ATOM      6  C   UNL     1       8.400   3.940  23.388  0.00  0.00    +0.033 A 
ATOM      7  C   UNL     1       7.520   3.359  22.466  0.00  0.00    +0.011 A 
ATOM      8  C   UNL     1       7.457   1.973  22.329  0.00  0.00    +0.009 A 
ATOM      9  C   UNL     1       8.260   1.142  23.119  0.00  0.00    -0.017 A 
ATOM     10  C   UNL     1       8.181  -0.249  23.003  0.00  0.00    +0.021 A 
ENDROOT
BRANCH   1  13
ATOM     11  N   UNL     1       7.521  -3.007  23.414  0.00  0.00    -0.300 N 
ATOM     12  H   UNL     1       6.748  -2.364  23.266  0.00  0.00    +0.150 HD
ATOM     13  C   UNL     1       8.789  -2.549  23.664  0.00  0.00    +0.245 C 
ATOM     14  O   UNL     1       9.767  -3.287  23.708  0.00  0.00    -0.270 OA
BRANCH  11  15
ATOM     15  C   UNL     1       7.262  -4.414  23.131  0.00  0.00    +0.159 C 
BRANCH  15  16
ATOM     16  C   UNL     1       6.406  -4.458  21.855  0.00  0.00    +0.231 C 
ATOM     17  O   UNL     1       5.690  -3.526  21.498  0.00  0.00    -0.274 OA
ATOM     18  N   UNL     1       6.452  -5.620  21.140  0.00  0.00    -0.328 N 
ATOM     19  H   UNL     1       5.935  -5.634  20.271  0.00  0.00    +0.145 HD
ATOM     20  H   UNL     1       7.196  -6.299  21.252  0.00  0.00    +0.145 HD
ENDBRANCH  15  16
BRANCH  15  21
ATOM     21  C   UNL     1       6.566  -5.062  24.333  0.00  0.00    +0.043 C 
BRANCH  21  22
ATOM     22  C   UNL     1       7.495  -5.310  25.517  0.00  0.00    +0.123 C 
BRANCH  22  23
ATOM     23  C   UNL     1       6.731  -5.578  26.785  0.00  0.00    +0.305 C 
ATOM     24  O   UNL     1       6.895  -4.956  27.821  0.00  0.00    -0.251 OA
BRANCH  23  25
ATOM     25  O   UNL     1       5.808  -6.560  26.676  0.00  0.00    -0.481 OA
ATOM     26  H   UNL     1       6.095  -7.330  26.155  0.00  0.00    +0.295 HD
ENDBRANCH  23  25
ENDBRANCH  22  23
ENDBRANCH  21  22
ENDBRANCH  15  21
ENDBRANCH  11  15
ENDBRANCH   1  13
BRANCH   6  27
ATOM     27  C   UNL     1       8.371   5.425  23.621  0.00  0.00    +0.371 C 
ATOM     28  F   UNL     1       7.116   5.969  23.561  0.00  0.00    -0.187 F 
ATOM     29  F   UNL     1       9.142   6.169  22.777  0.00  0.00    -0.187 F 
BRANCH  27  30
ATOM     30  P   UNL     1       8.860   5.924  25.313  0.00  0.00    +0.401 P 
ATOM     31  O   UNL     1       9.274   6.345  26.744  0.00  0.00    -0.252 OA
BRANCH  30  32
ATOM     32  O   UNL     1       7.480   6.860  25.383  0.00  0.00    -0.320 OA
ATOM     33  H   UNL     1       7.670   7.813  25.514  0.00  0.00    +0.220 HD
ENDBRANCH  30  32
BRANCH  30  34
ATOM     34  O   UNL     1       9.791   7.108  24.602  0.00  0.00    -0.320 OA
ATOM     35  H   UNL     1       9.598   7.967  25.033  0.00  0.00    +0.220 HD
ENDBRANCH  30  34
ENDBRANCH  27  30
ENDBRANCH   6  27
TORSDOF 11
ENDMDL
