MODEL 1
REMARK VINA RESULT:      -6.6      0.000      0.000
REMARK  Name = 
REMARK  5 active torsions:
REMARK  status: ('A' for Active; 'I' for Inactive)
REMARK    1  A    between atoms: O_1  and  C_2
REMARK    2  A    between atoms: C_2  and  C_4
REMARK    3  A    between atoms: C_7  and  C_9
REMARK    4  A    between atoms: C_10  and  O_11
REMARK    5  A    between atoms: O_11  and  C_12
REMARK                            x       y       z     vdW  Elec       q    Type
REMARK                         _______ _______ _______ _____ _____    ______ ____
ROOT
ATOM      1  C   UNL     1       9.824   2.212  23.983  0.00  0.00    +0.059 A 
ATOM      2  C   UNL     1      10.691   1.191  24.415  0.00  0.00    +0.015 A 
ATOM      3  C   UNL     1      10.227  -0.106  24.633  0.00  0.00    +0.001 A 
ATOM      4  C   UNL     1       8.882  -0.400  24.439  0.00  0.00    +0.004 A 
ATOM      5  C   UNL     1       8.000   0.602  24.031  0.00  0.00    +0.047 A 
ATOM      6  C   UNL     1       8.464   1.899  23.777  0.00  0.00    +0.141 A 
ENDROOT
BRANCH   1   9
ATOM      7  C   UNL     1      11.942   4.971  23.156  0.00  0.00    +0.212 A 
ATOM      8  O   UNL     1      11.616   3.641  23.238  0.00  0.00    -0.448 OA
ATOM      9  C   UNL     1      10.370   3.556  23.792  0.00  0.00    +0.139 A 
ATOM     10  C   UNL     1       9.911   4.825  24.092  0.00  0.00    +0.051 A 
ATOM     11  C   UNL     1      10.915   5.731  23.675  0.00  0.00    +0.057 A 
BRANCH   7  12
ATOM     12  C   UNL     1      13.213   5.345  22.587  0.00  0.00    +0.372 C 
ATOM     13  O   UNL     1      13.382   5.947  21.538  0.00  0.00    -0.242 OA
BRANCH  12  14
ATOM     14  O   UNL     1      14.245   4.941  23.375  0.00  0.00    -0.475 OA
ATOM     15  H   UNL     1      14.600   5.701  23.884  0.00  0.00    +0.296 HD
ENDBRANCH  12  14
ENDBRANCH   7  12
ENDBRANCH   1   9
BRANCH   6  16
ATOM     16  O   UNL     1       7.602   2.922  23.495  0.00  0.00    -0.405 OA
BRANCH  16  17
ATOM     17  C   UNL     1       7.186   3.111  22.147  0.00  0.00    +0.575 C 
ATOM     18  F   UNL     1       7.415   4.400  21.805  0.00  0.00    -0.133 F 
ATOM     19  F   UNL     1       5.857   2.884  22.073  0.00  0.00    -0.133 F 
ATOM     20  F   UNL     1       7.806   2.319  21.251  0.00  0.00    -0.133 F 
ENDBRANCH  16  17
ENDBRANCH   6  16
TORSDOF 5
ENDMDL
MODEL 2
REMARK VINA RESULT:      -6.3      5.239      7.126
REMARK  Name = 
REMARK  5 active torsions:
REMARK  status: ('A' for Active; 'I' for Inactive)
REMARK    1  A    between atoms: O_1  and  C_2
REMARK    2  A    between atoms: C_2  and  C_4
REMARK    3  A    between atoms: C_7  and  C_9
REMARK    4  A    between atoms: C_10  and  O_11
REMARK    5  A    between atoms: O_11  and  C_12
REMARK                            x       y       z     vdW  Elec       q    Type
REMARK                         _______ _______ _______ _____ _____    ______ ____
ROOT
ATOM      1  C   UNL     1       7.407  -3.094  23.120  0.00  0.00    +0.059 A 
ATOM      2  C   UNL     1       6.130  -2.754  22.637  0.00  0.00    +0.015 A 
ATOM      3  C   UNL     1       5.058  -3.641  22.744  0.00  0.00    +0.001 A 
ATOM      4  C   UNL     1       5.251  -4.890  23.321  0.00  0.00    +0.004 A 
ATOM      5  C   UNL     1       6.514  -5.256  23.788  0.00  0.00    +0.047 A 
ATOM      6  C   UNL     1       7.588  -4.360  23.716  0.00  0.00    +0.141 A 
ENDROOT
BRANCH   1   9
ATOM      7  C   UNL     1       9.887  -0.587  23.711  0.00  0.00    +0.212 A 
ATOM      8  O   UNL     1       8.875  -1.438  24.076  0.00  0.00    -0.448 OA
ATOM      9  C   UNL     1       8.494  -2.127  22.959  0.00  0.00    +0.139 A 
ATOM     10  C   UNL     1       9.239  -1.699  21.876  0.00  0.00    +0.051 A 
ATOM     11  C   UNL     1      10.138  -0.719  22.361  0.00  0.00    +0.057 A 
BRANCH   7  12
ATOM     12  C   UNL     1      10.488   0.255  24.715  0.00  0.00    +0.372 C 
ATOM     13  O   UNL     1      11.452   0.988  24.556  0.00  0.00    -0.242 OA
BRANCH  12  14
ATOM     14  O   UNL     1       9.840   0.143  25.906  0.00  0.00    -0.475 OA
ATOM     15  H   UNL     1      10.372   0.555  26.620  0.00  0.00    +0.296 HD
ENDBRANCH  12  14
ENDBRANCH   7  12
ENDBRANCH   1   9
BRANCH   6  16
ATOM     16  O   UNL     1       8.858  -4.739  24.054  0.00  0.00    -0.405 OA
BRANCH  16  17
ATOM     17  C   UNL     1       9.178  -4.893  25.431  0.00  0.00    +0.575 C 
ATOM     18  F   UNL     1       8.928  -3.723  26.063  0.00  0.00    -0.133 F 
ATOM     19  F   UNL     1      10.499  -5.155  25.536  0.00  0.00    -0.133 F 
ATOM     20  F   UNL     1       8.498  -5.869  26.062  0.00  0.00    -0.133 F 
ENDBRANCH  16  17
ENDBRANCH   6  16
TORSDOF 5
ENDMDL
MODEL 3
REMARK VINA RESULT:      -6.3      5.961      8.577
REMARK  Name = 
REMARK  5 active torsions:
REMARK  status: ('A' for Active; 'I' for Inactive)
REMARK    1  A    between atoms: O_1  and  C_2
REMARK    2  A    between atoms: C_2  and  C_4
REMARK    3  A    between atoms: C_7  and  C_9
REMARK    4  A    between atoms: C_10  and  O_11
REMARK    5  A    between atoms: O_11  and  C_12
REMARK                            x       y       z     vdW  Elec       q    Type
REMARK                         _______ _______ _______ _____ _____    ______ ____
ROOT
ATOM      1  C   UNL     1       8.314  -1.765  23.058  0.00  0.00    +0.059 A 
ATOM      2  C   UNL     1       8.757  -0.936  22.010  0.00  0.00    +0.015 A 
ATOM      3  C   UNL     1       9.840  -0.073  22.182  0.00  0.00    +0.001 A 
ATOM      4  C   UNL     1      10.487  -0.012  23.410  0.00  0.00    +0.004 A 
ATOM      5  C   UNL     1      10.051  -0.810  24.469  0.00  0.00    +0.047 A 
ATOM      6  C   UNL     1       8.986  -1.704  24.297  0.00  0.00    +0.141 A 
ENDROOT
BRANCH   1   9
ATOM      7  C   UNL     1       6.180  -4.412  21.953  0.00  0.00    +0.212 A 
ATOM      8  O   UNL     1       7.377  -3.751  22.064  0.00  0.00    -0.448 OA
ATOM      9  C   UNL     1       7.160  -2.632  22.819  0.00  0.00    +0.139 A 
ATOM     10  C   UNL     1       5.824  -2.562  23.166  0.00  0.00    +0.051 A 
ATOM     11  C   UNL     1       5.199  -3.708  22.619  0.00  0.00    +0.057 A 
BRANCH   7  12
ATOM     12  C   UNL     1       6.131  -5.648  21.212  0.00  0.00    +0.372 C 
ATOM     13  O   UNL     1       5.985  -5.757  20.004  0.00  0.00    -0.242 OA
BRANCH  12  14
ATOM     14  O   UNL     1       6.272  -6.722  22.033  0.00  0.00    -0.475 OA
ATOM     15  H   UNL     1       6.236  -7.553  21.513  0.00  0.00    +0.296 HD
ENDBRANCH  12  14
ENDBRANCH   7  12
ENDBRANCH   1   9
BRANCH   6  16
ATOM     16  O   UNL     1       8.465  -2.404  25.349  0.00  0.00    -0.405 OA
BRANCH  16  17
ATOM     17  C   UNL     1       8.875  -3.753  25.539  0.00  0.00    +0.575 C 
ATOM     18  F   UNL     1       7.835  -4.564  25.237  0.00  0.00    -0.133 F 
ATOM     19  F   UNL     1       9.181  -3.927  26.843  0.00  0.00    -0.133 F 
ATOM     20  F   UNL     1       9.934  -4.129  24.798  0.00  0.00    -0.133 F 
ENDBRANCH  16  17
ENDBRANCH   6  16
TORSDOF 5
ENDMDL
MODEL 4
REMARK VINA RESULT:      -6.2      6.547      9.819
REMARK  Name = 
REMARK  5 active torsions:
REMARK  status: ('A' for Active; 'I' for Inactive)
REMARK    1  A    between atoms: O_1  and  C_2
REMARK    2  A    between atoms: C_2  and  C_4
REMARK    3  A    between atoms: C_7  and  C_9
REMARK    4  A    between atoms: C_10  and  O_11
REMARK    5  A    between atoms: O_11  and  C_12
REMARK                            x       y       z     vdW  Elec       q    Type
REMARK                         _______ _______ _______ _____ _____    ______ ____
ROOT
ATOM      1  C   UNL     1       7.932  -3.136  23.177  0.00  0.00    +0.059 A 
ATOM      2  C   UNL     1       7.441  -1.903  22.707  0.00  0.00    +0.015 A 
ATOM      3  C   UNL     1       8.131  -0.714  22.945  0.00  0.00    +0.001 A 
ATOM      4  C   UNL     1       9.315  -0.736  23.672  0.00  0.00    +0.004 A 
ATOM      5  C   UNL     1       9.809  -1.944  24.166  0.00  0.00    +0.047 A 
ATOM      6  C   UNL     1       9.141  -3.148  23.904  0.00  0.00    +0.141 A 
ENDROOT
BRANCH   1   9
ATOM      7  C   UNL     1       5.548  -5.793  23.370  0.00  0.00    +0.212 A 
ATOM      8  O   UNL     1       6.142  -4.630  23.788  0.00  0.00    -0.448 OA
ATOM      9  C   UNL     1       7.150  -4.344  22.911  0.00  0.00    +0.139 A 
ATOM     10  C   UNL     1       7.221  -5.335  21.950  0.00  0.00    +0.051 A 
ATOM     11  C   UNL     1       6.187  -6.258  22.240  0.00  0.00    +0.057 A 
BRANCH   7  12
ATOM     12  C   UNL     1       4.432  -6.316  24.117  0.00  0.00    +0.372 C 
ATOM     13  O   UNL     1       3.644  -5.664  24.785  0.00  0.00    -0.242 OA
BRANCH  12  14
ATOM     14  O   UNL     1       4.344  -7.668  23.995  0.00  0.00    -0.475 OA
ATOM     15  H   UNL     1       3.443  -7.923  23.703  0.00  0.00    +0.296 HD
ENDBRANCH  12  14
ENDBRANCH   7  12
ENDBRANCH   1   9
BRANCH   6  16
ATOM     16  O   UNL     1       9.538  -4.324  24.476  0.00  0.00    -0.405 OA
BRANCH  16  17
ATOM     17  C   UNL     1       9.110  -4.615  25.801  0.00  0.00    +0.575 C 
ATOM     18  F   UNL     1      10.198  -4.908  26.549  0.00  0.00    -0.133 F 
ATOM     19  F   UNL     1       8.317  -5.708  25.764  0.00  0.00    -0.133 F 
ATOM     20  F   UNL     1       8.436  -3.619  26.407  0.00  0.00    -0.133 F 
ENDBRANCH  16  17
ENDBRANCH   6  16
TORSDOF 5
ENDMDL
MODEL 5
REMARK VINA RESULT:      -6.1      4.862      7.543
REMARK  Name = 
REMARK  5 active torsions:
REMARK  status: ('A' for Active; 'I' for Inactive)
REMARK    1  A    between atoms: O_1  and  C_2
REMARK    2  A    between atoms: C_2  and  C_4
REMARK    3  A    between atoms: C_7  and  C_9
REMARK    4  A    between atoms: C_10  and  O_11
REMARK    5  A    between atoms: O_11  and  C_12
REMARK                            x       y       z     vdW  Elec       q    Type
REMARK                         _______ _______ _______ _____ _____    ______ ____
ROOT
ATOM      1  C   UNL     1       8.699  -1.163  23.060  0.00  0.00    +0.059 A 
ATOM      2  C   UNL     1       9.398  -0.833  21.884  0.00  0.00    +0.015 A 
ATOM      3  C   UNL     1       9.744   0.488  21.597  0.00  0.00    +0.001 A 
ATOM      4  C   UNL     1       9.381   1.503  22.475  0.00  0.00    +0.004 A 
ATOM      5  C   UNL     1       8.669   1.201  23.636  0.00  0.00    +0.047 A 
ATOM      6  C   UNL     1       8.347  -0.126  23.950  0.00  0.00    +0.141 A 
ENDROOT
BRANCH   1   9
ATOM      7  C   UNL     1       8.488  -4.472  24.397  0.00  0.00    +0.212 A 
ATOM      8  O   UNL     1       8.936  -3.176  24.364  0.00  0.00    -0.448 OA
ATOM      9  C   UNL     1       8.349  -2.565  23.293  0.00  0.00    +0.139 A 
ATOM     10  C   UNL     1       7.550  -3.473  22.624  0.00  0.00    +0.051 A 
ATOM     11  C   UNL     1       7.632  -4.692  23.339  0.00  0.00    +0.057 A 
BRANCH   7  12
ATOM     12  C   UNL     1       8.945  -5.343  25.451  0.00  0.00    +0.372 C 
ATOM     13  O   UNL     1       8.268  -5.781  26.368  0.00  0.00    -0.242 OA
BRANCH  12  14
ATOM     14  O   UNL     1      10.266  -5.638  25.310  0.00  0.00    -0.475 OA
ATOM     15  H   UNL     1      10.482  -6.460  25.800  0.00  0.00    +0.296 HD
ENDBRANCH  12  14
ENDBRANCH   7  12
ENDBRANCH   1   9
BRANCH   6  16
ATOM     16  O   UNL     1       7.548  -0.434  25.016  0.00  0.00    -0.405 OA
BRANCH  16  17
ATOM     17  C   UNL     1       8.140  -0.525  26.306  0.00  0.00    +0.575 C 
ATOM     18  F   UNL     1       7.746  -1.687  26.877  0.00  0.00    -0.133 F 
ATOM     19  F   UNL     1       7.679   0.494  27.062  0.00  0.00    -0.133 F 
ATOM     20  F   UNL     1       9.486  -0.487  26.312  0.00  0.00    -0.133 F 
ENDBRANCH  16  17
ENDBRANCH   6  16
TORSDOF 5
ENDMDL
MODEL 6
REMARK VINA RESULT:      -6.1      4.944      7.743
REMARK  Name = 
REMARK  5 active torsions:
REMARK  status: ('A' for Active; 'I' for Inactive)
REMARK    1  A    between atoms: O_1  and  C_2
REMARK    2  A    between atoms: C_2  and  C_4
REMARK    3  A    between atoms: C_7  and  C_9
REMARK    4  A    between atoms: C_10  and  O_11
REMARK    5  A    between atoms: O_11  and  C_12
REMARK                            x       y       z     vdW  Elec       q    Type
REMARK                         _______ _______ _______ _____ _____    ______ ____
ROOT
ATOM      1  C   UNL     1       8.633  -0.945  23.081  0.00  0.00    +0.059 A 
ATOM      2  C   UNL     1       8.875  -0.028  22.042  0.00  0.00    +0.015 A 
ATOM      3  C   UNL     1       9.880   0.933  22.147  0.00  0.00    +0.001 A 
ATOM      4  C   UNL     1      10.649   1.005  23.303  0.00  0.00    +0.004 A 
ATOM      5  C   UNL     1      10.412   0.119  24.355  0.00  0.00    +0.047 A 
ATOM      6  C   UNL     1       9.427  -0.872  24.245  0.00  0.00    +0.141 A 
ENDROOT
BRANCH   1   9
ATOM      7  C   UNL     1       6.724  -3.847  22.232  0.00  0.00    +0.212 A 
ATOM      8  O   UNL     1       7.867  -3.091  22.295  0.00  0.00    -0.448 OA
ATOM      9  C   UNL     1       7.550  -1.916  22.916  0.00  0.00    +0.139 A 
ATOM     10  C   UNL     1       6.203  -1.906  23.225  0.00  0.00    +0.051 A 
ATOM     11  C   UNL     1       5.677  -3.148  22.795  0.00  0.00    +0.057 A 
BRANCH   7  12
ATOM     12  C   UNL     1       6.784  -5.156  21.632  0.00  0.00    +0.372 C 
ATOM     13  O   UNL     1       7.453  -6.098  22.026  0.00  0.00    -0.242 OA
BRANCH  12  14
ATOM     14  O   UNL     1       5.983  -5.234  20.535  0.00  0.00    -0.475 OA
ATOM     15  H   UNL     1       5.252  -5.869  20.695  0.00  0.00    +0.296 HD
ENDBRANCH  12  14
ENDBRANCH   7  12
ENDBRANCH   1   9
BRANCH   6  16
ATOM     16  O   UNL     1       9.096  -1.669  25.305  0.00  0.00    -0.405 OA
BRANCH  16  17
ATOM     17  C   UNL     1       8.365  -1.100  26.384  0.00  0.00    +0.575 C 
ATOM     18  F   UNL     1       9.231  -0.810  27.382  0.00  0.00    -0.133 F 
ATOM     19  F   UNL     1       7.488  -2.020  26.840  0.00  0.00    -0.133 F 
ATOM     20  F   UNL     1       7.686   0.021  26.074  0.00  0.00    -0.133 F 
ENDBRANCH  16  17
ENDBRANCH   6  16
TORSDOF 5
ENDMDL
MODEL 7
REMARK VINA RESULT:      -6.1      2.389      4.874
REMARK  Name = 
REMARK  5 active torsions:
REMARK  status: ('A' for Active; 'I' for Inactive)
REMARK    1  A    between atoms: O_1  and  C_2
REMARK    2  A    between atoms: C_2  and  C_4
REMARK    3  A    between atoms: C_7  and  C_9
REMARK    4  A    between atoms: C_10  and  O_11
REMARK    5  A    between atoms: O_11  and  C_12
REMARK                            x       y       z     vdW  Elec       q    Type
REMARK                         _______ _______ _______ _____ _____    ______ ____
ROOT
ATOM      1  C   UNL     1      10.175   3.405  23.346  0.00  0.00    +0.059 A 
ATOM      2  C   UNL     1      11.476   3.941  23.302  0.00  0.00    +0.015 A 
ATOM      3  C   UNL     1      11.719   5.272  23.639  0.00  0.00    +0.001 A 
ATOM      4  C   UNL     1      10.662   6.096  24.009  0.00  0.00    +0.004 A 
ATOM      5  C   UNL     1       9.362   5.591  24.039  0.00  0.00    +0.047 A 
ATOM      6  C   UNL     1       9.111   4.246  23.736  0.00  0.00    +0.141 A 
ENDROOT
BRANCH   1   9
ATOM      7  C   UNL     1       9.761  -0.146  23.406  0.00  0.00    +0.212 A 
ATOM      8  O   UNL     1       9.933   1.091  23.975  0.00  0.00    -0.448 OA
ATOM      9  C   UNL     1       9.984   2.006  22.961  0.00  0.00    +0.139 A 
ATOM     10  C   UNL     1       9.875   1.356  21.746  0.00  0.00    +0.051 A 
ATOM     11  C   UNL     1       9.722  -0.022  22.033  0.00  0.00    +0.057 A 
BRANCH   7  12
ATOM     12  C   UNL     1       9.658  -1.300  24.263  0.00  0.00    +0.372 C 
ATOM     13  O   UNL     1       9.190  -1.320  25.391  0.00  0.00    -0.242 OA
BRANCH  12  14
ATOM     14  O   UNL     1      10.155  -2.412  23.657  0.00  0.00    -0.475 OA
ATOM     15  H   UNL     1       9.743  -2.527  22.773  0.00  0.00    +0.296 HD
ENDBRANCH  12  14
ENDBRANCH   7  12
ENDBRANCH   1   9
BRANCH   6  16
ATOM     16  O   UNL     1       7.837   3.761  23.641  0.00  0.00    -0.405 OA
BRANCH  16  17
ATOM     17  C   UNL     1       7.070   4.082  22.487  0.00  0.00    +0.575 C 
ATOM     18  F   UNL     1       5.820   4.418  22.882  0.00  0.00    -0.133 F 
ATOM     19  F   UNL     1       6.985   2.981  21.710  0.00  0.00    -0.133 F 
ATOM     20  F   UNL     1       7.565   5.092  21.745  0.00  0.00    -0.133 F 
ENDBRANCH  16  17
ENDBRANCH   6  16
TORSDOF 5
ENDMDL
MODEL 8
REMARK VINA RESULT:      -6.1      5.486      7.510
REMARK  Name = 
REMARK  5 active torsions:
REMARK  status: ('A' for Active; 'I' for Inactive)
REMARK    1  A    between atoms: O_1  and  C_2
REMARK    2  A    between atoms: C_2  and  C_4
REMARK    3  A    between atoms: C_7  and  C_9
REMARK    4  A    between atoms: C_10  and  O_11
REMARK    5  A    between atoms: O_11  and  C_12
REMARK                            x       y       z     vdW  Elec       q    Type
REMARK                         _______ _______ _______ _____ _____    ______ ____
ROOT
ATOM      1  C   UNL     1       7.471  -3.856  23.228  0.00  0.00    +0.059 A 
ATOM      2  C   UNL     1       7.102  -4.364  21.968  0.00  0.00    +0.015 A 
ATOM      3  C   UNL     1       6.223  -5.441  21.854  0.00  0.00    +0.001 A 
ATOM      4  C   UNL     1       5.712  -6.040  22.999  0.00  0.00    +0.004 A 
ATOM      5  C   UNL     1       6.080  -5.566  24.259  0.00  0.00    +0.047 A 
ATOM      6  C   UNL     1       6.936  -4.463  24.384  0.00  0.00    +0.141 A 
ENDROOT
BRANCH   1   9
ATOM      7  C   UNL     1       9.014  -0.650  22.879  0.00  0.00    +0.212 A 
ATOM      8  O   UNL     1       7.992  -1.554  22.738  0.00  0.00    -0.448 OA
ATOM      9  C   UNL     1       8.412  -2.737  23.280  0.00  0.00    +0.139 A 
ATOM     10  C   UNL     1       9.708  -2.599  23.740  0.00  0.00    +0.051 A 
ATOM     11  C   UNL     1      10.090  -1.259  23.491  0.00  0.00    +0.057 A 
BRANCH   7  12
ATOM     12  C   UNL     1       8.826   0.697  22.400  0.00  0.00    +0.372 C 
ATOM     13  O   UNL     1       8.476   1.656  23.070  0.00  0.00    -0.242 OA
BRANCH  12  14
ATOM     14  O   UNL     1       9.092   0.790  21.070  0.00  0.00    -0.475 OA
ATOM     15  H   UNL     1       9.942   0.346  20.863  0.00  0.00    +0.296 HD
ENDBRANCH  12  14
ENDBRANCH   7  12
ENDBRANCH   1   9
BRANCH   6  16
ATOM     16  O   UNL     1       7.405  -4.059  25.602  0.00  0.00    -0.405 OA
BRANCH  16  17
ATOM     17  C   UNL     1       8.327  -4.896  26.289  0.00  0.00    +0.575 C 
ATOM     18  F   UNL     1       7.648  -5.611  27.216  0.00  0.00    -0.133 F 
ATOM     19  F   UNL     1       9.220  -4.113  26.932  0.00  0.00    -0.133 F 
ATOM     20  F   UNL     1       9.001  -5.756  25.502  0.00  0.00    -0.133 F 
ENDBRANCH  16  17
ENDBRANCH   6  16
TORSDOF 5
ENDMDL
MODEL 9
REMARK VINA RESULT:      -6.0      5.015      6.948
REMARK  Name = 
REMARK  5 active torsions:
REMARK  status: ('A' for Active; 'I' for Inactive)
REMARK    1  A    between atoms: O_1  and  C_2
REMARK    2  A    between atoms: C_2  and  C_4
REMARK    3  A    between atoms: C_7  and  C_9
REMARK    4  A    between atoms: C_10  and  O_11
REMARK    5  A    between atoms: O_11  and  C_12
REMARK                            x       y       z     vdW  Elec       q    Type
REMARK                         _______ _______ _______ _____ _____    ______ ____
ROOT
ATOM      1  C   UNL     1       7.138  -3.365  22.661  0.00  0.00    +0.059 A 
ATOM      2  C   UNL     1       6.258  -3.812  21.658  0.00  0.00    +0.015 A 
ATOM      3  C   UNL     1       6.106  -5.172  21.385  0.00  0.00    +0.001 A 
ATOM      4  C   UNL     1       6.845  -6.107  22.101  0.00  0.00    +0.004 A 
ATOM      5  C   UNL     1       7.739  -5.685  23.086  0.00  0.00    +0.047 A 
ATOM      6  C   UNL     1       7.874  -4.324  23.390  0.00  0.00    +0.141 A 
ENDROOT
BRANCH   1   9
ATOM      7  C   UNL     1       8.228   0.039  22.568  0.00  0.00    +0.212 A 
ATOM      8  O   UNL     1       8.274  -1.287  22.216  0.00  0.00    -0.448 OA
ATOM      9  C   UNL     1       7.267  -1.924  22.884  0.00  0.00    +0.139 A 
ATOM     10  C   UNL     1       6.596  -1.018  23.683  0.00  0.00    +0.051 A 
ATOM     11  C   UNL     1       7.206   0.242  23.472  0.00  0.00    +0.057 A 
BRANCH   7  12
ATOM     12  C   UNL     1       9.182   0.949  21.986  0.00  0.00    +0.372 C 
ATOM     13  O   UNL     1      10.280   1.229  22.441  0.00  0.00    -0.242 OA
BRANCH  12  14
ATOM     14  O   UNL     1       8.711   1.485  20.827  0.00  0.00    -0.475 OA
ATOM     15  H   UNL     1       9.450   1.861  20.304  0.00  0.00    +0.296 HD
ENDBRANCH  12  14
ENDBRANCH   7  12
ENDBRANCH   1   9
BRANCH   6  16
ATOM     16  O   UNL     1       8.827  -3.879  24.263  0.00  0.00    -0.405 OA
BRANCH  16  17
ATOM     17  C   UNL     1       8.497  -3.786  25.643  0.00  0.00    +0.575 C 
ATOM     18  F   UNL     1       7.191  -4.107  25.794  0.00  0.00    -0.133 F 
ATOM     19  F   UNL     1       8.665  -2.505  26.038  0.00  0.00    -0.133 F 
ATOM     20  F   UNL     1       9.225  -4.581  26.451  0.00  0.00    -0.133 F 
ENDBRANCH  16  17
ENDBRANCH   6  16
TORSDOF 5
ENDMDL
