MODEL 1
REMARK VINA RESULT:      -7.5      0.000      0.000
REMARK  Name = 
REMARK  8 active torsions:
REMARK  status: ('A' for Active; 'I' for Inactive)
REMARK    1  A    between atoms: C_1  and  C_2
REMARK    2  A    between atoms: C_2  and  C_3
REMARK    3  A    between atoms: C_6  and  C_7
REMARK    4  A    between atoms: C_7  and  C_8
REMARK    5  A    between atoms: C_8  and  O_9
REMARK    6  A    between atoms: O_9  and  C_10
REMARK    7  A    between atoms: C_13  and  C_14
REMARK    8  A    between atoms: C_14  and  C_15
REMARK                            x       y       z     vdW  Elec       q    Type
REMARK                         _______ _______ _______ _____ _____    ______ ____
ROOT
ATOM      1  C   UNL     1       8.286   0.626  22.023  0.00  0.00    +0.121 A 
ATOM      2  C   UNL     1       7.201   0.216  22.796  0.00  0.00    +0.046 A 
ATOM      3  C   UNL     1       7.119  -1.106  23.260  0.00  0.00    +0.007 A 
ATOM      4  C   UNL     1       8.122  -2.038  22.951  0.00  0.00    -0.046 A 
ATOM      5  C   UNL     1       9.203  -1.622  22.176  0.00  0.00    +0.007 A 
ATOM      6  C   UNL     1       9.286  -0.309  21.722  0.00  0.00    +0.046 A 
ENDROOT
BRANCH   1   7
ATOM      7  O   UNL     1       8.296   1.940  21.600  0.00  0.00    -0.492 OA
BRANCH   7   8
ATOM      8  C   UNL     1       7.386   2.769  22.340  0.00  0.00    +0.235 C 
BRANCH   8   9
ATOM      9  C   UNL     1       7.839   3.069  23.764  0.00  0.00    +0.096 C 
BRANCH   9  13
ATOM     10  C   UNL     1      11.551   5.192  23.527  0.00  0.00    -0.030 A 
ATOM     11  C   UNL     1      10.362   5.912  23.664  0.00  0.00    +0.007 A 
ATOM     12  C   UNL     1       9.144   5.237  23.763  0.00  0.00    +0.024 A 
ATOM     13  C   UNL     1       9.139   3.849  23.721  0.00  0.00    +0.045 A 
ATOM     14  N   UNL     1      10.287   3.136  23.593  0.00  0.00    -0.260 NA
ATOM     15  C   UNL     1      11.454   3.810  23.505  0.00  0.00    +0.114 A 
BRANCH  10  17
ATOM     16  C   UNL     1      13.418   5.656  21.933  0.00  0.00    +0.009 C 
ATOM     17  C   UNL     1      12.876   5.874  23.340  0.00  0.00    +0.033 C 
ENDBRANCH  10  17
ENDBRANCH   9  13
ENDBRANCH   8   9
ENDBRANCH   7   8
ENDBRANCH   1   7
BRANCH   4  18
ATOM     18  C   UNL     1       8.047  -3.475  23.403  0.00  0.00    +0.059 C 
BRANCH  18  19
ATOM     19  C   UNL     1       8.193  -3.730  24.902  0.00  0.00    +0.146 C 
ATOM     20  C   UNL     1       9.278  -4.725  25.258  0.00  0.00    +0.234 C 
ATOM     21  O   UNL     1      10.384  -4.779  24.738  0.00  0.00    -0.274 OA
ATOM     22  N   UNL     1       8.909  -5.494  26.324  0.00  0.00    -0.246 N 
ATOM     23  H   UNL     1       9.566  -6.121  26.760  0.00  0.00    +0.158 HD
ATOM     24  C   UNL     1       7.664  -5.343  26.836  0.00  0.00    +0.279 C 
ATOM     25  O   UNL     1       7.259  -5.829  27.878  0.00  0.00    -0.263 OA
ATOM     26  S   UNL     1       6.715  -4.303  25.805  0.00  0.00    -0.054 S 
ENDBRANCH  18  19
ENDBRANCH   4  18
TORSDOF 7
ENDMDL
MODEL 2
REMARK VINA RESULT:      -7.1      3.008      4.363
REMARK  Name = 
REMARK  8 active torsions:
REMARK  status: ('A' for Active; 'I' for Inactive)
REMARK    1  A    between atoms: C_1  and  C_2
REMARK    2  A    between atoms: C_2  and  C_3
REMARK    3  A    between atoms: C_6  and  C_7
REMARK    4  A    between atoms: C_7  and  C_8
REMARK    5  A    between atoms: C_8  and  O_9
REMARK    6  A    between atoms: O_9  and  C_10
REMARK    7  A    between atoms: C_13  and  C_14
REMARK    8  A    between atoms: C_14  and  C_15
REMARK                            x       y       z     vdW  Elec       q    Type
REMARK                         _______ _______ _______ _____ _____    ______ ____
ROOT
ATOM      1  C   UNL     1       9.787  -0.610  23.627  0.00  0.00    +0.121 A 
ATOM      2  C   UNL     1       9.744  -1.271  22.402  0.00  0.00    +0.046 A 
ATOM      3  C   UNL     1       8.612  -2.015  22.034  0.00  0.00    +0.007 A 
ATOM      4  C   UNL     1       7.506  -2.109  22.893  0.00  0.00    -0.046 A 
ATOM      5  C   UNL     1       7.556  -1.447  24.118  0.00  0.00    +0.007 A 
ATOM      6  C   UNL     1       8.676  -0.705  24.479  0.00  0.00    +0.046 A 
ENDROOT
BRANCH   1   7
ATOM      7  O   UNL     1      10.935   0.098  23.921  0.00  0.00    -0.492 OA
BRANCH   7   8
ATOM      8  C   UNL     1      10.685   1.495  24.139  0.00  0.00    +0.235 C 
BRANCH   8   9
ATOM      9  C   UNL     1      10.416   2.283  22.863  0.00  0.00    +0.096 C 
BRANCH   9  13
ATOM     10  C   UNL     1       6.365   3.672  22.800  0.00  0.00    -0.030 A 
ATOM     11  C   UNL     1       6.741   2.629  21.950  0.00  0.00    +0.007 A 
ATOM     12  C   UNL     1       8.051   2.149  21.970  0.00  0.00    +0.024 A 
ATOM     13  C   UNL     1       8.965   2.725  22.843  0.00  0.00    +0.045 A 
ATOM     14  N   UNL     1       8.613   3.737  23.678  0.00  0.00    -0.260 NA
ATOM     15  C   UNL     1       7.339   4.180  23.645  0.00  0.00    +0.114 A 
BRANCH  10  17
ATOM     16  C   UNL     1       3.932   3.267  23.196  0.00  0.00    +0.009 C 
ATOM     17  C   UNL     1       4.989   4.274  22.760  0.00  0.00    +0.033 C 
ENDBRANCH  10  17
ENDBRANCH   9  13
ENDBRANCH   8   9
ENDBRANCH   7   8
ENDBRANCH   1   7
BRANCH   4  18
ATOM     18  C   UNL     1       6.289  -2.927  22.545  0.00  0.00    +0.059 C 
BRANCH  18  19
ATOM     19  C   UNL     1       6.325  -4.407  22.926  0.00  0.00    +0.146 C 
ATOM     20  C   UNL     1       5.779  -5.334  21.861  0.00  0.00    +0.234 C 
ATOM     21  O   UNL     1       5.988  -5.230  20.660  0.00  0.00    -0.274 OA
ATOM     22  N   UNL     1       5.108  -6.383  22.420  0.00  0.00    -0.246 N 
ATOM     23  H   UNL     1       4.788  -7.153  21.853  0.00  0.00    +0.158 HD
ATOM     24  C   UNL     1       4.946  -6.410  23.765  0.00  0.00    +0.279 C 
ATOM     25  O   UNL     1       4.525  -7.354  24.411  0.00  0.00    -0.263 OA
ATOM     26  S   UNL     1       5.472  -4.900  24.462  0.00  0.00    -0.054 S 
ENDBRANCH  18  19
ENDBRANCH   4  18
TORSDOF 7
ENDMDL
MODEL 3
REMARK VINA RESULT:      -7.1      3.558      9.512
REMARK  Name = 
REMARK  8 active torsions:
REMARK  status: ('A' for Active; 'I' for Inactive)
REMARK    1  A    between atoms: C_1  and  C_2
REMARK    2  A    between atoms: C_2  and  C_3
REMARK    3  A    between atoms: C_6  and  C_7
REMARK    4  A    between atoms: C_7  and  C_8
REMARK    5  A    between atoms: C_8  and  O_9
REMARK    6  A    between atoms: O_9  and  C_10
REMARK    7  A    between atoms: C_13  and  C_14
REMARK    8  A    between atoms: C_14  and  C_15
REMARK                            x       y       z     vdW  Elec       q    Type
REMARK                         _______ _______ _______ _____ _____    ______ ____
ROOT
ATOM      1  C   UNL     1      10.052  -1.658  23.362  0.00  0.00    +0.121 A 
ATOM      2  C   UNL     1      10.196  -0.733  24.393  0.00  0.00    +0.046 A 
ATOM      3  C   UNL     1      10.151   0.644  24.124  0.00  0.00    +0.007 A 
ATOM      4  C   UNL     1       9.965   1.112  22.814  0.00  0.00    -0.046 A 
ATOM      5  C   UNL     1       9.823   0.181  21.787  0.00  0.00    +0.007 A 
ATOM      6  C   UNL     1       9.862  -1.183  22.056  0.00  0.00    +0.046 A 
ENDROOT
BRANCH   1   7
ATOM      7  O   UNL     1      10.111  -2.995  23.703  0.00  0.00    -0.492 OA
BRANCH   7   8
ATOM      8  C   UNL     1       9.163  -3.350  24.721  0.00  0.00    +0.235 C 
BRANCH   8   9
ATOM      9  C   UNL     1       8.931  -4.851  24.855  0.00  0.00    +0.096 C 
BRANCH   9  13
ATOM     10  C   UNL     1       4.975  -5.708  23.455  0.00  0.00    -0.030 A 
ATOM     11  C   UNL     1       6.018  -5.608  22.531  0.00  0.00    +0.007 A 
ATOM     12  C   UNL     1       7.318  -5.349  22.969  0.00  0.00    +0.024 A 
ATOM     13  C   UNL     1       7.550  -5.193  24.330  0.00  0.00    +0.045 A 
ATOM     14  N   UNL     1       6.547  -5.292  25.240  0.00  0.00    -0.260 NA
ATOM     15  C   UNL     1       5.300  -5.549  24.793  0.00  0.00    +0.114 A 
BRANCH  10  17
ATOM     16  C   UNL     1       2.580  -5.274  24.014  0.00  0.00    +0.009 C 
ATOM     17  C   UNL     1       3.550  -5.908  23.026  0.00  0.00    +0.033 C 
ENDBRANCH  10  17
ENDBRANCH   9  13
ENDBRANCH   8   9
ENDBRANCH   7   8
ENDBRANCH   1   7
BRANCH   4  18
ATOM     18  C   UNL     1       9.946   2.584  22.484  0.00  0.00    +0.059 C 
BRANCH  18  19
ATOM     19  C   UNL     1      10.435   3.537  23.574  0.00  0.00    +0.146 C 
ATOM     20  C   UNL     1       9.462   4.647  23.908  0.00  0.00    +0.234 C 
ATOM     21  O   UNL     1       8.250   4.516  24.012  0.00  0.00    -0.274 OA
ATOM     22  N   UNL     1      10.120   5.808  24.195  0.00  0.00    -0.246 N 
ATOM     23  H   UNL     1       9.624   6.609  24.553  0.00  0.00    +0.158 HD
ATOM     24  C   UNL     1      11.468   5.842  24.061  0.00  0.00    +0.279 C 
ATOM     25  O   UNL     1      12.198   6.742  24.440  0.00  0.00    -0.263 OA
ATOM     26  S   UNL     1      12.032   4.376  23.301  0.00  0.00    -0.054 S 
ENDBRANCH  18  19
ENDBRANCH   4  18
TORSDOF 7
ENDMDL
MODEL 4
REMARK VINA RESULT:      -7.1      3.186      9.617
REMARK  Name = 
REMARK  8 active torsions:
REMARK  status: ('A' for Active; 'I' for Inactive)
REMARK    1  A    between atoms: C_1  and  C_2
REMARK    2  A    between atoms: C_2  and  C_3
REMARK    3  A    between atoms: C_6  and  C_7
REMARK    4  A    between atoms: C_7  and  C_8
REMARK    5  A    between atoms: C_8  and  O_9
REMARK    6  A    between atoms: O_9  and  C_10
REMARK    7  A    between atoms: C_13  and  C_14
REMARK    8  A    between atoms: C_14  and  C_15
REMARK                            x       y       z     vdW  Elec       q    Type
REMARK                         _______ _______ _______ _____ _____    ______ ____
ROOT
ATOM      1  C   UNL     1       9.781  -2.003  23.462  0.00  0.00    +0.121 A 
ATOM      2  C   UNL     1       9.898  -1.029  24.451  0.00  0.00    +0.046 A 
ATOM      3  C   UNL     1       9.994   0.328  24.105  0.00  0.00    +0.007 A 
ATOM      4  C   UNL     1       9.979   0.727  22.759  0.00  0.00    -0.046 A 
ATOM      5  C   UNL     1       9.864  -0.253  21.775  0.00  0.00    +0.007 A 
ATOM      6  C   UNL     1       9.763  -1.597  22.120  0.00  0.00    +0.046 A 
ENDROOT
BRANCH   1   7
ATOM      7  O   UNL     1       9.695  -3.316  23.880  0.00  0.00    -0.492 OA
BRANCH   7   8
ATOM      8  C   UNL     1       9.087  -3.449  25.174  0.00  0.00    +0.235 C 
BRANCH   8   9
ATOM      9  C   UNL     1       9.161  -4.857  25.752  0.00  0.00    +0.096 C 
BRANCH   9  13
ATOM     10  C   UNL     1       5.238  -6.028  27.007  0.00  0.00    -0.030 A 
ATOM     11  C   UNL     1       5.472  -5.773  25.654  0.00  0.00    +0.007 A 
ATOM     12  C   UNL     1       6.749  -5.410  25.222  0.00  0.00    +0.024 A 
ATOM     13  C   UNL     1       7.771  -5.306  26.157  0.00  0.00    +0.045 A 
ATOM     14  N   UNL     1       7.559  -5.555  27.475  0.00  0.00    -0.260 NA
ATOM     15  C   UNL     1       6.317  -5.911  27.868  0.00  0.00    +0.114 A 
BRANCH  10  17
ATOM     16  C   UNL     1       2.784  -5.689  26.682  0.00  0.00    +0.009 C 
ATOM     17  C   UNL     1       3.866  -6.346  27.529  0.00  0.00    +0.033 C 
ENDBRANCH  10  17
ENDBRANCH   9  13
ENDBRANCH   8   9
ENDBRANCH   7   8
ENDBRANCH   1   7
BRANCH   4  18
ATOM     18  C   UNL     1      10.116   2.172  22.350  0.00  0.00    +0.059 C 
BRANCH  18  19
ATOM     19  C   UNL     1      10.382   3.179  23.468  0.00  0.00    +0.146 C 
ATOM     20  C   UNL     1       9.214   4.093  23.769  0.00  0.00    +0.234 C 
ATOM     21  O   UNL     1       8.041   3.748  23.820  0.00  0.00    -0.274 OA
ATOM     22  N   UNL     1       9.643   5.348  24.095  0.00  0.00    -0.246 N 
ATOM     23  H   UNL     1       8.998   6.042  24.438  0.00  0.00    +0.158 HD
ATOM     24  C   UNL     1      10.968   5.622  24.020  0.00  0.00    +0.279 C 
ATOM     25  O   UNL     1      11.509   6.631  24.438  0.00  0.00    -0.263 OA
ATOM     26  S   UNL     1      11.814   4.292  23.272  0.00  0.00    -0.054 S 
ENDBRANCH  18  19
ENDBRANCH   4  18
TORSDOF 7
ENDMDL
MODEL 5
REMARK VINA RESULT:      -7.1      1.899      4.036
REMARK  Name = 
REMARK  8 active torsions:
REMARK  status: ('A' for Active; 'I' for Inactive)
REMARK    1  A    between atoms: C_1  and  C_2
REMARK    2  A    between atoms: C_2  and  C_3
REMARK    3  A    between atoms: C_6  and  C_7
REMARK    4  A    between atoms: C_7  and  C_8
REMARK    5  A    between atoms: C_8  and  O_9
REMARK    6  A    between atoms: O_9  and  C_10
REMARK    7  A    between atoms: C_13  and  C_14
REMARK    8  A    between atoms: C_14  and  C_15
REMARK                            x       y       z     vdW  Elec       q    Type
REMARK                         _______ _______ _______ _____ _____    ______ ____
ROOT
ATOM      1  C   UNL     1       9.915   0.456  22.647  0.00  0.00    +0.121 A 
ATOM      2  C   UNL     1      10.222  -0.115  23.880  0.00  0.00    +0.046 A 
ATOM      3  C   UNL     1       9.596  -1.303  24.289  0.00  0.00    +0.007 A 
ATOM      4  C   UNL     1       8.649  -1.933  23.467  0.00  0.00    -0.046 A 
ATOM      5  C   UNL     1       8.345  -1.357  22.235  0.00  0.00    +0.007 A 
ATOM      6  C   UNL     1       8.971  -0.182  21.829  0.00  0.00    +0.046 A 
ENDROOT
BRANCH   1   7
ATOM      7  O   UNL     1      10.568   1.626  22.315  0.00  0.00    -0.492 OA
BRANCH   7   8
ATOM      8  C   UNL     1      10.421   2.647  23.314  0.00  0.00    +0.235 C 
BRANCH   8   9
ATOM      9  C   UNL     1       9.119   3.433  23.209  0.00  0.00    +0.096 C 
BRANCH   9  13
ATOM     10  C   UNL     1       6.068   1.323  25.350  0.00  0.00    -0.030 A 
ATOM     11  C   UNL     1       7.191   1.784  26.041  0.00  0.00    +0.007 A 
ATOM     12  C   UNL     1       8.187   2.492  25.365  0.00  0.00    +0.024 A 
ATOM     13  C   UNL     1       8.040   2.723  24.004  0.00  0.00    +0.045 A 
ATOM     14  N   UNL     1       6.952   2.284  23.319  0.00  0.00    -0.260 NA
ATOM     15  C   UNL     1       6.000   1.608  23.995  0.00  0.00    +0.114 A 
BRANCH  10  17
ATOM     16  C   UNL     1       5.124  -0.974  25.620  0.00  0.00    +0.009 C 
ATOM     17  C   UNL     1       5.010   0.492  26.017  0.00  0.00    +0.033 C 
ENDBRANCH  10  17
ENDBRANCH   9  13
ENDBRANCH   8   9
ENDBRANCH   7   8
ENDBRANCH   1   7
BRANCH   4  18
ATOM     18  C   UNL     1       7.932  -3.191  23.890  0.00  0.00    +0.059 C 
BRANCH  18  19
ATOM     19  C   UNL     1       8.150  -3.653  25.330  0.00  0.00    +0.146 C 
ATOM     20  C   UNL     1       9.138  -4.792  25.471  0.00  0.00    +0.234 C 
ATOM     21  O   UNL     1      10.193  -4.892  24.860  0.00  0.00    -0.274 OA
ATOM     22  N   UNL     1       8.759  -5.651  26.463  0.00  0.00    -0.246 N 
ATOM     23  H   UNL     1       9.369  -6.394  26.764  0.00  0.00    +0.158 HD
ATOM     24  C   UNL     1       7.576  -5.441  27.089  0.00  0.00    +0.279 C 
ATOM     25  O   UNL     1       7.191  -6.015  28.093  0.00  0.00    -0.263 OA
ATOM     26  S   UNL     1       6.682  -4.183  26.274  0.00  0.00    -0.054 S 
ENDBRANCH  18  19
ENDBRANCH   4  18
TORSDOF 7
ENDMDL
MODEL 6
REMARK VINA RESULT:      -7.1      1.731      3.744
REMARK  Name = 
REMARK  8 active torsions:
REMARK  status: ('A' for Active; 'I' for Inactive)
REMARK    1  A    between atoms: C_1  and  C_2
REMARK    2  A    between atoms: C_2  and  C_3
REMARK    3  A    between atoms: C_6  and  C_7
REMARK    4  A    between atoms: C_7  and  C_8
REMARK    5  A    between atoms: C_8  and  O_9
REMARK    6  A    between atoms: O_9  and  C_10
REMARK    7  A    between atoms: C_13  and  C_14
REMARK    8  A    between atoms: C_14  and  C_15
REMARK                            x       y       z     vdW  Elec       q    Type
REMARK                         _______ _______ _______ _____ _____    ______ ____
ROOT
ATOM      1  C   UNL     1       9.931   0.712  22.745  0.00  0.00    +0.121 A 
ATOM      2  C   UNL     1       9.509  -0.127  21.716  0.00  0.00    +0.046 A 
ATOM      3  C   UNL     1       9.001  -1.403  22.003  0.00  0.00    +0.007 A 
ATOM      4  C   UNL     1       8.913  -1.858  23.328  0.00  0.00    -0.046 A 
ATOM      5  C   UNL     1       9.339  -1.014  24.353  0.00  0.00    +0.007 A 
ATOM      6  C   UNL     1       9.836   0.253  24.067  0.00  0.00    +0.046 A 
ENDROOT
BRANCH   1   7
ATOM      7  O   UNL     1      10.423   1.952  22.385  0.00  0.00    -0.492 OA
BRANCH   7   8
ATOM      8  C   UNL     1      10.756   2.767  23.519  0.00  0.00    +0.235 C 
BRANCH   8   9
ATOM      9  C   UNL     1       9.974   4.073  23.594  0.00  0.00    +0.096 C 
BRANCH   9  13
ATOM     10  C   UNL     1       5.855   3.133  24.297  0.00  0.00    -0.030 A 
ATOM     11  C   UNL     1       6.775   2.985  25.337  0.00  0.00    +0.007 A 
ATOM     12  C   UNL     1       8.119   3.305  25.134  0.00  0.00    +0.024 A 
ATOM     13  C   UNL     1       8.518   3.769  23.887  0.00  0.00    +0.045 A 
ATOM     14  N   UNL     1       7.634   3.922  22.867  0.00  0.00    -0.260 NA
ATOM     15  C   UNL     1       6.339   3.612  23.090  0.00  0.00    +0.114 A 
BRANCH  10  17
ATOM     16  C   UNL     1       4.011   2.649  25.911  0.00  0.00    +0.009 C 
ATOM     17  C   UNL     1       4.416   2.730  24.445  0.00  0.00    +0.033 C 
ENDBRANCH  10  17
ENDBRANCH   9  13
ENDBRANCH   8   9
ENDBRANCH   7   8
ENDBRANCH   1   7
BRANCH   4  18
ATOM     18  C   UNL     1       8.405  -3.236  23.670  0.00  0.00    +0.059 C 
BRANCH  18  19
ATOM     19  C   UNL     1       8.488  -3.653  25.138  0.00  0.00    +0.146 C 
ATOM     20  C   UNL     1       9.379  -4.850  25.392  0.00  0.00    +0.234 C 
ATOM     21  O   UNL     1      10.465  -5.047  24.864  0.00  0.00    -0.274 OA
ATOM     22  N   UNL     1       8.871  -5.640  26.383  0.00  0.00    -0.246 N 
ATOM     23  H   UNL     1       9.404  -6.410  26.754  0.00  0.00    +0.158 HD
ATOM     24  C   UNL     1       7.665  -5.323  26.913  0.00  0.00    +0.279 C 
ATOM     25  O   UNL     1       7.170  -5.828  27.906  0.00  0.00    -0.263 OA
ATOM     26  S   UNL     1       6.922  -4.042  25.990  0.00  0.00    -0.054 S 
ENDBRANCH  18  19
ENDBRANCH   4  18
TORSDOF 7
ENDMDL
MODEL 7
REMARK VINA RESULT:      -7.1      2.328      4.567
REMARK  Name = 
REMARK  8 active torsions:
REMARK  status: ('A' for Active; 'I' for Inactive)
REMARK    1  A    between atoms: C_1  and  C_2
REMARK    2  A    between atoms: C_2  and  C_3
REMARK    3  A    between atoms: C_6  and  C_7
REMARK    4  A    between atoms: C_7  and  C_8
REMARK    5  A    between atoms: C_8  and  O_9
REMARK    6  A    between atoms: O_9  and  C_10
REMARK    7  A    between atoms: C_13  and  C_14
REMARK    8  A    between atoms: C_14  and  C_15
REMARK                            x       y       z     vdW  Elec       q    Type
REMARK                         _______ _______ _______ _____ _____    ______ ____
ROOT
ATOM      1  C   UNL     1       9.092  -3.457  24.840  0.00  0.00    +0.121 A 
ATOM      2  C   UNL     1       8.075  -2.538  25.088  0.00  0.00    +0.046 A 
ATOM      3  C   UNL     1       7.065  -2.831  26.019  0.00  0.00    +0.007 A 
ATOM      4  C   UNL     1       7.060  -4.052  26.711  0.00  0.00    -0.046 A 
ATOM      5  C   UNL     1       8.079  -4.967  26.456  0.00  0.00    +0.007 A 
ATOM      6  C   UNL     1       9.083  -4.673  25.539  0.00  0.00    +0.046 A 
ENDROOT
BRANCH   1   7
ATOM      7  O   UNL     1      10.048  -3.101  23.909  0.00  0.00    -0.492 OA
BRANCH   7   8
ATOM      8  C   UNL     1       9.525  -2.255  22.873  0.00  0.00    +0.235 C 
BRANCH   8   9
ATOM      9  C   UNL     1      10.533  -1.250  22.327  0.00  0.00    +0.096 C 
BRANCH   9  13
ATOM     10  C   UNL     1       9.403   2.745  23.376  0.00  0.00    -0.030 A 
ATOM     11  C   UNL     1       9.010   2.229  22.139  0.00  0.00    +0.007 A 
ATOM     12  C   UNL     1       9.352   0.921  21.787  0.00  0.00    +0.024 A 
ATOM     13  C   UNL     1      10.084   0.153  22.683  0.00  0.00    +0.045 A 
ATOM     14  N   UNL     1      10.469   0.641  23.891  0.00  0.00    -0.260 NA
ATOM     15  C   UNL     1      10.121   1.905  24.212  0.00  0.00    +0.114 A 
BRANCH  10  17
ATOM     16  C   UNL     1      10.404   4.996  23.787  0.00  0.00    +0.009 C 
ATOM     17  C   UNL     1       9.126   4.169  23.767  0.00  0.00    +0.033 C 
ENDBRANCH  10  17
ENDBRANCH   9  13
ENDBRANCH   8   9
ENDBRANCH   7   8
ENDBRANCH   1   7
BRANCH   4  18
ATOM     18  C   UNL     1       5.971  -4.413  27.690  0.00  0.00    +0.059 C 
BRANCH  18  19
ATOM     19  C   UNL     1       4.869  -5.339  27.180  0.00  0.00    +0.146 C 
ATOM     20  C   UNL     1       5.095  -6.802  27.497  0.00  0.00    +0.234 C 
ATOM     21  O   UNL     1       5.518  -7.238  28.559  0.00  0.00    -0.274 OA
ATOM     22  N   UNL     1       4.656  -7.599  26.478  0.00  0.00    -0.246 N 
ATOM     23  H   UNL     1       4.624  -8.601  26.583  0.00  0.00    +0.158 HD
ATOM     24  C   UNL     1       4.191  -7.013  25.348  0.00  0.00    +0.279 C 
ATOM     25  O   UNL     1       3.616  -7.584  24.437  0.00  0.00    -0.263 OA
ATOM     26  S   UNL     1       4.494  -5.296  25.395  0.00  0.00    -0.054 S 
ENDBRANCH  18  19
ENDBRANCH   4  18
TORSDOF 7
ENDMDL
MODEL 8
REMARK VINA RESULT:      -7.1      1.684      2.067
REMARK  Name = 
REMARK  8 active torsions:
REMARK  status: ('A' for Active; 'I' for Inactive)
REMARK    1  A    between atoms: C_1  and  C_2
REMARK    2  A    between atoms: C_2  and  C_3
REMARK    3  A    between atoms: C_6  and  C_7
REMARK    4  A    between atoms: C_7  and  C_8
REMARK    5  A    between atoms: C_8  and  O_9
REMARK    6  A    between atoms: O_9  and  C_10
REMARK    7  A    between atoms: C_13  and  C_14
REMARK    8  A    between atoms: C_14  and  C_15
REMARK                            x       y       z     vdW  Elec       q    Type
REMARK                         _______ _______ _______ _____ _____    ______ ____
ROOT
ATOM      1  C   UNL     1       6.693   1.510  25.227  0.00  0.00    +0.121 A 
ATOM      2  C   UNL     1       7.974   1.180  25.665  0.00  0.00    +0.046 A 
ATOM      3  C   UNL     1       8.495  -0.102  25.433  0.00  0.00    +0.007 A 
ATOM      4  C   UNL     1       7.736  -1.074  24.761  0.00  0.00    -0.046 A 
ATOM      5  C   UNL     1       6.455  -0.737  24.327  0.00  0.00    +0.007 A 
ATOM      6  C   UNL     1       5.943   0.537  24.552  0.00  0.00    +0.046 A 
ENDROOT
BRANCH   1   7
ATOM      7  O   UNL     1       6.247   2.790  25.494  0.00  0.00    -0.492 OA
BRANCH   7   8
ATOM      8  C   UNL     1       7.276   3.780  25.338  0.00  0.00    +0.235 C 
BRANCH   8   9
ATOM      9  C   UNL     1       7.615   4.097  23.887  0.00  0.00    +0.096 C 
BRANCH   9  13
ATOM     10  C   UNL     1      11.806   4.852  23.434  0.00  0.00    -0.030 A 
ATOM     11  C   UNL     1      10.951   5.914  23.737  0.00  0.00    +0.007 A 
ATOM     12  C   UNL     1       9.585   5.685  23.909  0.00  0.00    +0.024 A 
ATOM     13  C   UNL     1       9.098   4.392  23.771  0.00  0.00    +0.045 A 
ATOM     14  N   UNL     1       9.917   3.348  23.481  0.00  0.00    -0.260 NA
ATOM     15  C   UNL     1      11.236   3.593  23.327  0.00  0.00    +0.114 A 
BRANCH  10  17
ATOM     16  C   UNL     1      13.491   5.795  21.850  0.00  0.00    +0.009 C 
ATOM     17  C   UNL     1      13.269   5.061  23.166  0.00  0.00    +0.033 C 
ENDBRANCH  10  17
ENDBRANCH   9  13
ENDBRANCH   8   9
ENDBRANCH   7   8
ENDBRANCH   1   7
BRANCH   4  18
ATOM     18  C   UNL     1       8.252  -2.472  24.526  0.00  0.00    +0.059 C 
BRANCH  18  19
ATOM     19  C   UNL     1       8.477  -3.337  25.765  0.00  0.00    +0.146 C 
ATOM     20  C   UNL     1       9.164  -4.655  25.482  0.00  0.00    +0.234 C 
ATOM     21  O   UNL     1      10.104  -4.812  24.715  0.00  0.00    -0.274 OA
ATOM     22  N   UNL     1       8.676  -5.646  26.285  0.00  0.00    -0.246 N 
ATOM     23  H   UNL     1       9.109  -6.556  26.306  0.00  0.00    +0.158 HD
ATOM     24  C   UNL     1       7.641  -5.362  27.112  0.00  0.00    +0.279 C 
ATOM     25  O   UNL     1       7.218  -6.087  27.997  0.00  0.00    -0.263 OA
ATOM     26  S   UNL     1       7.013  -3.772  26.763  0.00  0.00    -0.054 S 
ENDBRANCH  18  19
ENDBRANCH   4  18
TORSDOF 7
ENDMDL
MODEL 9
REMARK VINA RESULT:      -7.0      3.138      4.596
REMARK  Name = 
REMARK  8 active torsions:
REMARK  status: ('A' for Active; 'I' for Inactive)
REMARK    1  A    between atoms: C_1  and  C_2
REMARK    2  A    between atoms: C_2  and  C_3
REMARK    3  A    between atoms: C_6  and  C_7
REMARK    4  A    between atoms: C_7  and  C_8
REMARK    5  A    between atoms: C_8  and  O_9
REMARK    6  A    between atoms: O_9  and  C_10
REMARK    7  A    between atoms: C_13  and  C_14
REMARK    8  A    between atoms: C_14  and  C_15
REMARK                            x       y       z     vdW  Elec       q    Type
REMARK                         _______ _______ _______ _____ _____    ______ ____
ROOT
ATOM      1  C   UNL     1       9.183  -2.986  23.752  0.00  0.00    +0.121 A 
ATOM      2  C   UNL     1       9.119  -3.826  24.861  0.00  0.00    +0.046 A 
ATOM      3  C   UNL     1       7.887  -4.344  25.290  0.00  0.00    +0.007 A 
ATOM      4  C   UNL     1       6.700  -4.022  24.614  0.00  0.00    -0.046 A 
ATOM      5  C   UNL     1       6.771  -3.179  23.506  0.00  0.00    +0.007 A 
ATOM      6  C   UNL     1       7.994  -2.672  23.079  0.00  0.00    +0.046 A 
ENDROOT
BRANCH   1   7
ATOM      7  O   UNL     1      10.430  -2.513  23.392  0.00  0.00    -0.492 OA
BRANCH   7   8
ATOM      8  C   UNL     1      10.374  -1.218  22.773  0.00  0.00    +0.235 C 
BRANCH   8   9
ATOM      9  C   UNL     1      10.521  -0.058  23.750  0.00  0.00    +0.096 C 
BRANCH   9  13
ATOM     10  C   UNL     1       8.013   3.219  22.604  0.00  0.00    -0.030 A 
ATOM     11  C   UNL     1       8.096   2.101  21.771  0.00  0.00    +0.007 A 
ATOM     12  C   UNL     1       8.893   1.014  22.136  0.00  0.00    +0.024 A 
ATOM     13  C   UNL     1       9.595   1.068  23.334  0.00  0.00    +0.045 A 
ATOM     14  N   UNL     1       9.520   2.147  24.156  0.00  0.00    -0.260 NA
ATOM     15  C   UNL     1       8.738   3.182  23.784  0.00  0.00    +0.114 A 
BRANCH  10  17
ATOM     16  C   UNL     1       7.862   5.706  22.786  0.00  0.00    +0.009 C 
ATOM     17  C   UNL     1       7.231   4.442  22.217  0.00  0.00    +0.033 C 
ENDBRANCH  10  17
ENDBRANCH   9  13
ENDBRANCH   8   9
ENDBRANCH   7   8
ENDBRANCH   1   7
BRANCH   4  18
ATOM     18  C   UNL     1       5.355  -4.532  25.068  0.00  0.00    +0.059 C 
BRANCH  18  19
ATOM     19  C   UNL     1       4.991  -5.960  24.664  0.00  0.00    +0.146 C 
ATOM     20  C   UNL     1       4.152  -6.052  23.407  0.00  0.00    +0.234 C 
ATOM     21  O   UNL     1       4.320  -5.385  22.395  0.00  0.00    -0.274 OA
ATOM     22  N   UNL     1       3.241  -7.065  23.498  0.00  0.00    -0.246 N 
ATOM     23  H   UNL     1       2.688  -7.336  22.700  0.00  0.00    +0.158 HD
ATOM     24  C   UNL     1       3.147  -7.754  24.661  0.00  0.00    +0.279 C 
ATOM     25  O   UNL     1       2.510  -8.779  24.831  0.00  0.00    -0.263 OA
ATOM     26  S   UNL     1       4.114  -6.984  25.893  0.00  0.00    -0.054 S 
ENDBRANCH  18  19
ENDBRANCH   4  18
TORSDOF 7
ENDMDL
