MODEL 1
REMARK VINA RESULT:      -7.6      0.000      0.000
REMARK  Name = 
REMARK  2 active torsions:
REMARK  status: ('A' for Active; 'I' for Inactive)
REMARK    1  A    between atoms: O_1  and  C_2
REMARK    2  A    between atoms: C_4  and  O_5
REMARK                            x       y       z     vdW  Elec       q    Type
REMARK                         _______ _______ _______ _____ _____    ______ ____
ROOT
ATOM      1  C   UNL     1       7.220  -5.089  27.554  0.00  0.00    +0.139 A 
ATOM      2  C   UNL     1       7.919  -4.417  26.617  0.00  0.00    +0.087 A 
ATOM      3 CL   UNL     1       9.432  -5.111  26.140  0.00  0.00    -0.079 Cl
ATOM      4  C   UNL     1       7.238  -3.441  25.821  0.00  0.00    -0.001 A 
ATOM      5  C   UNL     1       6.470  -4.246  24.630  0.00  0.00    +0.112 C 
ATOM      6  C   UNL     1       7.271  -4.268  23.391  0.00  0.00    +0.138 C 
ATOM      7  C   UNL     1       7.726  -2.893  23.025  0.00  0.00    +0.074 C 
ATOM      8  C   UNL     1       9.126  -2.691  23.599  0.00  0.00    +0.007 C 
ATOM      9  C   UNL     1       9.324  -1.276  23.888  0.00  0.00    +0.001 C 
ATOM     10  C   UNL     1      10.492  -0.605  23.114  0.00  0.00    +0.004 C 
ATOM     11  C   UNL     1       9.732   0.575  22.643  0.00  0.00    +0.027 C 
ATOM     12  C   UNL     1       9.897   1.841  21.955  0.00  0.00    -0.031 C 
ATOM     13  C   UNL     1       8.706   2.464  21.980  0.00  0.00    -0.028 C 
ATOM     14  C   UNL     1       7.705   2.337  23.256  0.00  0.00    +0.068 C 
ATOM     15  C   UNL     1       6.618   1.112  23.905  0.00  0.00    +0.236 C 
ATOM     16  O   UNL     1       6.926  -0.131  24.947  0.00  0.00    -0.461 OA
ATOM     17  C   UNL     1       5.920  -1.081  25.463  0.00  0.00    +0.343 C 
ATOM     18  O   UNL     1       4.739  -0.869  25.209  0.00  0.00    -0.245 OA
ATOM     19  O   UNL     1       7.452  -5.279  22.719  0.00  0.00    -0.297 OA
ATOM     20  C   UNL     1       6.288  -2.519  26.346  0.00  0.00    +0.105 A 
ATOM     21  C   UNL     1       5.467  -3.355  27.187  0.00  0.00    +0.135 A 
ATOM     22  C   UNL     1       5.905  -4.595  27.795  0.00  0.00    +0.093 A 
ENDROOT
BRANCH   1  23
ATOM     23  O   UNL     1       7.535  -6.333  28.041  0.00  0.00    -0.505 OA
ATOM     24  H   UNL     1       7.222  -6.986  27.385  0.00  0.00    +0.292 HD
ENDBRANCH   1  23
BRANCH  21  25
ATOM     25  O   UNL     1       4.101  -3.191  27.213  0.00  0.00    -0.506 OA
ATOM     26  H   UNL     1       3.925  -2.356  27.677  0.00  0.00    +0.292 HD
ENDBRANCH  21  25
TORSDOF 2
ENDMDL
MODEL 2
REMARK VINA RESULT:      -7.5      2.798      6.183
REMARK  Name = 
REMARK  2 active torsions:
REMARK  status: ('A' for Active; 'I' for Inactive)
REMARK    1  A    between atoms: O_1  and  C_2
REMARK    2  A    between atoms: C_4  and  O_5
REMARK                            x       y       z     vdW  Elec       q    Type
REMARK                         _______ _______ _______ _____ _____    ______ ____
ROOT
ATOM      1  C   UNL     1       9.257   1.669  22.586  0.00  0.00    +0.139 A 
ATOM      2  C   UNL     1       8.725   0.449  22.369  0.00  0.00    +0.087 A 
ATOM      3 CL   UNL     1       9.252  -0.378  20.941  0.00  0.00    -0.079 Cl
ATOM      4  C   UNL     1       8.097  -0.230  23.461  0.00  0.00    -0.001 A 
ATOM      5  C   UNL     1       9.282  -0.933  24.331  0.00  0.00    +0.112 C 
ATOM      6  C   UNL     1       9.469  -2.345  23.944  0.00  0.00    +0.138 C 
ATOM      7  C   UNL     1       8.168  -3.078  23.952  0.00  0.00    +0.074 C 
ATOM      8  C   UNL     1       7.604  -3.052  22.534  0.00  0.00    +0.007 C 
ATOM      9  C   UNL     1       6.149  -3.099  22.597  0.00  0.00    +0.001 C 
ATOM     10  C   UNL     1       5.500  -4.325  21.897  0.00  0.00    +0.004 C 
ATOM     11  C   UNL     1       4.612  -4.713  23.016  0.00  0.00    +0.027 C 
ATOM     12  C   UNL     1       3.540  -5.628  23.360  0.00  0.00    -0.031 C 
ATOM     13  C   UNL     1       3.136  -5.315  24.604  0.00  0.00    -0.028 C 
ATOM     14  C   UNL     1       3.115  -3.776  25.130  0.00  0.00    +0.068 C 
ATOM     15  C   UNL     1       4.310  -2.596  25.662  0.00  0.00    +0.236 C 
ATOM     16  O   UNL     1       5.195  -1.517  24.780  0.00  0.00    -0.461 OA
ATOM     17  C   UNL     1       6.146  -0.534  25.341  0.00  0.00    +0.343 C 
ATOM     18  O   UNL     1       6.200  -0.410  26.559  0.00  0.00    -0.245 OA
ATOM     19  O   UNL     1      10.568  -2.851  23.735  0.00  0.00    -0.297 OA
ATOM     20  C   UNL     1       7.246   0.412  24.405  0.00  0.00    +0.105 A 
ATOM     21  C   UNL     1       7.978   1.613  24.725  0.00  0.00    +0.135 A 
ATOM     22  C   UNL     1       8.945   2.247  23.851  0.00  0.00    +0.093 A 
ENDROOT
BRANCH   1  23
ATOM     23  O   UNL     1      10.276   2.233  21.860  0.00  0.00    -0.505 OA
ATOM     24  H   UNL     1      10.982   1.561  21.785  0.00  0.00    +0.292 HD
ENDBRANCH   1  23
BRANCH  21  25
ATOM     25  O   UNL     1       8.042   2.066  26.022  0.00  0.00    -0.506 OA
ATOM     26  H   UNL     1       8.611   2.853  26.020  0.00  0.00    +0.292 HD
ENDBRANCH  21  25
TORSDOF 2
ENDMDL
MODEL 3
REMARK VINA RESULT:      -7.5      2.370      4.056
REMARK  Name = 
REMARK  2 active torsions:
REMARK  status: ('A' for Active; 'I' for Inactive)
REMARK    1  A    between atoms: O_1  and  C_2
REMARK    2  A    between atoms: C_4  and  O_5
REMARK                            x       y       z     vdW  Elec       q    Type
REMARK                         _______ _______ _______ _____ _____    ______ ____
ROOT
ATOM      1  C   UNL     1       3.334  -5.368  25.172  0.00  0.00    +0.139 A 
ATOM      2  C   UNL     1       4.271  -4.494  25.591  0.00  0.00    +0.087 A 
ATOM      3 CL   UNL     1       4.103  -3.905  27.212  0.00  0.00    -0.079 Cl
ATOM      4  C   UNL     1       5.502  -4.408  24.867  0.00  0.00    -0.001 A 
ATOM      5  C   UNL     1       6.449  -5.629  25.386  0.00  0.00    +0.112 C 
ATOM      6  C   UNL     1       7.378  -5.179  26.441  0.00  0.00    +0.138 C 
ATOM      7  C   UNL     1       8.116  -3.952  26.015  0.00  0.00    +0.074 C 
ATOM      8  C   UNL     1       7.360  -2.738  26.549  0.00  0.00    +0.007 C 
ATOM      9  C   UNL     1       7.579  -1.608  25.655  0.00  0.00    +0.001 C 
ATOM     10  C   UNL     1       8.264  -0.376  26.310  0.00  0.00    +0.004 C 
ATOM     11  C   UNL     1       9.296  -0.178  25.268  0.00  0.00    +0.027 C 
ATOM     12  C   UNL     1      10.349   0.733  24.860  0.00  0.00    -0.031 C 
ATOM     13  C   UNL     1      10.825   0.288  23.684  0.00  0.00    -0.028 C 
ATOM     14  C   UNL     1       9.852  -0.405  22.579  0.00  0.00    +0.068 C 
ATOM     15  C   UNL     1       9.057  -1.964  22.382  0.00  0.00    +0.236 C 
ATOM     16  O   UNL     1       7.588  -2.479  22.931  0.00  0.00    -0.461 OA
ATOM     17  C   UNL     1       6.996  -3.806  22.667  0.00  0.00    +0.343 C 
ATOM     18  O   UNL     1       7.568  -4.549  21.876  0.00  0.00    -0.245 OA
ATOM     19  O   UNL     1       7.568  -5.796  27.485  0.00  0.00    -0.297 OA
ATOM     20  C   UNL     1       5.585  -4.425  23.446  0.00  0.00    +0.105 A 
ATOM     21  C   UNL     1       4.700  -5.509  23.091  0.00  0.00    +0.135 A 
ATOM     22  C   UNL     1       3.594  -5.970  23.906  0.00  0.00    +0.093 A 
ENDROOT
BRANCH   1  23
ATOM     23  O   UNL     1       2.362  -5.933  25.960  0.00  0.00    -0.505 OA
ATOM     24  H   UNL     1       2.088  -6.765  25.527  0.00  0.00    +0.292 HD
ENDBRANCH   1  23
BRANCH  21  25
ATOM     25  O   UNL     1       5.044  -6.392  22.094  0.00  0.00    -0.506 OA
ATOM     26  H   UNL     1       5.345  -7.206  22.529  0.00  0.00    +0.292 HD
ENDBRANCH  21  25
TORSDOF 2
ENDMDL
MODEL 4
REMARK VINA RESULT:      -7.2      2.359      6.691
REMARK  Name = 
REMARK  2 active torsions:
REMARK  status: ('A' for Active; 'I' for Inactive)
REMARK    1  A    between atoms: O_1  and  C_2
REMARK    2  A    between atoms: C_4  and  O_5
REMARK                            x       y       z     vdW  Elec       q    Type
REMARK                         _______ _______ _______ _____ _____    ______ ____
ROOT
ATOM      1  C   UNL     1      10.045  -0.406  24.788  0.00  0.00    +0.139 A 
ATOM      2  C   UNL     1       8.999  -1.002  25.398  0.00  0.00    +0.087 A 
ATOM      3 CL   UNL     1       8.599  -0.424  26.981  0.00  0.00    -0.079 Cl
ATOM      4  C   UNL     1       8.080  -1.757  24.601  0.00  0.00    -0.001 A 
ATOM      5  C   UNL     1       7.045  -0.692  23.928  0.00  0.00    +0.112 C 
ATOM      6  C   UNL     1       5.805  -0.572  24.720  0.00  0.00    +0.138 C 
ATOM      7  C   UNL     1       5.222  -1.917  25.006  0.00  0.00    +0.074 C 
ATOM      8  C   UNL     1       5.725  -2.368  26.375  0.00  0.00    +0.007 C 
ATOM      9  C   UNL     1       5.789  -3.823  26.405  0.00  0.00    +0.001 C 
ATOM     10  C   UNL     1       4.893  -4.498  27.481  0.00  0.00    +0.004 C 
ATOM     11  C   UNL     1       4.265  -5.493  26.584  0.00  0.00    +0.027 C 
ATOM     12  C   UNL     1       3.387  -6.648  26.594  0.00  0.00    -0.031 C 
ATOM     13  C   UNL     1       3.344  -7.125  25.337  0.00  0.00    -0.028 C 
ATOM     14  C   UNL     1       4.648  -7.081  24.365  0.00  0.00    +0.068 C 
ATOM     15  C   UNL     1       5.503  -5.853  23.435  0.00  0.00    +0.236 C 
ATOM     16  O   UNL     1       6.715  -4.832  23.895  0.00  0.00    -0.461 OA
ATOM     17  C   UNL     1       7.395  -3.863  23.011  0.00  0.00    +0.343 C 
ATOM     18  O   UNL     1       7.140  -3.893  21.812  0.00  0.00    -0.245 OA
ATOM     19  O   UNL     1       5.292   0.503  25.016  0.00  0.00    -0.297 OA
ATOM     20  C   UNL     1       8.479  -2.632  23.552  0.00  0.00    +0.105 A 
ATOM     21  C   UNL     1       9.458  -1.847  22.840  0.00  0.00    +0.135 A 
ATOM     22  C   UNL     1      10.239  -0.775  23.426  0.00  0.00    +0.093 A 
ENDROOT
BRANCH   1  23
ATOM     23  O   UNL     1      10.709   0.701  25.252  0.00  0.00    -0.505 OA
ATOM     24  H   UNL     1      10.807   1.314  24.497  0.00  0.00    +0.292 HD
ENDBRANCH   1  23
BRANCH  21  25
ATOM     25  O   UNL     1       9.490  -1.852  21.465  0.00  0.00    -0.506 OA
ATOM     26  H   UNL     1      10.323  -1.428  21.200  0.00  0.00    +0.292 HD
ENDBRANCH  21  25
TORSDOF 2
ENDMDL
MODEL 5
REMARK VINA RESULT:      -6.9      2.151      4.290
REMARK  Name = 
REMARK  2 active torsions:
REMARK  status: ('A' for Active; 'I' for Inactive)
REMARK    1  A    between atoms: O_1  and  C_2
REMARK    2  A    between atoms: C_4  and  O_5
REMARK                            x       y       z     vdW  Elec       q    Type
REMARK                         _______ _______ _______ _____ _____    ______ ____
ROOT
ATOM      1  C   UNL     1       4.911  -6.351  23.800  0.00  0.00    +0.139 A 
ATOM      2  C   UNL     1       5.052  -5.266  24.588  0.00  0.00    +0.087 A 
ATOM      3 CL   UNL     1       4.203  -5.295  26.098  0.00  0.00    -0.079 Cl
ATOM      4  C   UNL     1       6.144  -4.374  24.340  0.00  0.00    -0.001 A 
ATOM      5  C   UNL     1       7.462  -5.024  25.045  0.00  0.00    +0.112 C 
ATOM      6  C   UNL     1       7.689  -4.456  26.389  0.00  0.00    +0.138 C 
ATOM      7  C   UNL     1       7.672  -2.964  26.348  0.00  0.00    +0.074 C 
ATOM      8  C   UNL     1       6.259  -2.498  26.692  0.00  0.00    +0.007 C 
ATOM      9  C   UNL     1       6.000  -1.227  26.027  0.00  0.00    +0.001 C 
ATOM     10  C   UNL     1       5.683  -0.041  26.979  0.00  0.00    +0.004 C 
ATOM     11  C   UNL     1       6.630   0.923  26.375  0.00  0.00    +0.027 C 
ATOM     12  C   UNL     1       7.037   2.315  26.431  0.00  0.00    -0.031 C 
ATOM     13  C   UNL     1       7.943   2.503  25.456  0.00  0.00    -0.028 C 
ATOM     14  C   UNL     1       7.832   1.728  24.030  0.00  0.00    +0.068 C 
ATOM     15  C   UNL     1       8.140   0.097  23.440  0.00  0.00    +0.236 C 
ATOM     16  O   UNL     1       7.146  -1.221  23.407  0.00  0.00    -0.461 OA
ATOM     17  C   UNL     1       7.498  -2.541  22.844  0.00  0.00    +0.343 C 
ATOM     18  O   UNL     1       8.558  -2.648  22.236  0.00  0.00    -0.245 OA
ATOM     19  O   UNL     1       7.943  -5.137  27.378  0.00  0.00    -0.297 OA
ATOM     20  C   UNL     1       6.555  -3.974  23.037  0.00  0.00    +0.105 A 
ATOM     21  C   UNL     1       6.559  -5.220  22.309  0.00  0.00    +0.135 A 
ATOM     22  C   UNL     1       5.758  -6.378  22.654  0.00  0.00    +0.093 A 
ENDROOT
BRANCH   1  23
ATOM     23  O   UNL     1       4.282  -7.517  24.157  0.00  0.00    -0.505 OA
ATOM     24  H   UNL     1       4.764  -7.880  24.925  0.00  0.00    +0.292 HD
ENDBRANCH   1  23
BRANCH  21  25
ATOM     25  O   UNL     1       7.568  -5.505  21.419  0.00  0.00    -0.506 OA
ATOM     26  H   UNL     1       7.691  -6.468  21.429  0.00  0.00    +0.292 HD
ENDBRANCH  21  25
TORSDOF 2
ENDMDL
MODEL 6
REMARK VINA RESULT:      -6.7      2.699      5.816
REMARK  Name = 
REMARK  2 active torsions:
REMARK  status: ('A' for Active; 'I' for Inactive)
REMARK    1  A    between atoms: O_1  and  C_2
REMARK    2  A    between atoms: C_4  and  O_5
REMARK                            x       y       z     vdW  Elec       q    Type
REMARK                         _______ _______ _______ _____ _____    ______ ____
ROOT
ATOM      1  C   UNL     1       9.703  -0.035  24.052  0.00  0.00    +0.139 A 
ATOM      2  C   UNL     1       9.054  -1.132  23.611  0.00  0.00    +0.087 A 
ATOM      3 CL   UNL     1       9.705  -1.897  22.200  0.00  0.00    -0.079 Cl
ATOM      4  C   UNL     1       8.157  -1.803  24.502  0.00  0.00    -0.001 A 
ATOM      5  C   UNL     1       9.062  -2.759  25.463  0.00  0.00    +0.112 C 
ATOM      6  C   UNL     1       9.118  -4.141  24.949  0.00  0.00    +0.138 C 
ATOM      7  C   UNL     1       7.747  -4.660  24.662  0.00  0.00    +0.074 C 
ATOM      8  C   UNL     1       7.449  -4.417  23.185  0.00  0.00    +0.007 C 
ATOM      9  C   UNL     1       6.013  -4.242  23.009  0.00  0.00    +0.001 C 
ATOM     10  C   UNL     1       5.335  -5.283  22.076  0.00  0.00    +0.004 C 
ATOM     11  C   UNL     1       4.219  -5.629  22.985  0.00  0.00    +0.027 C 
ATOM     12  C   UNL     1       2.988  -6.394  23.045  0.00  0.00    -0.031 C 
ATOM     13  C   UNL     1       2.419  -6.137  24.236  0.00  0.00    -0.028 C 
ATOM     14  C   UNL     1       2.519  -4.669  24.928  0.00  0.00    +0.068 C 
ATOM     15  C   UNL     1       3.753  -3.742  25.778  0.00  0.00    +0.236 C 
ATOM     16  O   UNL     1       4.919  -2.738  25.182  0.00  0.00    -0.461 OA
ATOM     17  C   UNL     1       5.883  -1.971  25.997  0.00  0.00    +0.343 C 
ATOM     18  O   UNL     1       5.740  -1.969  27.215  0.00  0.00    -0.245 OA
ATOM     19  O   UNL     1      10.156  -4.790  24.860  0.00  0.00    -0.297 OA
ATOM     20  C   UNL     1       7.251  -1.126  25.366  0.00  0.00    +0.105 A 
ATOM     21  C   UNL     1       8.073  -0.088  25.938  0.00  0.00    +0.135 A 
ATOM     22  C   UNL     1       9.257   0.465  25.309  0.00  0.00    +0.093 A 
ENDROOT
BRANCH   1  23
ATOM     23  O   UNL     1      10.902   0.427  23.569  0.00  0.00    -0.505 OA
ATOM     24  H   UNL     1      11.199   1.137  24.171  0.00  0.00    +0.292 HD
ENDBRANCH   1  23
BRANCH  21  25
ATOM     25  O   UNL     1       7.970   0.229  27.272  0.00  0.00    -0.506 OA
ATOM     26  H   UNL     1       8.803  -0.043  27.692  0.00  0.00    +0.292 HD
ENDBRANCH  21  25
TORSDOF 2
ENDMDL
MODEL 7
REMARK VINA RESULT:      -6.7      3.121      7.231
REMARK  Name = 
REMARK  2 active torsions:
REMARK  status: ('A' for Active; 'I' for Inactive)
REMARK    1  A    between atoms: O_1  and  C_2
REMARK    2  A    between atoms: C_4  and  O_5
REMARK                            x       y       z     vdW  Elec       q    Type
REMARK                         _______ _______ _______ _____ _____    ______ ____
ROOT
ATOM      1  C   UNL     1       9.027   4.212  24.757  0.00  0.00    +0.139 A 
ATOM      2  C   UNL     1       8.415   3.110  25.235  0.00  0.00    +0.087 A 
ATOM      3 CL   UNL     1       7.246   3.362  26.488  0.00  0.00    -0.079 Cl
ATOM      4  C   UNL     1       8.461   1.908  24.460  0.00  0.00    -0.001 A 
ATOM      5  C   UNL     1       7.299   2.026  23.323  0.00  0.00    +0.112 C 
ATOM      6  C   UNL     1       6.057   1.354  23.751  0.00  0.00    +0.138 C 
ATOM      7  C   UNL     1       6.336  -0.037  24.218  0.00  0.00    +0.074 C 
ATOM      8  C   UNL     1       6.510   0.001  25.734  0.00  0.00    +0.007 C 
ATOM      9  C   UNL     1       7.413  -1.069  26.138  0.00  0.00    +0.001 C 
ATOM     10  C   UNL     1       6.800  -2.115  27.110  0.00  0.00    +0.004 C 
ATOM     11  C   UNL     1       7.236  -3.318  26.367  0.00  0.00    +0.027 C 
ATOM     12  C   UNL     1       7.280  -4.765  26.459  0.00  0.00    -0.031 C 
ATOM     13  C   UNL     1       7.955  -5.211  25.385  0.00  0.00    -0.028 C 
ATOM     14  C   UNL     1       9.207  -4.380  24.762  0.00  0.00    +0.068 C 
ATOM     15  C   UNL     1       9.413  -2.931  23.781  0.00  0.00    +0.236 C 
ATOM     16  O   UNL     1       9.535  -1.351  24.241  0.00  0.00    -0.461 OA
ATOM     17  C   UNL     1       9.751  -0.211  23.327  0.00  0.00    +0.343 C 
ATOM     18  O   UNL     1       9.986  -0.450  22.147  0.00  0.00    -0.245 OA
ATOM     19  O   UNL     1       4.942   1.858  23.645  0.00  0.00    -0.297 OA
ATOM     20  C   UNL     1       9.626   1.451  23.782  0.00  0.00    +0.105 A 
ATOM     21  C   UNL     1      10.113   2.650  23.145  0.00  0.00    +0.135 A 
ATOM     22  C   UNL     1       9.847   3.997  23.611  0.00  0.00    +0.093 A 
ENDROOT
BRANCH   1  23
ATOM     23  O   UNL     1       8.697   5.506  25.072  0.00  0.00    -0.505 OA
ATOM     24  H   UNL     1       7.731   5.528  25.218  0.00  0.00    +0.292 HD
ENDBRANCH   1  23
BRANCH  21  25
ATOM     25  O   UNL     1      10.603   2.608  21.860  0.00  0.00    -0.506 OA
ATOM     26  H   UNL     1      10.791   1.676  21.660  0.00  0.00    +0.292 HD
ENDBRANCH  21  25
TORSDOF 2
ENDMDL
MODEL 8
REMARK VINA RESULT:      -6.6      3.235      5.037
REMARK  Name = 
REMARK  2 active torsions:
REMARK  status: ('A' for Active; 'I' for Inactive)
REMARK    1  A    between atoms: O_1  and  C_2
REMARK    2  A    between atoms: C_4  and  O_5
REMARK                            x       y       z     vdW  Elec       q    Type
REMARK                         _______ _______ _______ _____ _____    ______ ____
ROOT
ATOM      1  C   UNL     1       1.430  -5.711  25.557  0.00  0.00    +0.139 A 
ATOM      2  C   UNL     1       2.559  -5.053  25.892  0.00  0.00    +0.087 A 
ATOM      3 CL   UNL     1       2.667  -4.490  27.526  0.00  0.00    -0.079 Cl
ATOM      4  C   UNL     1       3.710  -5.193  25.052  0.00  0.00    -0.001 A 
ATOM      5  C   UNL     1       4.436  -6.593  25.464  0.00  0.00    +0.112 C 
ATOM      6  C   UNL     1       5.531  -6.368  26.428  0.00  0.00    +0.138 C 
ATOM      7  C   UNL     1       6.457  -5.301  25.944  0.00  0.00    +0.074 C 
ATOM      8  C   UNL     1       6.015  -3.977  26.560  0.00  0.00    +0.007 C 
ATOM      9  C   UNL     1       6.372  -2.888  25.660  0.00  0.00    +0.001 C 
ATOM     10  C   UNL     1       7.349  -1.836  26.256  0.00  0.00    +0.004 C 
ATOM     11  C   UNL     1       8.298  -1.819  25.120  0.00  0.00    +0.027 C 
ATOM     12  C   UNL     1       9.470  -1.124  24.620  0.00  0.00    -0.031 C 
ATOM     13  C   UNL     1       9.734  -1.621  23.399  0.00  0.00    -0.028 C 
ATOM     14  C   UNL     1       8.543  -2.074  22.388  0.00  0.00    +0.068 C 
ATOM     15  C   UNL     1       7.435  -3.437  22.254  0.00  0.00    +0.236 C 
ATOM     16  O   UNL     1       5.950  -3.664  22.939  0.00  0.00    -0.461 OA
ATOM     17  C   UNL     1       5.081  -4.839  22.722  0.00  0.00    +0.343 C 
ATOM     18  O   UNL     1       5.415  -5.658  21.872  0.00  0.00    -0.245 OA
ATOM     19  O   UNL     1       5.690  -7.040  27.442  0.00  0.00    -0.297 OA
ATOM     20  C   UNL     1       3.653  -5.186  23.629  0.00  0.00    +0.105 A 
ATOM     21  C   UNL     1       2.540  -6.061  23.352  0.00  0.00    +0.135 A 
ATOM     22  C   UNL     1       1.445  -6.315  24.267  0.00  0.00    +0.093 A 
ENDROOT
BRANCH   1  23
ATOM     23  O   UNL     1       0.444  -6.092  26.431  0.00  0.00    -0.505 OA
ATOM     24  H   UNL     1       0.462  -7.068  26.477  0.00  0.00    +0.292 HD
ENDBRANCH   1  23
BRANCH  21  25
ATOM     25  O   UNL     1       2.604  -6.966  22.318  0.00  0.00    -0.506 OA
ATOM     26  H   UNL     1       3.308  -7.598  22.539  0.00  0.00    +0.292 HD
ENDBRANCH  21  25
TORSDOF 2
ENDMDL
MODEL 9
REMARK VINA RESULT:      -6.6      4.252      8.044
REMARK  Name = 
REMARK  2 active torsions:
REMARK  status: ('A' for Active; 'I' for Inactive)
REMARK    1  A    between atoms: O_1  and  C_2
REMARK    2  A    between atoms: C_4  and  O_5
REMARK                            x       y       z     vdW  Elec       q    Type
REMARK                         _______ _______ _______ _____ _____    ______ ____
ROOT
ATOM      1  C   UNL     1       8.957   5.832  25.592  0.00  0.00    +0.139 A 
ATOM      2  C   UNL     1       8.175   4.744  25.442  0.00  0.00    +0.087 A 
ATOM      3 CL   UNL     1       6.689   4.737  26.332  0.00  0.00    -0.079 Cl
ATOM      4  C   UNL     1       8.401   3.884  24.320  0.00  0.00    -0.001 A 
ATOM      5  C   UNL     1       7.655   4.563  23.040  0.00  0.00    +0.112 C 
ATOM      6  C   UNL     1       6.311   3.989  22.834  0.00  0.00    +0.138 C 
ATOM      7  C   UNL     1       6.365   2.497  22.809  0.00  0.00    +0.074 C 
ATOM      8  C   UNL     1       6.063   1.990  24.217  0.00  0.00    +0.007 C 
ATOM      9  C   UNL     1       6.745   0.719  24.424  0.00  0.00    +0.001 C 
ATOM     10  C   UNL     1       5.811  -0.484  24.734  0.00  0.00    +0.004 C 
ATOM     11  C   UNL     1       6.398  -1.417  23.746  0.00  0.00    +0.027 C 
ATOM     12  C   UNL     1       6.343  -2.797  23.303  0.00  0.00    -0.031 C 
ATOM     13  C   UNL     1       7.295  -2.952  22.366  0.00  0.00    -0.028 C 
ATOM     14  C   UNL     1       8.717  -2.167  22.460  0.00  0.00    +0.068 C 
ATOM     15  C   UNL     1       9.285  -0.523  22.181  0.00  0.00    +0.236 C 
ATOM     16  O   UNL     1       9.333   0.768  23.209  0.00  0.00    -0.461 OA
ATOM     17  C   UNL     1       9.876   2.102  22.878  0.00  0.00    +0.343 C 
ATOM     18  O   UNL     1      10.453   2.243  21.805  0.00  0.00    -0.245 OA
ATOM     19  O   UNL     1       5.309   4.668  22.625  0.00  0.00    -0.297 OA
ATOM     20  C   UNL     1       9.696   3.507  23.865  0.00  0.00    +0.105 A 
ATOM     21  C   UNL     1      10.413   4.760  23.875  0.00  0.00    +0.135 A 
ATOM     22  C   UNL     1      10.080   5.892  24.716  0.00  0.00    +0.093 A 
ENDROOT
BRANCH   1  23
ATOM     23  O   UNL     1       8.607   6.977  26.262  0.00  0.00    -0.505 OA
ATOM     24  H   UNL     1       9.332   7.620  26.131  0.00  0.00    +0.292 HD
ENDBRANCH   1  23
BRANCH  21  25
ATOM     25  O   UNL     1      11.273   5.079  22.850  0.00  0.00    -0.506 OA
ATOM     26  H   UNL     1      11.039   5.974  22.553  0.00  0.00    +0.292 HD
ENDBRANCH  21  25
TORSDOF 2
ENDMDL
