MODEL 1
REMARK VINA RESULT:      -4.0      0.000      0.000
REMARK  Name = 
REMARK  4 active torsions:
REMARK  status: ('A' for Active; 'I' for Inactive)
REMARK    1  A    between atoms: C_1  and  C_2
REMARK    2  A    between atoms: N_4  and  C_5
REMARK    3  A    between atoms: C_5  and  C_6
REMARK    4  A    between atoms: C_6  and  O_7
REMARK                            x       y       z     vdW  Elec       q    Type
REMARK                         _______ _______ _______ _____ _____    ______ ____
ROOT
ATOM      1  C   UNL     1       9.903   1.640  22.024  0.00  0.00    +0.109 C 
ATOM      2  C   UNL     1      10.685   2.367  23.079  0.00  0.00    +0.210 C 
ATOM      3  N   UNL     1      11.079   3.630  22.715  0.00  0.00    -0.305 N 
ATOM      4  H   UNL     1      10.849   3.971  21.789  0.00  0.00    +0.149 HD
ATOM      5  O   UNL     1      10.890   1.921  24.201  0.00  0.00    -0.276 OA
ENDROOT
BRANCH   3   6
ATOM      6  C   UNL     1      11.995   4.433  23.524  0.00  0.00    +0.224 C 
BRANCH   6   7
ATOM      7  C   UNL     1      13.125   5.094  22.739  0.00  0.00    +0.322 C 
ATOM      8  O   UNL     1      12.973   5.592  21.631  0.00  0.00    -0.249 OA
BRANCH   7   9
ATOM      9  O   UNL     1      14.338   5.015  23.331  0.00  0.00    -0.480 OA
ATOM     10  H   UNL     1      14.439   4.159  23.795  0.00  0.00    +0.295 HD
ENDBRANCH   7   9
ENDBRANCH   6   7
ENDBRANCH   3   6
TORSDOF 3
ENDMDL
MODEL 2
REMARK VINA RESULT:      -3.7      9.844     10.550
REMARK  Name = 
REMARK  4 active torsions:
REMARK  status: ('A' for Active; 'I' for Inactive)
REMARK    1  A    between atoms: C_1  and  C_2
REMARK    2  A    between atoms: N_4  and  C_5
REMARK    3  A    between atoms: C_5  and  C_6
REMARK    4  A    between atoms: C_6  and  O_7
REMARK                            x       y       z     vdW  Elec       q    Type
REMARK                         _______ _______ _______ _____ _____    ______ ____
ROOT
ATOM      1  C   UNL     1       7.108  -5.798  22.321  0.00  0.00    +0.109 C 
ATOM      2  C   UNL     1       7.582  -5.171  23.600  0.00  0.00    +0.210 C 
ATOM      3  N   UNL     1       6.682  -5.255  24.633  0.00  0.00    -0.305 N 
ATOM      4  H   UNL     1       5.784  -5.694  24.471  0.00  0.00    +0.149 HD
ATOM      5  O   UNL     1       8.701  -4.698  23.750  0.00  0.00    -0.276 OA
ENDROOT
BRANCH   3   6
ATOM      6  C   UNL     1       6.875  -4.556  25.903  0.00  0.00    +0.224 C 
BRANCH   6   7
ATOM      7  C   UNL     1       7.780  -5.280  26.896  0.00  0.00    +0.322 C 
ATOM      8  O   UNL     1       7.357  -5.918  27.851  0.00  0.00    -0.249 OA
BRANCH   7   9
ATOM      9  O   UNL     1       9.103  -5.091  26.687  0.00  0.00    -0.480 OA
ATOM     10  H   UNL     1       9.612  -5.876  26.973  0.00  0.00    +0.295 HD
ENDBRANCH   7   9
ENDBRANCH   6   7
ENDBRANCH   3   6
TORSDOF 3
ENDMDL
MODEL 3
REMARK VINA RESULT:      -3.6      9.123     10.353
REMARK  Name = 
REMARK  4 active torsions:
REMARK  status: ('A' for Active; 'I' for Inactive)
REMARK    1  A    between atoms: C_1  and  C_2
REMARK    2  A    between atoms: N_4  and  C_5
REMARK    3  A    between atoms: C_5  and  C_6
REMARK    4  A    between atoms: C_6  and  O_7
REMARK                            x       y       z     vdW  Elec       q    Type
REMARK                         _______ _______ _______ _____ _____    ______ ____
ROOT
ATOM      1  C   UNL     1       5.332  -6.216  26.588  0.00  0.00    +0.109 C 
ATOM      2  C   UNL     1       6.657  -5.679  27.046  0.00  0.00    +0.210 C 
ATOM      3  N   UNL     1       7.195  -4.727  26.216  0.00  0.00    -0.305 N 
ATOM      4  H   UNL     1       6.699  -4.474  25.370  0.00  0.00    +0.149 HD
ATOM      5  O   UNL     1       7.185  -5.989  28.106  0.00  0.00    -0.276 OA
ENDROOT
BRANCH   3   6
ATOM      6  C   UNL     1       8.552  -4.210  26.387  0.00  0.00    +0.224 C 
BRANCH   6   7
ATOM      7  C   UNL     1       9.568  -4.743  25.381  0.00  0.00    +0.322 C 
ATOM      8  O   UNL     1      10.019  -4.075  24.460  0.00  0.00    -0.249 OA
BRANCH   7   9
ATOM      9  O   UNL     1       9.874  -6.051  25.537  0.00  0.00    -0.480 OA
ATOM     10  H   UNL     1      10.229  -6.217  26.433  0.00  0.00    +0.295 HD
ENDBRANCH   7   9
ENDBRANCH   6   7
ENDBRANCH   3   6
TORSDOF 3
ENDMDL
MODEL 4
REMARK VINA RESULT:      -3.6      6.849      9.209
REMARK  Name = 
REMARK  4 active torsions:
REMARK  status: ('A' for Active; 'I' for Inactive)
REMARK    1  A    between atoms: C_1  and  C_2
REMARK    2  A    between atoms: N_4  and  C_5
REMARK    3  A    between atoms: C_5  and  C_6
REMARK    4  A    between atoms: C_6  and  O_7
REMARK                            x       y       z     vdW  Elec       q    Type
REMARK                         _______ _______ _______ _____ _____    ______ ____
ROOT
ATOM      1  C   UNL     1       9.353  -1.067  24.648  0.00  0.00    +0.109 C 
ATOM      2  C   UNL     1       9.404  -2.523  24.286  0.00  0.00    +0.210 C 
ATOM      3  N   UNL     1       8.232  -3.200  24.513  0.00  0.00    -0.305 N 
ATOM      4  H   UNL     1       7.446  -2.704  24.916  0.00  0.00    +0.149 HD
ATOM      5  O   UNL     1      10.370  -3.057  23.755  0.00  0.00    -0.276 OA
ENDROOT
BRANCH   3   6
ATOM      6  C   UNL     1       8.127  -4.654  24.395  0.00  0.00    +0.224 C 
BRANCH   6   7
ATOM      7  C   UNL     1       8.643  -5.429  25.604  0.00  0.00    +0.322 C 
ATOM      8  O   UNL     1       7.934  -5.759  26.546  0.00  0.00    -0.249 OA
BRANCH   7   9
ATOM      9  O   UNL     1       9.976  -5.656  25.595  0.00  0.00    -0.480 OA
ATOM     10  H   UNL     1      10.164  -6.608  25.718  0.00  0.00    +0.295 HD
ENDBRANCH   7   9
ENDBRANCH   6   7
ENDBRANCH   3   6
TORSDOF 3
ENDMDL
MODEL 5
REMARK VINA RESULT:      -3.6      3.668      5.778
REMARK  Name = 
REMARK  4 active torsions:
REMARK  status: ('A' for Active; 'I' for Inactive)
REMARK    1  A    between atoms: C_1  and  C_2
REMARK    2  A    between atoms: N_4  and  C_5
REMARK    3  A    between atoms: C_5  and  C_6
REMARK    4  A    between atoms: C_6  and  O_7
REMARK                            x       y       z     vdW  Elec       q    Type
REMARK                         _______ _______ _______ _____ _____    ______ ____
ROOT
ATOM      1  C   UNL     1      10.650   2.543  23.539  0.00  0.00    +0.109 C 
ATOM      2  C   UNL     1       9.935   1.400  22.877  0.00  0.00    +0.210 C 
ATOM      3  N   UNL     1       9.431   0.471  23.752  0.00  0.00    -0.305 N 
ATOM      4  H   UNL     1       9.585   0.594  24.745  0.00  0.00    +0.149 HD
ATOM      5  O   UNL     1       9.737   1.332  21.671  0.00  0.00    -0.276 OA
ENDROOT
BRANCH   3   6
ATOM      6  C   UNL     1       8.859  -0.799  23.307  0.00  0.00    +0.224 C 
BRANCH   6   7
ATOM      7  C   UNL     1       9.887  -1.856  22.912  0.00  0.00    +0.322 C 
ATOM      8  O   UNL     1      10.256  -2.750  23.663  0.00  0.00    -0.249 OA
BRANCH   7   9
ATOM      9  O   UNL     1      10.426  -1.680  21.685  0.00  0.00    -0.480 OA
ATOM     10  H   UNL     1      10.529  -0.727  21.488  0.00  0.00    +0.295 HD
ENDBRANCH   7   9
ENDBRANCH   6   7
ENDBRANCH   3   6
TORSDOF 3
ENDMDL
MODEL 6
REMARK VINA RESULT:      -3.6      9.147      9.768
REMARK  Name = 
REMARK  4 active torsions:
REMARK  status: ('A' for Active; 'I' for Inactive)
REMARK    1  A    between atoms: C_1  and  C_2
REMARK    2  A    between atoms: N_4  and  C_5
REMARK    3  A    between atoms: C_5  and  C_6
REMARK    4  A    between atoms: C_6  and  O_7
REMARK                            x       y       z     vdW  Elec       q    Type
REMARK                         _______ _______ _______ _____ _____    ______ ____
ROOT
ATOM      1  C   UNL     1       6.416  -5.683  21.091  0.00  0.00    +0.109 C 
ATOM      2  C   UNL     1       6.895  -4.822  22.224  0.00  0.00    +0.210 C 
ATOM      3  N   UNL     1       7.399  -5.525  23.289  0.00  0.00    -0.305 N 
ATOM      4  H   UNL     1       7.396  -6.538  23.258  0.00  0.00    +0.149 HD
ATOM      5  O   UNL     1       6.919  -3.598  22.184  0.00  0.00    -0.276 OA
ENDROOT
BRANCH   3   6
ATOM      6  C   UNL     1       7.752  -4.888  24.557  0.00  0.00    +0.224 C 
BRANCH   6   7
ATOM      7  C   UNL     1       9.245  -4.888  24.875  0.00  0.00    +0.322 C 
ATOM      8  O   UNL     1      10.020  -4.031  24.469  0.00  0.00    -0.249 OA
BRANCH   7   9
ATOM      9  O   UNL     1       9.667  -5.963  25.578  0.00  0.00    -0.480 OA
ATOM     10  H   UNL     1       9.759  -6.742  24.993  0.00  0.00    +0.295 HD
ENDBRANCH   7   9
ENDBRANCH   6   7
ENDBRANCH   3   6
TORSDOF 3
ENDMDL
MODEL 7
REMARK VINA RESULT:      -3.5      6.554      7.715
REMARK  Name = 
REMARK  4 active torsions:
REMARK  status: ('A' for Active; 'I' for Inactive)
REMARK    1  A    between atoms: C_1  and  C_2
REMARK    2  A    between atoms: N_4  and  C_5
REMARK    3  A    between atoms: C_5  and  C_6
REMARK    4  A    between atoms: C_6  and  O_7
REMARK                            x       y       z     vdW  Elec       q    Type
REMARK                         _______ _______ _______ _____ _____    ______ ____
ROOT
ATOM      1  C   UNL     1       7.990  -5.090  25.667  0.00  0.00    +0.109 C 
ATOM      2  C   UNL     1       9.153  -4.413  25.000  0.00  0.00    +0.210 C 
ATOM      3  N   UNL     1       8.896  -3.129  24.590  0.00  0.00    -0.305 N 
ATOM      4  H   UNL     1       7.972  -2.740  24.735  0.00  0.00    +0.149 HD
ATOM      5  O   UNL     1      10.264  -4.918  24.897  0.00  0.00    -0.276 OA
ENDROOT
BRANCH   3   6
ATOM      6  C   UNL     1       9.831  -2.363  23.767  0.00  0.00    +0.224 C 
BRANCH   6   7
ATOM      7  C   UNL     1       9.280  -1.936  22.409  0.00  0.00    +0.322 C 
ATOM      8  O   UNL     1       8.094  -1.995  22.115  0.00  0.00    -0.249 OA
BRANCH   7   9
ATOM      9  O   UNL     1      10.224  -1.559  21.517  0.00  0.00    -0.480 OA
ATOM     10  H   UNL     1      10.795  -0.860  21.895  0.00  0.00    +0.295 HD
ENDBRANCH   7   9
ENDBRANCH   6   7
ENDBRANCH   3   6
TORSDOF 3
ENDMDL
MODEL 8
REMARK VINA RESULT:      -3.5      3.847      4.875
REMARK  Name = 
REMARK  4 active torsions:
REMARK  status: ('A' for Active; 'I' for Inactive)
REMARK    1  A    between atoms: C_1  and  C_2
REMARK    2  A    between atoms: N_4  and  C_5
REMARK    3  A    between atoms: C_5  and  C_6
REMARK    4  A    between atoms: C_6  and  O_7
REMARK                            x       y       z     vdW  Elec       q    Type
REMARK                         _______ _______ _______ _____ _____    ______ ____
ROOT
ATOM      1  C   UNL     1       9.010  -2.810  23.843  0.00  0.00    +0.109 C 
ATOM      2  C   UNL     1       9.884  -1.734  23.267  0.00  0.00    +0.210 C 
ATOM      3  N   UNL     1       9.756  -0.515  23.885  0.00  0.00    -0.305 N 
ATOM      4  H   UNL     1       9.092  -0.414  24.643  0.00  0.00    +0.149 HD
ATOM      5  O   UNL     1      10.706  -1.929  22.380  0.00  0.00    -0.276 OA
ENDROOT
BRANCH   3   6
ATOM      6  C   UNL     1      10.382   0.700  23.367  0.00  0.00    +0.224 C 
BRANCH   6   7
ATOM      7  C   UNL     1       9.568   1.432  22.303  0.00  0.00    +0.322 C 
ATOM      8  O   UNL     1       8.387   1.198  22.080  0.00  0.00    -0.249 OA
BRANCH   7   9
ATOM      9  O   UNL     1      10.279   2.310  21.560  0.00  0.00    -0.480 OA
ATOM     10  H   UNL     1      11.239   2.170  21.689  0.00  0.00    +0.295 HD
ENDBRANCH   7   9
ENDBRANCH   6   7
ENDBRANCH   3   6
TORSDOF 3
ENDMDL
MODEL 9
REMARK VINA RESULT:      -3.5      4.020      5.256
REMARK  Name = 
REMARK  4 active torsions:
REMARK  status: ('A' for Active; 'I' for Inactive)
REMARK    1  A    between atoms: C_1  and  C_2
REMARK    2  A    between atoms: N_4  and  C_5
REMARK    3  A    between atoms: C_5  and  C_6
REMARK    4  A    between atoms: C_6  and  O_7
REMARK                            x       y       z     vdW  Elec       q    Type
REMARK                         _______ _______ _______ _____ _____    ______ ____
ROOT
ATOM      1  C   UNL     1       7.896  -3.012  23.514  0.00  0.00    +0.109 C 
ATOM      2  C   UNL     1       9.073  -2.227  23.010  0.00  0.00    +0.210 C 
ATOM      3  N   UNL     1       8.735  -1.100  22.304  0.00  0.00    -0.305 N 
ATOM      4  H   UNL     1       7.756  -0.888  22.152  0.00  0.00    +0.149 HD
ATOM      5  O   UNL     1      10.236  -2.507  23.269  0.00  0.00    -0.276 OA
ENDROOT
BRANCH   3   6
ATOM      6  C   UNL     1       9.722  -0.299  21.582  0.00  0.00    +0.224 C 
BRANCH   6   7
ATOM      7  C   UNL     1       9.974   1.085  22.173  0.00  0.00    +0.322 C 
ATOM      8  O   UNL     1      10.403   1.266  23.305  0.00  0.00    -0.249 OA
BRANCH   7   9
ATOM      9  O   UNL     1       9.606   2.111  21.372  0.00  0.00    -0.480 OA
ATOM     10  H   UNL     1       9.282   2.865  21.906  0.00  0.00    +0.295 HD
ENDBRANCH   7   9
ENDBRANCH   6   7
ENDBRANCH   3   6
TORSDOF 3
ENDMDL
