MODEL 1
REMARK VINA RESULT:      -7.7      0.000      0.000
REMARK  Name = 
REMARK  6 active torsions:
REMARK  status: ('A' for Active; 'I' for Inactive)
REMARK    1  A    between atoms: N_1  and  C_2
REMARK    2  A    between atoms: C_2  and  C_3
REMARK    3  A    between atoms: C_3  and  C_4
REMARK    4  A    between atoms: C_4  and  N_5
REMARK    5  A    between atoms: C_7  and  C_14
REMARK    6  A    between atoms: C_15  and  C_21
REMARK                            x       y       z     vdW  Elec       q    Type
REMARK                         _______ _______ _______ _____ _____    ______ ____
ROOT
ATOM      1  C   UNL     1       6.216  -4.512  23.597  0.00  0.00    +0.059 C 
ATOM      2  C   UNL     1       5.491  -4.769  22.331  0.00  0.00    +0.252 C 
ATOM      3  O   UNL     1       5.634  -4.183  21.275  0.00  0.00    -0.270 OA
ATOM      4  N   UNL     1       4.667  -5.802  22.548  0.00  0.00    -0.248 N 
ATOM      5  H   UNL     1       4.123  -6.242  21.822  0.00  0.00    +0.158 HD
ATOM      6  C   UNL     1       4.935  -6.369  23.738  0.00  0.00    +0.252 C 
ATOM      7  O   UNL     1       4.526  -7.464  24.087  0.00  0.00    -0.270 OA
ATOM      8  C   UNL     1       5.868  -5.474  24.471  0.00  0.00    +0.059 C 
ENDROOT
BRANCH   8   9
ATOM      9  C   UNL     1       6.287  -5.657  25.829  0.00  0.00    +0.013 A 
ATOM     10  C   UNL     1       5.500  -5.886  27.010  0.00  0.00    +0.008 A 
ATOM     11  C   UNL     1       4.129  -6.086  27.296  0.00  0.00    +0.010 A 
ATOM     12  C   UNL     1       3.699  -6.253  28.619  0.00  0.00    +0.001 A 
ATOM     13  C   UNL     1       4.603  -6.183  29.673  0.00  0.00    +0.002 A 
ATOM     14  C   UNL     1       5.962  -5.979  29.432  0.00  0.00    +0.026 A 
ATOM     15  C   UNL     1       6.381  -5.860  28.099  0.00  0.00    +0.047 A 
ATOM     16  N   UNL     1       7.649  -5.705  27.597  0.00  0.00    -0.360 N 
ATOM     17  H   UNL     1       8.488  -5.670  28.156  0.00  0.00    +0.165 HD
ATOM     18  C   UNL     1       7.609  -5.617  26.236  0.00  0.00    +0.092 A 
ENDBRANCH   8   9
BRANCH   1  26
ATOM     19  N   UNL     1       8.849  -2.079  23.472  0.00  0.00    -0.346 N 
ATOM     20  C   UNL     1       8.184  -1.612  24.590  0.00  0.00    +0.050 A 
ATOM     21  C   UNL     1       8.518  -0.607  25.512  0.00  0.00    +0.026 A 
ATOM     22  C   UNL     1       7.615  -0.335  26.543  0.00  0.00    +0.002 A 
ATOM     23  C   UNL     1       6.403  -1.012  26.633  0.00  0.00    +0.001 A 
ATOM     24  C   UNL     1       6.092  -2.030  25.726  0.00  0.00    +0.010 A 
ATOM     25  C   UNL     1       7.010  -2.364  24.708  0.00  0.00    +0.008 A 
ATOM     26  C   UNL     1       7.074  -3.386  23.717  0.00  0.00    +0.013 A 
ATOM     27  C   UNL     1       8.193  -3.164  22.947  0.00  0.00    +0.095 A 
BRANCH  19  28
ATOM     28  C   UNL     1      10.067  -1.504  22.915  0.00  0.00    +0.123 C 
BRANCH  28  29
ATOM     29  C   UNL     1       9.772  -0.440  21.860  0.00  0.00    +0.036 C 
BRANCH  29  30
ATOM     30  C   UNL     1       9.996   0.975  22.387  0.00  0.00    +0.079 C 
BRANCH  30  31
ATOM     31  N   UNL     1       9.585   1.981  21.415  0.00  0.00    -0.330 NA
ATOM     32  H   UNL     1      10.405   2.343  20.927  0.00  0.00    +0.118 HD
ATOM     33  H   UNL     1       9.006   1.542  20.697  0.00  0.00    +0.118 HD
ENDBRANCH  30  31
ENDBRANCH  29  30
ENDBRANCH  28  29
ENDBRANCH  19  28
ENDBRANCH   1  26
TORSDOF 6
ENDMDL
MODEL 2
REMARK VINA RESULT:      -7.6      4.311      5.926
REMARK  Name = 
REMARK  6 active torsions:
REMARK  status: ('A' for Active; 'I' for Inactive)
REMARK    1  A    between atoms: N_1  and  C_2
REMARK    2  A    between atoms: C_2  and  C_3
REMARK    3  A    between atoms: C_3  and  C_4
REMARK    4  A    between atoms: C_4  and  N_5
REMARK    5  A    between atoms: C_7  and  C_14
REMARK    6  A    between atoms: C_15  and  C_21
REMARK                            x       y       z     vdW  Elec       q    Type
REMARK                         _______ _______ _______ _____ _____    ______ ____
ROOT
ATOM      1  C   UNL     1       8.786   0.028  23.260  0.00  0.00    +0.059 C 
ATOM      2  C   UNL     1       9.021  -0.796  22.052  0.00  0.00    +0.252 C 
ATOM      3  O   UNL     1       9.412  -0.410  20.967  0.00  0.00    -0.270 OA
ATOM      4  N   UNL     1       8.758  -2.067  22.383  0.00  0.00    -0.248 N 
ATOM      5  H   UNL     1       8.927  -2.848  21.767  0.00  0.00    +0.158 HD
ATOM      6  C   UNL     1       8.592  -2.178  23.712  0.00  0.00    +0.252 C 
ATOM      7  O   UNL     1       8.594  -3.234  24.322  0.00  0.00    -0.270 OA
ATOM      8  C   UNL     1       8.504  -0.806  24.277  0.00  0.00    +0.059 C 
ENDROOT
BRANCH   8   9
ATOM      9  C   UNL     1       8.193  -0.496  25.642  0.00  0.00    +0.013 A 
ATOM     10  C   UNL     1       7.033   0.149  26.195  0.00  0.00    +0.008 A 
ATOM     11  C   UNL     1       5.800   0.631  25.695  0.00  0.00    +0.010 A 
ATOM     12  C   UNL     1       4.885   1.256  26.552  0.00  0.00    +0.001 A 
ATOM     13  C   UNL     1       5.190   1.451  27.895  0.00  0.00    +0.002 A 
ATOM     14  C   UNL     1       6.398   0.997  28.424  0.00  0.00    +0.026 A 
ATOM     15  C   UNL     1       7.282   0.332  27.561  0.00  0.00    +0.047 A 
ATOM     16  N   UNL     1       8.496  -0.245  27.839  0.00  0.00    -0.360 N 
ATOM     17  H   UNL     1       8.921  -0.278  28.752  0.00  0.00    +0.165 HD
ATOM     18  C   UNL     1       9.036  -0.776  26.703  0.00  0.00    +0.092 A 
ENDBRANCH   8   9
BRANCH   1  26
ATOM     19  N   UNL     1       9.599   3.516  23.477  0.00  0.00    -0.346 N 
ATOM     20  C   UNL     1       8.256   3.632  23.177  0.00  0.00    +0.050 A 
ATOM     21  C   UNL     1       7.410   4.751  23.139  0.00  0.00    +0.026 A 
ATOM     22  C   UNL     1       6.078   4.557  22.764  0.00  0.00    +0.002 A 
ATOM     23  C   UNL     1       5.612   3.297  22.401  0.00  0.00    +0.001 A 
ATOM     24  C   UNL     1       6.455   2.183  22.468  0.00  0.00    +0.010 A 
ATOM     25  C   UNL     1       7.789   2.342  22.897  0.00  0.00    +0.008 A 
ATOM     26  C   UNL     1       8.859   1.445  23.186  0.00  0.00    +0.013 A 
ATOM     27  C   UNL     1       9.969   2.194  23.503  0.00  0.00    +0.095 A 
BRANCH  19  28
ATOM     28  C   UNL     1      10.507   4.629  23.725  0.00  0.00    +0.123 C 
BRANCH  28  29
ATOM     29  C   UNL     1      11.949   4.292  23.349  0.00  0.00    +0.036 C 
BRANCH  29  30
ATOM     30  C   UNL     1      12.809   5.541  23.180  0.00  0.00    +0.079 C 
BRANCH  30  31
ATOM     31  N   UNL     1      14.212   5.202  22.974  0.00  0.00    -0.330 NA
ATOM     32  H   UNL     1      14.788   6.037  23.084  0.00  0.00    +0.118 HD
ATOM     33  H   UNL     1      14.516   4.557  23.705  0.00  0.00    +0.118 HD
ENDBRANCH  30  31
ENDBRANCH  29  30
ENDBRANCH  28  29
ENDBRANCH  19  28
ENDBRANCH   1  26
TORSDOF 6
ENDMDL
MODEL 3
REMARK VINA RESULT:      -7.5      2.340      3.654
REMARK  Name = 
REMARK  6 active torsions:
REMARK  status: ('A' for Active; 'I' for Inactive)
REMARK    1  A    between atoms: N_1  and  C_2
REMARK    2  A    between atoms: C_2  and  C_3
REMARK    3  A    between atoms: C_3  and  C_4
REMARK    4  A    between atoms: C_4  and  N_5
REMARK    5  A    between atoms: C_7  and  C_14
REMARK    6  A    between atoms: C_15  and  C_21
REMARK                            x       y       z     vdW  Elec       q    Type
REMARK                         _______ _______ _______ _____ _____    ______ ____
ROOT
ATOM      1  C   UNL     1       6.884  -4.240  25.482  0.00  0.00    +0.059 C 
ATOM      2  C   UNL     1       7.831  -4.494  26.592  0.00  0.00    +0.252 C 
ATOM      3  O   UNL     1       8.731  -3.767  26.966  0.00  0.00    -0.270 OA
ATOM      4  N   UNL     1       7.490  -5.666  27.143  0.00  0.00    -0.248 N 
ATOM      5  H   UNL     1       7.917  -6.032  27.981  0.00  0.00    +0.158 HD
ATOM      6  C   UNL     1       6.309  -6.085  26.655  0.00  0.00    +0.252 C 
ATOM      7  O   UNL     1       5.636  -6.975  27.147  0.00  0.00    -0.270 OA
ATOM      8  C   UNL     1       5.960  -5.218  25.499  0.00  0.00    +0.059 C 
ENDROOT
BRANCH   8   9
ATOM      9  C   UNL     1       4.844  -5.424  24.624  0.00  0.00    +0.013 A 
ATOM     10  C   UNL     1       3.524  -4.857  24.671  0.00  0.00    +0.008 A 
ATOM     11  C   UNL     1       2.857  -3.894  25.466  0.00  0.00    +0.010 A 
ATOM     12  C   UNL     1       1.506  -3.601  25.237  0.00  0.00    +0.001 A 
ATOM     13  C   UNL     1       0.789  -4.279  24.257  0.00  0.00    +0.002 A 
ATOM     14  C   UNL     1       1.409  -5.240  23.458  0.00  0.00    +0.026 A 
ATOM     15  C   UNL     1       2.773  -5.488  23.670  0.00  0.00    +0.047 A 
ATOM     16  N   UNL     1       3.617  -6.336  22.997  0.00  0.00    -0.360 N 
ATOM     17  H   UNL     1       3.349  -6.909  22.212  0.00  0.00    +0.165 HD
ATOM     18  C   UNL     1       4.869  -6.281  23.538  0.00  0.00    +0.092 A 
ENDBRANCH   8   9
BRANCH   1  26
ATOM     19  N   UNL     1       7.980  -1.797  23.095  0.00  0.00    -0.346 N 
ATOM     20  C   UNL     1       7.132  -0.999  23.838  0.00  0.00    +0.050 A 
ATOM     21  C   UNL     1       6.894   0.384  23.800  0.00  0.00    +0.026 A 
ATOM     22  C   UNL     1       5.938   0.911  24.672  0.00  0.00    +0.002 A 
ATOM     23  C   UNL     1       5.215   0.085  25.527  0.00  0.00    +0.001 A 
ATOM     24  C   UNL     1       5.478  -1.287  25.576  0.00  0.00    +0.010 A 
ATOM     25  C   UNL     1       6.477  -1.838  24.747  0.00  0.00    +0.008 A 
ATOM     26  C   UNL     1       7.071  -3.127  24.620  0.00  0.00    +0.013 A 
ATOM     27  C   UNL     1       7.963  -3.084  23.572  0.00  0.00    +0.095 A 
BRANCH  19  28
ATOM     28  C   UNL     1       8.777  -1.352  21.958  0.00  0.00    +0.123 C 
BRANCH  28  29
ATOM     29  C   UNL     1      10.055  -0.637  22.394  0.00  0.00    +0.036 C 
BRANCH  29  30
ATOM     30  C   UNL     1      10.011   0.859  22.096  0.00  0.00    +0.079 C 
BRANCH  30  31
ATOM     31  N   UNL     1       9.020   1.174  21.075  0.00  0.00    -0.330 NA
ATOM     32  H   UNL     1       8.881   2.184  21.030  0.00  0.00    +0.118 HD
ATOM     33  H   UNL     1       9.379   0.903  20.159  0.00  0.00    +0.118 HD
ENDBRANCH  30  31
ENDBRANCH  29  30
ENDBRANCH  28  29
ENDBRANCH  19  28
ENDBRANCH   1  26
TORSDOF 6
ENDMDL
MODEL 4
REMARK VINA RESULT:      -7.3      2.705      6.524
REMARK  Name = 
REMARK  6 active torsions:
REMARK  status: ('A' for Active; 'I' for Inactive)
REMARK    1  A    between atoms: N_1  and  C_2
REMARK    2  A    between atoms: C_2  and  C_3
REMARK    3  A    between atoms: C_3  and  C_4
REMARK    4  A    between atoms: C_4  and  N_5
REMARK    5  A    between atoms: C_7  and  C_14
REMARK    6  A    between atoms: C_15  and  C_21
REMARK                            x       y       z     vdW  Elec       q    Type
REMARK                         _______ _______ _______ _____ _____    ______ ____
ROOT
ATOM      1  C   UNL     1       7.279  -4.196  25.690  0.00  0.00    +0.059 C 
ATOM      2  C   UNL     1       7.665  -5.251  26.655  0.00  0.00    +0.252 C 
ATOM      3  O   UNL     1       6.928  -5.861  27.405  0.00  0.00    -0.270 OA
ATOM      4  N   UNL     1       8.984  -5.443  26.526  0.00  0.00    -0.248 N 
ATOM      5  H   UNL     1       9.490  -6.173  27.003  0.00  0.00    +0.158 HD
ATOM      6  C   UNL     1       9.447  -4.789  25.445  0.00  0.00    +0.252 C 
ATOM      7  O   UNL     1      10.540  -4.981  24.939  0.00  0.00    -0.270 OA
ATOM      8  C   UNL     1       8.366  -3.893  24.957  0.00  0.00    +0.059 C 
ENDROOT
BRANCH   8   9
ATOM      9  C   UNL     1       8.509  -2.929  23.905  0.00  0.00    +0.013 A 
ATOM     10  C   UNL     1       9.164  -1.650  23.915  0.00  0.00    +0.008 A 
ATOM     11  C   UNL     1       9.934  -0.907  24.842  0.00  0.00    +0.010 A 
ATOM     12  C   UNL     1      10.402   0.371  24.509  0.00  0.00    +0.001 A 
ATOM     13  C   UNL     1      10.085   0.946  23.284  0.00  0.00    +0.002 A 
ATOM     14  C   UNL     1       9.321   0.249  22.347  0.00  0.00    +0.026 A 
ATOM     15  C   UNL     1       8.899  -1.047  22.679  0.00  0.00    +0.047 A 
ATOM     16  N   UNL     1       8.189  -1.949  21.926  0.00  0.00    -0.360 N 
ATOM     17  H   UNL     1       7.877  -1.788  20.981  0.00  0.00    +0.165 HD
ATOM     18  C   UNL     1       7.979  -3.094  22.638  0.00  0.00    +0.092 A 
ENDBRANCH   8   9
BRANCH   1  26
ATOM     19  N   UNL     1       4.133  -2.598  26.334  0.00  0.00    -0.346 N 
ATOM     20  C   UNL     1       3.710  -3.525  25.400  0.00  0.00    +0.050 A 
ATOM     21  C   UNL     1       2.424  -3.871  24.958  0.00  0.00    +0.026 A 
ATOM     22  C   UNL     1       2.311  -4.844  23.961  0.00  0.00    +0.002 A 
ATOM     23  C   UNL     1       3.442  -5.426  23.397  0.00  0.00    +0.001 A 
ATOM     24  C   UNL     1       4.718  -5.094  23.863  0.00  0.00    +0.010 A 
ATOM     25  C   UNL     1       4.858  -4.156  24.906  0.00  0.00    +0.008 A 
ATOM     26  C   UNL     1       5.955  -3.681  25.682  0.00  0.00    +0.013 A 
ATOM     27  C   UNL     1       5.488  -2.698  26.524  0.00  0.00    +0.095 A 
BRANCH  19  28
ATOM     28  C   UNL     1       3.274  -1.640  27.019  0.00  0.00    +0.123 C 
BRANCH  28  29
ATOM     29  C   UNL     1       4.068  -0.482  27.620  0.00  0.00    +0.036 C 
BRANCH  29  30
ATOM     30  C   UNL     1       3.872   0.818  26.845  0.00  0.00    +0.079 C 
BRANCH  30  31
ATOM     31  N   UNL     1       4.655   0.832  25.615  0.00  0.00    -0.330 NA
ATOM     32  H   UNL     1       5.440   0.186  25.700  0.00  0.00    +0.118 HD
ATOM     33  H   UNL     1       4.085   0.475  24.846  0.00  0.00    +0.118 HD
ENDBRANCH  30  31
ENDBRANCH  29  30
ENDBRANCH  28  29
ENDBRANCH  19  28
ENDBRANCH   1  26
TORSDOF 6
ENDMDL
MODEL 5
REMARK VINA RESULT:      -7.2      2.526      4.942
REMARK  Name = 
REMARK  6 active torsions:
REMARK  status: ('A' for Active; 'I' for Inactive)
REMARK    1  A    between atoms: N_1  and  C_2
REMARK    2  A    between atoms: C_2  and  C_3
REMARK    3  A    between atoms: C_3  and  C_4
REMARK    4  A    between atoms: C_4  and  N_5
REMARK    5  A    between atoms: C_7  and  C_14
REMARK    6  A    between atoms: C_15  and  C_21
REMARK                            x       y       z     vdW  Elec       q    Type
REMARK                         _______ _______ _______ _____ _____    ______ ____
ROOT
ATOM      1  C   UNL     1       5.560  -5.504  26.394  0.00  0.00    +0.059 C 
ATOM      2  C   UNL     1       6.275  -6.137  27.526  0.00  0.00    +0.252 C 
ATOM      3  O   UNL     1       7.455  -6.028  27.799  0.00  0.00    -0.270 OA
ATOM      4  N   UNL     1       5.370  -6.830  28.229  0.00  0.00    -0.248 N 
ATOM      5  H   UNL     1       5.574  -7.283  29.107  0.00  0.00    +0.158 HD
ATOM      6  C   UNL     1       4.128  -6.539  27.803  0.00  0.00    +0.252 C 
ATOM      7  O   UNL     1       3.107  -6.818  28.411  0.00  0.00    -0.270 OA
ATOM      8  C   UNL     1       4.248  -5.760  26.543  0.00  0.00    +0.059 C 
ENDROOT
BRANCH   8   9
ATOM      9  C   UNL     1       3.150  -5.376  25.705  0.00  0.00    +0.013 A 
ATOM     10  C   UNL     1       2.472  -6.123  24.681  0.00  0.00    +0.008 A 
ATOM     11  C   UNL     1       2.536  -7.442  24.171  0.00  0.00    +0.010 A 
ATOM     12  C   UNL     1       1.713  -7.829  23.105  0.00  0.00    +0.001 A 
ATOM     13  C   UNL     1       0.852  -6.916  22.506  0.00  0.00    +0.002 A 
ATOM     14  C   UNL     1       0.766  -5.605  22.975  0.00  0.00    +0.026 A 
ATOM     15  C   UNL     1       1.563  -5.248  24.072  0.00  0.00    +0.047 A 
ATOM     16  N   UNL     1       1.629  -4.054  24.746  0.00  0.00    -0.360 N 
ATOM     17  H   UNL     1       1.069  -3.243  24.533  0.00  0.00    +0.165 HD
ATOM     18  C   UNL     1       2.552  -4.130  25.749  0.00  0.00    +0.092 A 
ENDBRANCH   8   9
BRANCH   1  26
ATOM     19  N   UNL     1       7.410  -3.186  24.376  0.00  0.00    -0.346 N 
ATOM     20  C   UNL     1       6.929  -4.001  23.371  0.00  0.00    +0.050 A 
ATOM     21  C   UNL     1       6.984  -3.878  21.973  0.00  0.00    +0.026 A 
ATOM     22  C   UNL     1       6.424  -4.898  21.200  0.00  0.00    +0.002 A 
ATOM     23  C   UNL     1       5.860  -6.022  21.796  0.00  0.00    +0.001 A 
ATOM     24  C   UNL     1       5.785  -6.123  23.189  0.00  0.00    +0.010 A 
ATOM     25  C   UNL     1       6.293  -5.082  23.993  0.00  0.00    +0.008 A 
ATOM     26  C   UNL     1       6.283  -4.804  25.391  0.00  0.00    +0.013 A 
ATOM     27  C   UNL     1       7.009  -3.654  25.602  0.00  0.00    +0.095 A 
BRANCH  19  28
ATOM     28  C   UNL     1       8.235  -2.000  24.178  0.00  0.00    +0.123 C 
BRANCH  28  29
ATOM     29  C   UNL     1       9.694  -2.353  23.895  0.00  0.00    +0.036 C 
BRANCH  29  30
ATOM     30  C   UNL     1      10.344  -1.382  22.913  0.00  0.00    +0.079 C 
BRANCH  30  31
ATOM     31  N   UNL     1       9.876  -1.605  21.550  0.00  0.00    -0.330 NA
ATOM     32  H   UNL     1      10.463  -2.305  21.095  0.00  0.00    +0.118 HD
ATOM     33  H   UNL     1       8.937  -2.004  21.575  0.00  0.00    +0.118 HD
ENDBRANCH  30  31
ENDBRANCH  29  30
ENDBRANCH  28  29
ENDBRANCH  19  28
ENDBRANCH   1  26
TORSDOF 6
ENDMDL
MODEL 6
REMARK VINA RESULT:      -7.2      2.952      6.439
REMARK  Name = 
REMARK  6 active torsions:
REMARK  status: ('A' for Active; 'I' for Inactive)
REMARK    1  A    between atoms: N_1  and  C_2
REMARK    2  A    between atoms: C_2  and  C_3
REMARK    3  A    between atoms: C_3  and  C_4
REMARK    4  A    between atoms: C_4  and  N_5
REMARK    5  A    between atoms: C_7  and  C_14
REMARK    6  A    between atoms: C_15  and  C_21
REMARK                            x       y       z     vdW  Elec       q    Type
REMARK                         _______ _______ _______ _____ _____    ______ ____
ROOT
ATOM      1  C   UNL     1       8.595  -0.385  22.938  0.00  0.00    +0.059 C 
ATOM      2  C   UNL     1       9.171  -0.075  21.609  0.00  0.00    +0.252 C 
ATOM      3  O   UNL     1       9.472  -0.869  20.739  0.00  0.00    -0.270 OA
ATOM      4  N   UNL     1       9.266   1.258  21.520  0.00  0.00    -0.248 N 
ATOM      5  H   UNL     1       9.542   1.741  20.678  0.00  0.00    +0.158 HD
ATOM      6  C   UNL     1       8.622   1.841  22.546  0.00  0.00    +0.252 C 
ATOM      7  O   UNL     1       8.327   3.024  22.593  0.00  0.00    -0.270 OA
ATOM      8  C   UNL     1       8.274   0.781  23.528  0.00  0.00    +0.059 C 
ENDROOT
BRANCH   8   9
ATOM      9  C   UNL     1       7.700   1.013  24.821  0.00  0.00    +0.013 A 
ATOM     10  C   UNL     1       6.591   0.364  25.464  0.00  0.00    +0.008 A 
ATOM     11  C   UNL     1       5.732  -0.720  25.163  0.00  0.00    +0.010 A 
ATOM     12  C   UNL     1       4.698  -1.069  26.041  0.00  0.00    +0.001 A 
ATOM     13  C   UNL     1       4.472  -0.333  27.199  0.00  0.00    +0.002 A 
ATOM     14  C   UNL     1       5.291   0.748  27.526  0.00  0.00    +0.026 A 
ATOM     15  C   UNL     1       6.350   1.054  26.658  0.00  0.00    +0.047 A 
ATOM     16  N   UNL     1       7.316   2.022  26.775  0.00  0.00    -0.360 N 
ATOM     17  H   UNL     1       7.398   2.662  27.550  0.00  0.00    +0.165 HD
ATOM     18  C   UNL     1       8.152   1.985  25.696  0.00  0.00    +0.092 A 
ENDBRANCH   8   9
BRANCH   1  26
ATOM     19  N   UNL     1       9.026  -3.664  24.326  0.00  0.00    -0.346 N 
ATOM     20  C   UNL     1       8.020  -3.949  23.423  0.00  0.00    +0.050 A 
ATOM     21  C   UNL     1       7.451  -5.170  23.027  0.00  0.00    +0.026 A 
ATOM     22  C   UNL     1       6.408  -5.138  22.098  0.00  0.00    +0.002 A 
ATOM     23  C   UNL     1       5.921  -3.931  21.607  0.00  0.00    +0.001 A 
ATOM     24  C   UNL     1       6.512  -2.722  21.987  0.00  0.00    +0.010 A 
ATOM     25  C   UNL     1       7.603  -2.728  22.881  0.00  0.00    +0.008 A 
ATOM     26  C   UNL     1       8.492  -1.731  23.379  0.00  0.00    +0.013 A 
ATOM     27  C   UNL     1       9.330  -2.327  24.293  0.00  0.00    +0.095 A 
BRANCH  19  28
ATOM     28  C   UNL     1       9.672  -4.634  25.201  0.00  0.00    +0.123 C 
BRANCH  28  29
ATOM     29  C   UNL     1       9.093  -4.612  26.615  0.00  0.00    +0.036 C 
BRANCH  29  30
ATOM     30  C   UNL     1       7.687  -5.201  26.673  0.00  0.00    +0.079 C 
BRANCH  30  31
ATOM     31  N   UNL     1       7.509  -6.050  27.845  0.00  0.00    -0.330 NA
ATOM     32  H   UNL     1       7.958  -5.619  28.653  0.00  0.00    +0.118 HD
ATOM     33  H   UNL     1       6.516  -6.105  28.076  0.00  0.00    +0.118 HD
ENDBRANCH  30  31
ENDBRANCH  29  30
ENDBRANCH  28  29
ENDBRANCH  19  28
ENDBRANCH   1  26
TORSDOF 6
ENDMDL
MODEL 7
REMARK VINA RESULT:      -7.1      2.527      4.555
REMARK  Name = 
REMARK  6 active torsions:
REMARK  status: ('A' for Active; 'I' for Inactive)
REMARK    1  A    between atoms: N_1  and  C_2
REMARK    2  A    between atoms: C_2  and  C_3
REMARK    3  A    between atoms: C_3  and  C_4
REMARK    4  A    between atoms: C_4  and  N_5
REMARK    5  A    between atoms: C_7  and  C_14
REMARK    6  A    between atoms: C_15  and  C_21
REMARK                            x       y       z     vdW  Elec       q    Type
REMARK                         _______ _______ _______ _____ _____    ______ ____
ROOT
ATOM      1  C   UNL     1       6.499  -5.231  26.091  0.00  0.00    +0.059 C 
ATOM      2  C   UNL     1       7.571  -5.383  27.102  0.00  0.00    +0.252 C 
ATOM      3  O   UNL     1       8.634  -4.793  27.135  0.00  0.00    -0.270 OA
ATOM      4  N   UNL     1       7.139  -6.270  28.007  0.00  0.00    -0.248 N 
ATOM      5  H   UNL     1       7.639  -6.488  28.855  0.00  0.00    +0.158 HD
ATOM      6  C   UNL     1       5.836  -6.540  27.811  0.00  0.00    +0.252 C 
ATOM      7  O   UNL     1       5.120  -7.106  28.619  0.00  0.00    -0.270 OA
ATOM      8  C   UNL     1       5.440  -5.950  26.505  0.00  0.00    +0.059 C 
ENDROOT
BRANCH   8   9
ATOM      9  C   UNL     1       4.167  -6.133  25.872  0.00  0.00    +0.013 A 
ATOM     10  C   UNL     1       3.108  -5.188  25.650  0.00  0.00    +0.008 A 
ATOM     11  C   UNL     1       2.918  -3.802  25.864  0.00  0.00    +0.010 A 
ATOM     12  C   UNL     1       1.696  -3.196  25.543  0.00  0.00    +0.001 A 
ATOM     13  C   UNL     1       0.639  -3.952  25.049  0.00  0.00    +0.002 A 
ATOM     14  C   UNL     1       0.783  -5.322  24.832  0.00  0.00    +0.026 A 
ATOM     15  C   UNL     1       2.028  -5.903  25.115  0.00  0.00    +0.047 A 
ATOM     16  N   UNL     1       2.440  -7.202  24.946  0.00  0.00    -0.360 N 
ATOM     17  H   UNL     1       1.871  -7.939  24.561  0.00  0.00    +0.165 HD
ATOM     18  C   UNL     1       3.732  -7.344  25.364  0.00  0.00    +0.092 A 
ENDBRANCH   8   9
BRANCH   1  26
ATOM     19  N   UNL     1       6.969  -2.670  23.624  0.00  0.00    -0.346 N 
ATOM     20  C   UNL     1       6.639  -3.714  22.782  0.00  0.00    +0.050 A 
ATOM     21  C   UNL     1       6.385  -3.744  21.402  0.00  0.00    +0.026 A 
ATOM     22  C   UNL     1       6.100  -4.979  20.813  0.00  0.00    +0.002 A 
ATOM     23  C   UNL     1       6.104  -6.150  21.564  0.00  0.00    +0.001 A 
ATOM     24  C   UNL     1       6.332  -6.106  22.943  0.00  0.00    +0.010 A 
ATOM     25  C   UNL     1       6.567  -4.866  23.573  0.00  0.00    +0.008 A 
ATOM     26  C   UNL     1       6.717  -4.447  24.927  0.00  0.00    +0.013 A 
ATOM     27  C   UNL     1       7.002  -3.100  24.927  0.00  0.00    +0.095 A 
BRANCH  19  28
ATOM     28  C   UNL     1       7.254  -1.304  23.201  0.00  0.00    +0.123 C 
BRANCH  28  29
ATOM     29  C   UNL     1       8.659  -0.857  23.601  0.00  0.00    +0.036 C 
BRANCH  29  30
ATOM     30  C   UNL     1       9.745  -1.702  22.940  0.00  0.00    +0.079 C 
BRANCH  30  31
ATOM     31  N   UNL     1       9.752  -1.528  21.493  0.00  0.00    -0.330 NA
ATOM     32  H   UNL     1      10.061  -0.583  21.261  0.00  0.00    +0.118 HD
ATOM     33  H   UNL     1      10.444  -2.154  21.079  0.00  0.00    +0.118 HD
ENDBRANCH  30  31
ENDBRANCH  29  30
ENDBRANCH  28  29
ENDBRANCH  19  28
ENDBRANCH   1  26
TORSDOF 6
ENDMDL
MODEL 8
REMARK VINA RESULT:      -7.1      3.168      6.986
REMARK  Name = 
REMARK  6 active torsions:
REMARK  status: ('A' for Active; 'I' for Inactive)
REMARK    1  A    between atoms: N_1  and  C_2
REMARK    2  A    between atoms: C_2  and  C_3
REMARK    3  A    between atoms: C_3  and  C_4
REMARK    4  A    between atoms: C_4  and  N_5
REMARK    5  A    between atoms: C_7  and  C_14
REMARK    6  A    between atoms: C_15  and  C_21
REMARK                            x       y       z     vdW  Elec       q    Type
REMARK                         _______ _______ _______ _____ _____    ______ ____
ROOT
ATOM      1  C   UNL     1       5.684  -1.332  25.353  0.00  0.00    +0.059 C 
ATOM      2  C   UNL     1       4.639  -1.671  26.346  0.00  0.00    +0.252 C 
ATOM      3  O   UNL     1       4.324  -2.782  26.726  0.00  0.00    -0.270 OA
ATOM      4  N   UNL     1       4.122  -0.517  26.787  0.00  0.00    -0.248 N 
ATOM      5  H   UNL     1       3.453  -0.459  27.540  0.00  0.00    +0.158 HD
ATOM      6  C   UNL     1       4.859   0.520  26.353  0.00  0.00    +0.252 C 
ATOM      7  O   UNL     1       4.782   1.655  26.794  0.00  0.00    -0.270 OA
ATOM      8  C   UNL     1       5.814   0.007  25.335  0.00  0.00    +0.059 C 
ENDROOT
BRANCH   8   9
ATOM      9  C   UNL     1       6.681   0.822  24.536  0.00  0.00    +0.013 A 
ATOM     10  C   UNL     1       8.117   0.868  24.495  0.00  0.00    +0.008 A 
ATOM     11  C   UNL     1       9.177   0.150  25.100  0.00  0.00    +0.010 A 
ATOM     12  C   UNL     1      10.508   0.503  24.843  0.00  0.00    +0.001 A 
ATOM     13  C   UNL     1      10.809   1.587  24.026  0.00  0.00    +0.002 A 
ATOM     14  C   UNL     1       9.793   2.324  23.418  0.00  0.00    +0.026 A 
ATOM     15  C   UNL     1       8.468   1.928  23.649  0.00  0.00    +0.047 A 
ATOM     16  N   UNL     1       7.304   2.448  23.139  0.00  0.00    -0.360 N 
ATOM     17  H   UNL     1       7.255   3.213  22.485  0.00  0.00    +0.165 HD
ATOM     18  C   UNL     1       6.228   1.770  23.636  0.00  0.00    +0.092 A 
ENDBRANCH   8   9
BRANCH   1  26
ATOM     19  N   UNL     1       6.690  -3.892  23.050  0.00  0.00    -0.346 N 
ATOM     20  C   UNL     1       7.528  -4.213  24.100  0.00  0.00    +0.050 A 
ATOM     21  C   UNL     1       8.387  -5.305  24.296  0.00  0.00    +0.026 A 
ATOM     22  C   UNL     1       9.147  -5.342  25.468  0.00  0.00    +0.002 A 
ATOM     23  C   UNL     1       9.082  -4.308  26.397  0.00  0.00    +0.001 A 
ATOM     24  C   UNL     1       8.203  -3.238  26.206  0.00  0.00    +0.010 A 
ATOM     25  C   UNL     1       7.384  -3.203  25.058  0.00  0.00    +0.008 A 
ATOM     26  C   UNL     1       6.328  -2.358  24.610  0.00  0.00    +0.013 A 
ATOM     27  C   UNL     1       5.946  -2.780  23.357  0.00  0.00    +0.095 A 
BRANCH  19  28
ATOM     28  C   UNL     1       6.604  -4.616  21.787  0.00  0.00    +0.123 C 
BRANCH  28  29
ATOM     29  C   UNL     1       5.974  -5.997  21.957  0.00  0.00    +0.036 C 
BRANCH  29  30
ATOM     30  C   UNL     1       4.700  -5.953  22.795  0.00  0.00    +0.079 C 
BRANCH  30  31
ATOM     31  N   UNL     1       4.623  -7.083  23.713  0.00  0.00    -0.330 NA
ATOM     32  H   UNL     1       3.651  -7.246  23.978  0.00  0.00    +0.118 HD
ATOM     33  H   UNL     1       4.926  -7.932  23.233  0.00  0.00    +0.118 HD
ENDBRANCH  30  31
ENDBRANCH  29  30
ENDBRANCH  28  29
ENDBRANCH  19  28
ENDBRANCH   1  26
TORSDOF 6
ENDMDL
MODEL 9
REMARK VINA RESULT:      -7.0      2.713      7.071
REMARK  Name = 
REMARK  6 active torsions:
REMARK  status: ('A' for Active; 'I' for Inactive)
REMARK    1  A    between atoms: N_1  and  C_2
REMARK    2  A    between atoms: C_2  and  C_3
REMARK    3  A    between atoms: C_3  and  C_4
REMARK    4  A    between atoms: C_4  and  N_5
REMARK    5  A    between atoms: C_7  and  C_14
REMARK    6  A    between atoms: C_15  and  C_21
REMARK                            x       y       z     vdW  Elec       q    Type
REMARK                         _______ _______ _______ _____ _____    ______ ____
ROOT
ATOM      1  C   UNL     1       8.360  -1.667  24.001  0.00  0.00    +0.059 C 
ATOM      2  C   UNL     1       9.755  -2.161  23.946  0.00  0.00    +0.252 C 
ATOM      3  O   UNL     1      10.123  -3.319  23.988  0.00  0.00    -0.270 OA
ATOM      4  N   UNL     1      10.548  -1.092  23.800  0.00  0.00    -0.248 N 
ATOM      5  H   UNL     1      11.543  -1.154  23.642  0.00  0.00    +0.158 HD
ATOM      6  C   UNL     1       9.812   0.003  23.541  0.00  0.00    +0.252 C 
ATOM      7  O   UNL     1      10.264   1.054  23.118  0.00  0.00    -0.270 OA
ATOM      8  C   UNL     1       8.385  -0.341  23.774  0.00  0.00    +0.059 C 
ENDROOT
BRANCH   8   9
ATOM      9  C   UNL     1       7.297   0.592  23.737  0.00  0.00    +0.013 A 
ATOM     10  C   UNL     1       6.483   1.096  24.810  0.00  0.00    +0.008 A 
ATOM     11  C   UNL     1       6.460   0.965  26.218  0.00  0.00    +0.010 A 
ATOM     12  C   UNL     1       5.463   1.599  26.972  0.00  0.00    +0.001 A 
ATOM     13  C   UNL     1       4.460   2.331  26.347  0.00  0.00    +0.002 A 
ATOM     14  C   UNL     1       4.444   2.477  24.960  0.00  0.00    +0.026 A 
ATOM     15  C   UNL     1       5.475   1.874  24.225  0.00  0.00    +0.047 A 
ATOM     16  N   UNL     1       5.713   1.907  22.874  0.00  0.00    -0.360 N 
ATOM     17  H   UNL     1       5.153   2.410  22.204  0.00  0.00    +0.165 HD
ATOM     18  C   UNL     1       6.823   1.170  22.574  0.00  0.00    +0.092 A 
ENDBRANCH   8   9
BRANCH   1  26
ATOM     19  N   UNL     1       5.846  -3.791  25.429  0.00  0.00    -0.346 N 
ATOM     20  C   UNL     1       5.887  -4.337  24.162  0.00  0.00    +0.050 A 
ATOM     21  C   UNL     1       5.275  -5.482  23.628  0.00  0.00    +0.026 A 
ATOM     22  C   UNL     1       5.483  -5.770  22.277  0.00  0.00    +0.002 A 
ATOM     23  C   UNL     1       6.244  -4.927  21.473  0.00  0.00    +0.001 A 
ATOM     24  C   UNL     1       6.872  -3.803  22.020  0.00  0.00    +0.010 A 
ATOM     25  C   UNL     1       6.724  -3.520  23.393  0.00  0.00    +0.008 A 
ATOM     26  C   UNL     1       7.293  -2.562  24.282  0.00  0.00    +0.013 A 
ATOM     27  C   UNL     1       6.707  -2.726  25.517  0.00  0.00    +0.095 A 
BRANCH  19  28
ATOM     28  C   UNL     1       5.006  -4.261  26.524  0.00  0.00    +0.123 C 
BRANCH  28  29
ATOM     29  C   UNL     1       5.389  -5.667  26.981  0.00  0.00    +0.036 C 
BRANCH  29  30
ATOM     30  C   UNL     1       6.495  -5.653  28.032  0.00  0.00    +0.079 C 
BRANCH  30  31
ATOM     31  N   UNL     1       7.810  -5.832  27.429  0.00  0.00    -0.330 NA
ATOM     32  H   UNL     1       7.723  -6.372  26.567  0.00  0.00    +0.118 HD
ATOM     33  H   UNL     1       8.182  -4.923  27.149  0.00  0.00    +0.118 HD
ENDBRANCH  30  31
ENDBRANCH  29  30
ENDBRANCH  28  29
ENDBRANCH  19  28
ENDBRANCH   1  26
TORSDOF 6
ENDMDL
