MODEL 1
REMARK VINA RESULT:      -6.9      0.000      0.000
REMARK  Name = 
REMARK  23 active torsions:
REMARK  status: ('A' for Active; 'I' for Inactive)
REMARK    1  A    between atoms: C_1  and  C_2
REMARK    2  A    between atoms: N_15  and  C_16
REMARK    3  A    between atoms: C_16  and  C_17
REMARK    4  A    between atoms: C_17  and  O_19
REMARK    5  A    between atoms: C_17  and  C_20
REMARK    6  A    between atoms: C_20  and  O_22
REMARK    7  A    between atoms: C_20  and  C_23
REMARK    8  A    between atoms: C_23  and  O_25
REMARK    9  A    between atoms: C_23  and  C_26
REMARK   10  A    between atoms: C_26  and  O_27
REMARK   11  A    between atoms: O_27  and  P_28
REMARK   12  A    between atoms: P_28  and  O_29
REMARK   13  A    between atoms: P_28  and  O_31
REMARK   14  A    between atoms: O_31  and  P_32
REMARK   15  A    between atoms: P_32  and  O_33
REMARK   16  A    between atoms: P_32  and  O_35
REMARK   17  A    between atoms: O_35  and  C_36
REMARK   18  A    between atoms: C_36  and  C_37
REMARK   19  A    between atoms: C_40  and  N_48
REMARK   20  A    between atoms: C_42  and  O_44
REMARK   21  A    between atoms: C_45  and  O_47
REMARK   22  A    between atoms: C_58  and  O_59
REMARK   23  A    between atoms: C_60  and  C_61
REMARK                            x       y       z     vdW  Elec       q    Type
REMARK                         _______ _______ _______ _____ _____    ______ ____
ROOT
ATOM      1  O   UNL     1       4.867   3.795  26.111  0.00  0.00    -0.284 OA
ENDROOT
BRANCH   1   2
ATOM      2  P   UNL     1       3.570   3.658  25.119  0.00  0.00    +0.483 P 
ATOM      3  O   UNL     1       3.849   2.605  24.048  0.00  0.00    -0.227 OA
BRANCH   2   4
ATOM      4  O   UNL     1       2.912   2.408  26.116  0.00  0.00    -0.302 OA
ATOM      5  H   UNL     1       3.588   2.119  26.755  0.00  0.00    +0.222 HD
ENDBRANCH   2   4
BRANCH   2   6
ATOM      6  O   UNL     1       4.228   4.909  24.121  0.00  0.00    -0.186 OA
BRANCH   6   7
ATOM      7  P   UNL     1       4.373   6.494  24.221  0.00  0.00    +0.483 P 
ATOM      8  O   UNL     1       3.816   7.037  22.947  0.00  0.00    -0.227 OA
BRANCH   7   9
ATOM      9  O   UNL     1       5.221   6.539  25.567  0.00  0.00    -0.302 OA
ATOM     10  H   UNL     1       5.916   5.851  25.421  0.00  0.00    +0.222 HD
ENDBRANCH   7   9
BRANCH   7  11
ATOM     11  O   UNL     1       5.869   7.106  23.770  0.00  0.00    -0.284 OA
BRANCH  11  12
ATOM     12  C   UNL     1       6.488   6.757  22.445  0.00  0.00    +0.206 C 
BRANCH  12  13
ATOM     13  C   UNL     1       7.748   5.815  22.286  0.00  0.00    +0.178 C 
ATOM     14  C   UNL     1       8.736   5.735  23.515  0.00  0.00    +0.178 C 
ATOM     15  C   UNL     1       8.299   4.586  24.401  0.00  0.00    +0.195 C 
ATOM     16  C   UNL     1       7.386   3.875  23.442  0.00  0.00    +0.253 C 
ATOM     17  O   UNL     1       7.372   4.442  22.123  0.00  0.00    -0.346 OA
BRANCH  16  18
ATOM     18  N   UNL     1       7.645   2.473  23.345  0.00  0.00    -0.286 N 
ATOM     19  C   UNL     1       8.484   1.512  23.857  0.00  0.00    +0.167 A 
ATOM     20  N   UNL     1       9.475   1.558  24.766  0.00  0.00    -0.216 NA
ATOM     21  C   UNL     1      10.019   0.307  24.893  0.00  0.00    +0.225 A 
ATOM     22  N   UNL     1       9.858  -0.837  24.159  0.00  0.00    -0.219 NA
ATOM     23  C   UNL     1       8.900  -0.799  23.266  0.00  0.00    +0.147 A 
ATOM     24  N   UNL     1       8.723  -1.879  22.348  0.00  0.00    -0.341 N 
ATOM     25  H   UNL     1       7.813  -2.042  21.928  0.00  0.00    +0.144 HD
ATOM     26  H   UNL     1       9.185  -2.729  22.632  0.00  0.00    +0.144 HD
ATOM     27  C   UNL     1       8.103   0.341  23.216  0.00  0.00    +0.147 A 
ATOM     28  N   UNL     1       6.945   0.556  22.592  0.00  0.00    -0.231 NA
ATOM     29  C   UNL     1       6.742   1.840  22.588  0.00  0.00    +0.203 A 
ENDBRANCH  16  18
BRANCH  15  30
ATOM     30  O   UNL     1       7.582   4.958  25.592  0.00  0.00    -0.385 OA
ATOM     31  H   UNL     1       8.127   5.665  26.079  0.00  0.00    +0.210 HD
ENDBRANCH  15  30
BRANCH  14  32
ATOM     32  O   UNL     1      10.039   5.357  23.015  0.00  0.00    -0.386 OA
ATOM     33  H   UNL     1       9.990   4.443  22.661  0.00  0.00    +0.210 HD
ENDBRANCH  14  32
ENDBRANCH  12  13
ENDBRANCH  11  12
ENDBRANCH   7  11
ENDBRANCH   6   7
ENDBRANCH   2   6
ENDBRANCH   1   2
BRANCH   1  34
ATOM     34  C   UNL     1       5.154   2.750  27.040  0.00  0.00    +0.206 C 
BRANCH  34  35
ATOM     35  C   UNL     1       6.362   1.899  26.612  0.00  0.00    +0.172 C 
BRANCH  35  36
ATOM     36  O   UNL     1       7.576   2.490  27.088  0.00  0.00    -0.387 OA
ATOM     37  H   UNL     1       7.630   2.293  28.042  0.00  0.00    +0.210 HD
ENDBRANCH  35  36
BRANCH  35  38
ATOM     38  C   UNL     1       6.199   0.458  27.118  0.00  0.00    +0.175 C 
BRANCH  38  39
ATOM     39  O   UNL     1       7.370  -0.000  27.806  0.00  0.00    -0.387 OA
ATOM     40  H   UNL     1       7.535   0.663  28.505  0.00  0.00    +0.210 HD
ENDBRANCH  38  39
BRANCH  38  41
ATOM     41  C   UNL     1       5.812  -0.534  26.024  0.00  0.00    +0.165 C 
BRANCH  41  42
ATOM     42  O   UNL     1       4.950   0.177  25.107  0.00  0.00    -0.387 OA
ATOM     43  H   UNL     1       4.489   0.847  25.648  0.00  0.00    +0.210 HD
ENDBRANCH  41  42
BRANCH  41  44
ATOM     44  C   UNL     1       5.097  -1.803  26.519  0.00  0.00    +0.158 C 
BRANCH  44  54
ATOM     45  C   UNL     1       0.925  -4.176  24.455  0.00  0.00    +0.044 C 
ATOM     46  C   UNL     1       2.344  -4.605  24.604  0.00  0.00    -0.042 A 
ATOM     47  C   UNL     1       2.816  -5.822  24.059  0.00  0.00    -0.004 A 
ATOM     48  C   UNL     1       1.998  -6.759  23.262  0.00  0.00    +0.048 C 
ATOM     49  C   UNL     1       4.166  -6.077  24.112  0.00  0.00    +0.147 A 
ATOM     50  C   UNL     1       4.991  -5.092  24.539  0.00  0.00    +0.130 A 
ATOM     51  N   UNL     1       6.300  -5.373  24.223  0.00  0.00    -0.233 NA
ATOM     52  C   UNL     1       7.126  -4.508  24.636  0.00  0.00    +0.171 A 
ATOM     53  C   UNL     1       6.712  -3.327  25.565  0.00  0.00    +0.170 A 
ATOM     54  N   UNL     1       5.435  -2.891  25.573  0.00  0.00    -0.319 N 
ATOM     55  N   UNL     1       7.586  -2.904  26.419  0.00  0.00    -0.173 NA
ATOM     56  C   UNL     1       8.450  -3.915  26.419  0.00  0.00    +0.351 A 
ATOM     57  O   UNL     1       8.310  -4.866  27.185  0.00  0.00    -0.245 OA
ATOM     58  N   UNL     1       9.189  -3.867  25.264  0.00  0.00    -0.272 N 
ATOM     59  H   UNL     1      10.115  -4.203  25.427  0.00  0.00    +0.174 HD
ATOM     60  C   UNL     1       8.574  -4.773  24.476  0.00  0.00    +0.282 A 
ATOM     61  O   UNL     1       9.085  -5.756  23.981  0.00  0.00    -0.265 OA
ATOM     62  C   UNL     1       4.523  -3.866  25.137  0.00  0.00    +0.073 A 
ATOM     63  C   UNL     1       3.191  -3.673  25.193  0.00  0.00    +0.032 A 
BRANCH  49  64
ATOM     64  O   UNL     1       4.740  -7.243  23.669  0.00  0.00    -0.504 OA
ATOM     65  H   UNL     1       4.071  -7.926  23.890  0.00  0.00    +0.292 HD
ENDBRANCH  49  64
ENDBRANCH  44  54
ENDBRANCH  41  44
ENDBRANCH  38  41
ENDBRANCH  35  38
ENDBRANCH  34  35
ENDBRANCH   1  34
TORSDOF 21
ENDMDL
MODEL 2
REMARK VINA RESULT:      -6.8      2.544      4.467
REMARK  Name = 
REMARK  23 active torsions:
REMARK  status: ('A' for Active; 'I' for Inactive)
REMARK    1  A    between atoms: C_1  and  C_2
REMARK    2  A    between atoms: N_15  and  C_16
REMARK    3  A    between atoms: C_16  and  C_17
REMARK    4  A    between atoms: C_17  and  O_19
REMARK    5  A    between atoms: C_17  and  C_20
REMARK    6  A    between atoms: C_20  and  O_22
REMARK    7  A    between atoms: C_20  and  C_23
REMARK    8  A    between atoms: C_23  and  O_25
REMARK    9  A    between atoms: C_23  and  C_26
REMARK   10  A    between atoms: C_26  and  O_27
REMARK   11  A    between atoms: O_27  and  P_28
REMARK   12  A    between atoms: P_28  and  O_29
REMARK   13  A    between atoms: P_28  and  O_31
REMARK   14  A    between atoms: O_31  and  P_32
REMARK   15  A    between atoms: P_32  and  O_33
REMARK   16  A    between atoms: P_32  and  O_35
REMARK   17  A    between atoms: O_35  and  C_36
REMARK   18  A    between atoms: C_36  and  C_37
REMARK   19  A    between atoms: C_40  and  N_48
REMARK   20  A    between atoms: C_42  and  O_44
REMARK   21  A    between atoms: C_45  and  O_47
REMARK   22  A    between atoms: C_58  and  O_59
REMARK   23  A    between atoms: C_60  and  C_61
REMARK                            x       y       z     vdW  Elec       q    Type
REMARK                         _______ _______ _______ _____ _____    ______ ____
ROOT
ATOM      1  O   UNL     1       4.834   2.480  26.670  0.00  0.00    -0.284 OA
ENDROOT
BRANCH   1   2
ATOM      2  P   UNL     1       4.923   3.218  25.210  0.00  0.00    +0.483 P 
ATOM      3  O   UNL     1       4.531   2.233  24.110  0.00  0.00    -0.227 OA
BRANCH   2   4
ATOM      4  O   UNL     1       3.262   3.686  25.322  0.00  0.00    -0.302 OA
ATOM      5  H   UNL     1       3.084   4.394  24.678  0.00  0.00    +0.222 HD
ENDBRANCH   2   4
BRANCH   2   6
ATOM      6  O   UNL     1       6.585   2.750  25.098  0.00  0.00    -0.186 OA
BRANCH   6   7
ATOM      7  P   UNL     1       7.923   3.411  24.537  0.00  0.00    +0.483 P 
ATOM      8  O   UNL     1       7.487   4.446  23.554  0.00  0.00    -0.227 OA
BRANCH   7   9
ATOM      9  O   UNL     1       8.952   2.417  25.235  0.00  0.00    -0.302 OA
ATOM     10  H   UNL     1       8.875   1.593  24.693  0.00  0.00    +0.222 HD
ENDBRANCH   7   9
BRANCH   7  11
ATOM     11  O   UNL     1       8.653   2.586  23.271  0.00  0.00    -0.284 OA
BRANCH  11  12
ATOM     12  C   UNL     1       7.875   1.628  22.412  0.00  0.00    +0.206 C 
BRANCH  12  13
ATOM     13  C   UNL     1       8.257   0.104  22.232  0.00  0.00    +0.178 C 
ATOM     14  C   UNL     1       9.795  -0.251  22.242  0.00  0.00    +0.178 C 
ATOM     15  C   UNL     1      10.197  -0.577  23.667  0.00  0.00    +0.195 C 
ATOM     16  C   UNL     1       8.831  -0.772  24.264  0.00  0.00    +0.253 C 
ATOM     17  O   UNL     1       7.762  -0.703  23.308  0.00  0.00    -0.346 OA
BRANCH  16  18
ATOM     18  N   UNL     1       8.708  -1.983  25.014  0.00  0.00    -0.286 N 
ATOM     19  C   UNL     1       8.689  -3.346  24.831  0.00  0.00    +0.167 A 
ATOM     20  N   UNL     1       8.819  -4.121  23.739  0.00  0.00    -0.216 NA
ATOM     21  C   UNL     1       8.693  -5.434  24.110  0.00  0.00    +0.225 A 
ATOM     22  N   UNL     1       8.293  -6.017  25.281  0.00  0.00    -0.219 NA
ATOM     23  C   UNL     1       8.149  -5.199  26.293  0.00  0.00    +0.147 A 
ATOM     24  N   UNL     1       7.607  -5.665  27.530  0.00  0.00    -0.341 N 
ATOM     25  H   UNL     1       7.828  -5.180  28.394  0.00  0.00    +0.144 HD
ATOM     26  H   UNL     1       7.623  -6.668  27.624  0.00  0.00    +0.144 HD
ATOM     27  C   UNL     1       8.497  -3.864  26.104  0.00  0.00    +0.147 A 
ATOM     28  N   UNL     1       8.674  -2.886  26.992  0.00  0.00    -0.231 NA
ATOM     29  C   UNL     1       8.693  -1.765  26.333  0.00  0.00    +0.203 A 
ENDBRANCH  16  18
BRANCH  15  30
ATOM     30  O   UNL     1      10.903   0.464  24.366  0.00  0.00    -0.385 OA
ATOM     31  H   UNL     1      10.738   1.340  23.876  0.00  0.00    +0.210 HD
ENDBRANCH  15  30
BRANCH  14  32
ATOM     32  O   UNL     1       9.973  -1.482  21.505  0.00  0.00    -0.386 OA
ATOM     33  H   UNL     1      10.651  -1.341  20.810  0.00  0.00    +0.210 HD
ENDBRANCH  14  32
ENDBRANCH  12  13
ENDBRANCH  11  12
ENDBRANCH   7  11
ENDBRANCH   6   7
ENDBRANCH   2   6
ENDBRANCH   1   2
BRANCH   1  34
ATOM     34  C   UNL     1       6.008   2.371  27.474  0.00  0.00    +0.206 C 
BRANCH  34  35
ATOM     35  C   UNL     1       6.261   0.930  27.951  0.00  0.00    +0.172 C 
BRANCH  35  36
ATOM     36  O   UNL     1       6.624   0.924  29.335  0.00  0.00    -0.387 OA
ATOM     37  H   UNL     1       6.046   1.572  29.781  0.00  0.00    +0.210 HD
ENDBRANCH  35  36
BRANCH  35  38
ATOM     38  C   UNL     1       5.022   0.061  27.687  0.00  0.00    +0.175 C 
BRANCH  38  39
ATOM     39  O   UNL     1       4.572  -0.598  28.878  0.00  0.00    -0.387 OA
ATOM     40  H   UNL     1       4.905  -1.514  28.808  0.00  0.00    +0.210 HD
ENDBRANCH  38  39
BRANCH  38  41
ATOM     41  C   UNL     1       5.217  -0.957  26.566  0.00  0.00    +0.165 C 
BRANCH  41  42
ATOM     42  O   UNL     1       5.610  -0.211  25.393  0.00  0.00    -0.387 OA
ATOM     43  H   UNL     1       4.871  -0.307  24.761  0.00  0.00    +0.210 HD
ENDBRANCH  41  42
BRANCH  41  44
ATOM     44  C   UNL     1       3.979  -1.810  26.239  0.00  0.00    +0.158 C 
BRANCH  44  54
ATOM     45  C   UNL     1       5.910  -3.354  21.637  0.00  0.00    +0.044 C 
ATOM     46  C   UNL     1       5.347  -4.114  22.788  0.00  0.00    -0.042 A 
ATOM     47  C   UNL     1       5.346  -5.528  22.817  0.00  0.00    -0.004 A 
ATOM     48  C   UNL     1       5.927  -6.392  21.769  0.00  0.00    +0.048 C 
ATOM     49  C   UNL     1       4.943  -6.153  23.974  0.00  0.00    +0.147 A 
ATOM     50  C   UNL     1       4.717  -5.393  25.071  0.00  0.00    +0.130 A 
ATOM     51  N   UNL     1       4.653  -6.170  26.205  0.00  0.00    -0.233 NA
ATOM     52  C   UNL     1       4.399  -5.519  27.261  0.00  0.00    +0.171 A 
ATOM     53  C   UNL     1       4.023  -4.006  27.245  0.00  0.00    +0.170 A 
ATOM     54  N   UNL     1       4.416  -3.224  26.219  0.00  0.00    -0.319 N 
ATOM     55  N   UNL     1       3.205  -3.585  28.154  0.00  0.00    -0.173 NA
ATOM     56  C   UNL     1       2.694  -4.734  28.587  0.00  0.00    +0.351 A 
ATOM     57  O   UNL     1       1.697  -5.221  28.058  0.00  0.00    -0.245 OA
ATOM     58  N   UNL     1       3.626  -5.368  29.368  0.00  0.00    -0.272 N 
ATOM     59  H   UNL     1       3.179  -5.888  30.094  0.00  0.00    +0.174 HD
ATOM     60  C   UNL     1       4.170  -6.265  28.518  0.00  0.00    +0.282 A 
ATOM     61  O   UNL     1       4.193  -7.469  28.667  0.00  0.00    -0.265 OA
ATOM     62  C   UNL     1       4.672  -3.952  25.045  0.00  0.00    +0.073 A 
ATOM     63  C   UNL     1       4.950  -3.345  23.875  0.00  0.00    +0.032 A 
BRANCH  49  64
ATOM     64  O   UNL     1       4.844  -7.516  24.110  0.00  0.00    -0.504 OA
ATOM     65  H   UNL     1       4.130  -7.629  24.773  0.00  0.00    +0.292 HD
ENDBRANCH  49  64
ENDBRANCH  44  54
ENDBRANCH  41  44
ENDBRANCH  38  41
ENDBRANCH  35  38
ENDBRANCH  34  35
ENDBRANCH   1  34
TORSDOF 21
ENDMDL
MODEL 3
REMARK VINA RESULT:      -6.8      1.867      2.343
REMARK  Name = 
REMARK  23 active torsions:
REMARK  status: ('A' for Active; 'I' for Inactive)
REMARK    1  A    between atoms: C_1  and  C_2
REMARK    2  A    between atoms: N_15  and  C_16
REMARK    3  A    between atoms: C_16  and  C_17
REMARK    4  A    between atoms: C_17  and  O_19
REMARK    5  A    between atoms: C_17  and  C_20
REMARK    6  A    between atoms: C_20  and  O_22
REMARK    7  A    between atoms: C_20  and  C_23
REMARK    8  A    between atoms: C_23  and  O_25
REMARK    9  A    between atoms: C_23  and  C_26
REMARK   10  A    between atoms: C_26  and  O_27
REMARK   11  A    between atoms: O_27  and  P_28
REMARK   12  A    between atoms: P_28  and  O_29
REMARK   13  A    between atoms: P_28  and  O_31
REMARK   14  A    between atoms: O_31  and  P_32
REMARK   15  A    between atoms: P_32  and  O_33
REMARK   16  A    between atoms: P_32  and  O_35
REMARK   17  A    between atoms: O_35  and  C_36
REMARK   18  A    between atoms: C_36  and  C_37
REMARK   19  A    between atoms: C_40  and  N_48
REMARK   20  A    between atoms: C_42  and  O_44
REMARK   21  A    between atoms: C_45  and  O_47
REMARK   22  A    between atoms: C_58  and  O_59
REMARK   23  A    between atoms: C_60  and  C_61
REMARK                            x       y       z     vdW  Elec       q    Type
REMARK                         _______ _______ _______ _____ _____    ______ ____
ROOT
ATOM      1  O   UNL     1       5.138   3.375  26.241  0.00  0.00    -0.284 OA
ENDROOT
BRANCH   1   2
ATOM      2  P   UNL     1       3.944   3.162  25.140  0.00  0.00    +0.483 P 
ATOM      3  O   UNL     1       4.432   2.244  24.021  0.00  0.00    -0.227 OA
BRANCH   2   4
ATOM      4  O   UNL     1       3.385   1.761  25.987  0.00  0.00    -0.302 OA
ATOM      5  H   UNL     1       3.334   1.012  25.367  0.00  0.00    +0.222 HD
ENDBRANCH   2   4
BRANCH   2   6
ATOM      6  O   UNL     1       4.503   4.563  24.293  0.00  0.00    -0.186 OA
BRANCH   6   7
ATOM      7  P   UNL     1       4.227   6.131  24.371  0.00  0.00    +0.483 P 
ATOM      8  O   UNL     1       3.499   6.481  23.116  0.00  0.00    -0.227 OA
BRANCH   7   9
ATOM      9  O   UNL     1       5.081   6.427  25.681  0.00  0.00    -0.302 OA
ATOM     10  H   UNL     1       5.884   6.884  25.330  0.00  0.00    +0.222 HD
ENDBRANCH   7   9
BRANCH   7  11
ATOM     11  O   UNL     1       5.490   7.108  23.853  0.00  0.00    -0.284 OA
BRANCH  11  12
ATOM     12  C   UNL     1       6.102   6.934  22.491  0.00  0.00    +0.206 C 
BRANCH  12  13
ATOM     13  C   UNL     1       7.511   6.258  22.244  0.00  0.00    +0.178 C 
ATOM     14  C   UNL     1       8.500   6.205  23.472  0.00  0.00    +0.178 C 
ATOM     15  C   UNL     1       8.279   4.895  24.203  0.00  0.00    +0.195 C 
ATOM     16  C   UNL     1       7.505   4.157  23.146  0.00  0.00    +0.253 C 
ATOM     17  O   UNL     1       7.387   4.871  21.906  0.00  0.00    -0.346 OA
BRANCH  16  18
ATOM     18  N   UNL     1       8.011   2.847  22.884  0.00  0.00    -0.286 N 
ATOM     19  C   UNL     1       8.945   1.955  23.358  0.00  0.00    +0.167 A 
ATOM     20  N   UNL     1       9.810   2.005  24.387  0.00  0.00    -0.216 NA
ATOM     21  C   UNL     1      10.545   0.848  24.403  0.00  0.00    +0.225 A 
ATOM     22  N   UNL     1      10.663  -0.171  23.498  0.00  0.00    -0.219 NA
ATOM     23  C   UNL     1       9.814  -0.136  22.501  0.00  0.00    +0.147 A 
ATOM     24  N   UNL     1       9.924  -1.065  21.423  0.00  0.00    -0.341 N 
ATOM     25  H   UNL     1       9.106  -1.296  20.867  0.00  0.00    +0.144 HD
ATOM     26  H   UNL     1      10.493  -1.868  21.640  0.00  0.00    +0.144 HD
ATOM     27  C   UNL     1       8.842   0.861  22.512  0.00  0.00    +0.147 A 
ATOM     28  N   UNL     1       7.737   0.994  21.778  0.00  0.00    -0.231 NA
ATOM     29  C   UNL     1       7.317   2.215  21.932  0.00  0.00    +0.203 A 
ENDBRANCH  16  18
BRANCH  15  30
ATOM     30  O   UNL     1       7.510   4.983  25.416  0.00  0.00    -0.385 OA
ATOM     31  H   UNL     1       7.302   5.964  25.586  0.00  0.00    +0.210 HD
ENDBRANCH  15  30
BRANCH  14  32
ATOM     32  O   UNL     1       9.848   6.130  22.955  0.00  0.00    -0.386 OA
ATOM     33  H   UNL     1      10.089   6.999  22.569  0.00  0.00    +0.210 HD
ENDBRANCH  14  32
ENDBRANCH  12  13
ENDBRANCH  11  12
ENDBRANCH   7  11
ENDBRANCH   6   7
ENDBRANCH   2   6
ENDBRANCH   1   2
BRANCH   1  34
ATOM     34  C   UNL     1       5.479   2.307  27.124  0.00  0.00    +0.206 C 
BRANCH  34  35
ATOM     35  C   UNL     1       6.680   1.488  26.620  0.00  0.00    +0.172 C 
BRANCH  35  36
ATOM     36  O   UNL     1       7.851   2.309  26.567  0.00  0.00    -0.387 OA
ATOM     37  H   UNL     1       8.161   2.417  27.485  0.00  0.00    +0.210 HD
ENDBRANCH  35  36
BRANCH  35  38
ATOM     38  C   UNL     1       6.893   0.258  27.514  0.00  0.00    +0.175 C 
BRANCH  38  39
ATOM     39  O   UNL     1       8.077   0.379  28.313  0.00  0.00    -0.387 OA
ATOM     40  H   UNL     1       8.120  -0.444  28.838  0.00  0.00    +0.210 HD
ENDBRANCH  38  39
BRANCH  38  41
ATOM     41  C   UNL     1       6.914  -1.061  26.745  0.00  0.00    +0.165 C 
BRANCH  41  42
ATOM     42  O   UNL     1       7.532  -0.786  25.468  0.00  0.00    -0.387 OA
ATOM     43  H   UNL     1       7.052  -0.015  25.106  0.00  0.00    +0.210 HD
ENDBRANCH  41  42
BRANCH  41  44
ATOM     44  C   UNL     1       5.534  -1.704  26.518  0.00  0.00    +0.158 C 
BRANCH  44  54
ATOM     45  C   UNL     1       6.023  -3.124  21.514  0.00  0.00    +0.044 C 
ATOM     46  C   UNL     1       5.669  -3.894  22.739  0.00  0.00    -0.042 A 
ATOM     47  C   UNL     1       5.482  -5.295  22.710  0.00  0.00    -0.004 A 
ATOM     48  C   UNL     1       5.659  -6.142  21.512  0.00  0.00    +0.048 C 
ATOM     49  C   UNL     1       5.301  -5.951  23.904  0.00  0.00    +0.147 A 
ATOM     50  C   UNL     1       5.462  -5.253  25.053  0.00  0.00    +0.130 A 
ATOM     51  N   UNL     1       5.579  -6.099  26.132  0.00  0.00    -0.233 NA
ATOM     52  C   UNL     1       5.688  -5.503  27.243  0.00  0.00    +0.171 A 
ATOM     53  C   UNL     1       5.531  -3.959  27.388  0.00  0.00    +0.170 A 
ATOM     54  N   UNL     1       5.756  -3.156  26.327  0.00  0.00    -0.319 N 
ATOM     55  N   UNL     1       5.031  -3.511  28.493  0.00  0.00    -0.173 NA
ATOM     56  C   UNL     1       4.493  -4.618  28.996  0.00  0.00    +0.351 A 
ATOM     57  O   UNL     1       3.339  -4.941  28.722  0.00  0.00    -0.245 OA
ATOM     58  N   UNL     1       5.496  -5.417  29.483  0.00  0.00    -0.272 N 
ATOM     59  H   UNL     1       5.179  -5.932  30.277  0.00  0.00    +0.174 HD
ATOM     60  C   UNL     1       5.682  -6.308  28.485  0.00  0.00    +0.282 A 
ATOM     61  O   UNL     1       5.578  -7.513  28.573  0.00  0.00    -0.265 OA
ATOM     62  C   UNL     1       5.608  -3.819  25.098  0.00  0.00    +0.073 A 
ATOM     63  C   UNL     1       5.664  -3.165  23.922  0.00  0.00    +0.032 A 
BRANCH  49  64
ATOM     64  O   UNL     1       5.054  -7.298  24.005  0.00  0.00    -0.504 OA
ATOM     65  H   UNL     1       5.951  -7.696  23.999  0.00  0.00    +0.292 HD
ENDBRANCH  49  64
ENDBRANCH  44  54
ENDBRANCH  41  44
ENDBRANCH  38  41
ENDBRANCH  35  38
ENDBRANCH  34  35
ENDBRANCH   1  34
TORSDOF 21
ENDMDL
MODEL 4
REMARK VINA RESULT:      -6.8      2.764      4.379
REMARK  Name = 
REMARK  23 active torsions:
REMARK  status: ('A' for Active; 'I' for Inactive)
REMARK    1  A    between atoms: C_1  and  C_2
REMARK    2  A    between atoms: N_15  and  C_16
REMARK    3  A    between atoms: C_16  and  C_17
REMARK    4  A    between atoms: C_17  and  O_19
REMARK    5  A    between atoms: C_17  and  C_20
REMARK    6  A    between atoms: C_20  and  O_22
REMARK    7  A    between atoms: C_20  and  C_23
REMARK    8  A    between atoms: C_23  and  O_25
REMARK    9  A    between atoms: C_23  and  C_26
REMARK   10  A    between atoms: C_26  and  O_27
REMARK   11  A    between atoms: O_27  and  P_28
REMARK   12  A    between atoms: P_28  and  O_29
REMARK   13  A    between atoms: P_28  and  O_31
REMARK   14  A    between atoms: O_31  and  P_32
REMARK   15  A    between atoms: P_32  and  O_33
REMARK   16  A    between atoms: P_32  and  O_35
REMARK   17  A    between atoms: O_35  and  C_36
REMARK   18  A    between atoms: C_36  and  C_37
REMARK   19  A    between atoms: C_40  and  N_48
REMARK   20  A    between atoms: C_42  and  O_44
REMARK   21  A    between atoms: C_45  and  O_47
REMARK   22  A    between atoms: C_58  and  O_59
REMARK   23  A    between atoms: C_60  and  C_61
REMARK                            x       y       z     vdW  Elec       q    Type
REMARK                         _______ _______ _______ _____ _____    ______ ____
ROOT
ATOM      1  O   UNL     1       7.148  -0.886  23.517  0.00  0.00    -0.284 OA
ENDROOT
BRANCH   1   2
ATOM      2  P   UNL     1       8.477  -0.942  22.560  0.00  0.00    +0.483 P 
ATOM      3  O   UNL     1       9.664  -1.479  23.356  0.00  0.00    -0.227 OA
BRANCH   2   4
ATOM      4  O   UNL     1       8.104  -2.567  22.102  0.00  0.00    -0.302 OA
ATOM      5  H   UNL     1       8.921  -3.096  22.104  0.00  0.00    +0.222 HD
ENDBRANCH   2   4
BRANCH   2   6
ATOM      6  O   UNL     1       8.850   0.685  23.018  0.00  0.00    -0.186 OA
BRANCH   6   7
ATOM      7  P   UNL     1      10.134   1.626  22.947  0.00  0.00    +0.483 P 
ATOM      8  O   UNL     1      10.583   1.813  24.358  0.00  0.00    -0.227 OA
BRANCH   7   9
ATOM      9  O   UNL     1      10.054   1.968  21.394  0.00  0.00    -0.302 OA
ATOM     10  H   UNL     1      10.722   2.689  21.286  0.00  0.00    +0.222 HD
ENDBRANCH   7   9
BRANCH   7  11
ATOM     11  O   UNL     1       9.813   3.272  22.883  0.00  0.00    -0.284 OA
BRANCH  11  12
ATOM     12  C   UNL     1       9.878   4.128  24.117  0.00  0.00    +0.206 C 
BRANCH  12  13
ATOM     13  C   UNL     1       8.616   4.826  24.767  0.00  0.00    +0.178 C 
ATOM     14  C   UNL     1       7.947   5.995  23.944  0.00  0.00    +0.178 C 
ATOM     15  C   UNL     1       6.859   5.401  23.073  0.00  0.00    +0.195 C 
ATOM     16  C   UNL     1       6.722   4.060  23.739  0.00  0.00    +0.253 C 
ATOM     17  O   UNL     1       7.521   3.914  24.923  0.00  0.00    -0.346 OA
BRANCH  16  18
ATOM     18  N   UNL     1       5.369   3.714  24.044  0.00  0.00    -0.286 N 
ATOM     19  C   UNL     1       4.176   3.446  23.416  0.00  0.00    +0.167 A 
ATOM     20  N   UNL     1       3.822   3.389  22.119  0.00  0.00    -0.216 NA
ATOM     21  C   UNL     1       2.483   3.108  22.037  0.00  0.00    +0.225 A 
ATOM     22  N   UNL     1       1.498   3.077  22.986  0.00  0.00    -0.219 NA
ATOM     23  C   UNL     1       1.910   3.176  24.225  0.00  0.00    +0.147 A 
ATOM     24  N   UNL     1       0.970   3.291  25.294  0.00  0.00    -0.341 N 
ATOM     25  H   UNL     1       1.231   3.000  26.232  0.00  0.00    +0.144 HD
ATOM     26  H   UNL     1       0.035   3.014  25.041  0.00  0.00    +0.144 HD
ATOM     27  C   UNL     1       3.283   3.211  24.452  0.00  0.00    +0.147 A 
ATOM     28  N   UNL     1       3.973   3.074  25.584  0.00  0.00    -0.231 NA
ATOM     29  C   UNL     1       5.186   3.477  25.347  0.00  0.00    +0.203 A 
ENDBRANCH  16  18
BRANCH  15  30
ATOM     30  O   UNL     1       7.196   5.237  21.684  0.00  0.00    -0.385 OA
ATOM     31  H   UNL     1       7.268   6.161  21.266  0.00  0.00    +0.210 HD
ENDBRANCH  15  30
BRANCH  14  32
ATOM     32  O   UNL     1       7.259   6.859  24.878  0.00  0.00    -0.386 OA
ATOM     33  H   UNL     1       7.774   6.899  25.712  0.00  0.00    +0.210 HD
ENDBRANCH  14  32
ENDBRANCH  12  13
ENDBRANCH  11  12
ENDBRANCH   7  11
ENDBRANCH   6   7
ENDBRANCH   2   6
ENDBRANCH   1   2
BRANCH   1  34
ATOM     34  C   UNL     1       6.836   0.319  24.216  0.00  0.00    +0.206 C 
BRANCH  34  35
ATOM     35  C   UNL     1       7.302   0.284  25.682  0.00  0.00    +0.172 C 
BRANCH  35  36
ATOM     36  O   UNL     1       8.138   1.411  25.962  0.00  0.00    -0.387 OA
ATOM     37  H   UNL     1       7.760   2.170  25.479  0.00  0.00    +0.210 HD
ENDBRANCH  35  36
BRANCH  35  38
ATOM     38  C   UNL     1       6.087   0.236  26.621  0.00  0.00    +0.175 C 
BRANCH  38  39
ATOM     39  O   UNL     1       6.452  -0.179  27.943  0.00  0.00    -0.387 OA
ATOM     40  H   UNL     1       5.791  -0.854  28.194  0.00  0.00    +0.210 HD
ENDBRANCH  38  39
BRANCH  38  41
ATOM     41  C   UNL     1       4.944  -0.631  26.097  0.00  0.00    +0.165 C 
BRANCH  41  42
ATOM     42  O   UNL     1       3.725   0.115  26.317  0.00  0.00    -0.387 OA
ATOM     43  H   UNL     1       3.461  -0.080  27.237  0.00  0.00    +0.210 HD
ENDBRANCH  41  42
BRANCH  41  44
ATOM     44  C   UNL     1       4.822  -2.016  26.756  0.00  0.00    +0.158 C 
BRANCH  44  54
ATOM     45  C   UNL     1       0.789  -4.311  24.356  0.00  0.00    +0.044 C 
ATOM     46  C   UNL     1       2.212  -4.718  24.525  0.00  0.00    -0.042 A 
ATOM     47  C   UNL     1       2.733  -5.877  23.905  0.00  0.00    -0.004 A 
ATOM     48  C   UNL     1       1.969  -6.767  23.007  0.00  0.00    +0.048 C 
ATOM     49  C   UNL     1       4.086  -6.105  23.989  0.00  0.00    +0.147 A 
ATOM     50  C   UNL     1       4.870  -5.139  24.522  0.00  0.00    +0.130 A 
ATOM     51  N   UNL     1       6.197  -5.365  24.235  0.00  0.00    -0.233 NA
ATOM     52  C   UNL     1       6.986  -4.518  24.746  0.00  0.00    +0.171 A 
ATOM     53  C   UNL     1       6.508  -3.423  25.748  0.00  0.00    +0.170 A 
ATOM     54  N   UNL     1       5.221  -3.018  25.742  0.00  0.00    -0.319 N 
ATOM     55  N   UNL     1       7.340  -3.049  26.665  0.00  0.00    -0.173 NA
ATOM     56  C   UNL     1       8.229  -4.037  26.619  0.00  0.00    +0.351 A 
ATOM     57  O   UNL     1       8.085  -5.049  27.301  0.00  0.00    -0.245 OA
ATOM     58  N   UNL     1       9.007  -3.882  25.500  0.00  0.00    -0.272 N 
ATOM     59  H   UNL     1       9.935  -4.209  25.671  0.00  0.00    +0.174 HD
ATOM     60  C   UNL     1       8.444  -4.736  24.620  0.00  0.00    +0.282 A 
ATOM     61  O   UNL     1       8.997  -5.665  24.070  0.00  0.00    -0.265 OA
ATOM     62  C   UNL     1       4.350  -3.975  25.196  0.00  0.00    +0.073 A 
ATOM     63  C   UNL     1       3.012  -3.817  25.217  0.00  0.00    +0.032 A 
BRANCH  49  64
ATOM     64  O   UNL     1       4.705  -7.220  23.478  0.00  0.00    -0.504 OA
ATOM     65  H   UNL     1       4.142  -7.465  22.713  0.00  0.00    +0.292 HD
ENDBRANCH  49  64
ENDBRANCH  44  54
ENDBRANCH  41  44
ENDBRANCH  38  41
ENDBRANCH  35  38
ENDBRANCH  34  35
ENDBRANCH   1  34
TORSDOF 21
ENDMDL
MODEL 5
REMARK VINA RESULT:      -6.7      1.612      1.986
REMARK  Name = 
REMARK  23 active torsions:
REMARK  status: ('A' for Active; 'I' for Inactive)
REMARK    1  A    between atoms: C_1  and  C_2
REMARK    2  A    between atoms: N_15  and  C_16
REMARK    3  A    between atoms: C_16  and  C_17
REMARK    4  A    between atoms: C_17  and  O_19
REMARK    5  A    between atoms: C_17  and  C_20
REMARK    6  A    between atoms: C_20  and  O_22
REMARK    7  A    between atoms: C_20  and  C_23
REMARK    8  A    between atoms: C_23  and  O_25
REMARK    9  A    between atoms: C_23  and  C_26
REMARK   10  A    between atoms: C_26  and  O_27
REMARK   11  A    between atoms: O_27  and  P_28
REMARK   12  A    between atoms: P_28  and  O_29
REMARK   13  A    between atoms: P_28  and  O_31
REMARK   14  A    between atoms: O_31  and  P_32
REMARK   15  A    between atoms: P_32  and  O_33
REMARK   16  A    between atoms: P_32  and  O_35
REMARK   17  A    between atoms: O_35  and  C_36
REMARK   18  A    between atoms: C_36  and  C_37
REMARK   19  A    between atoms: C_40  and  N_48
REMARK   20  A    between atoms: C_42  and  O_44
REMARK   21  A    between atoms: C_45  and  O_47
REMARK   22  A    between atoms: C_58  and  O_59
REMARK   23  A    between atoms: C_60  and  C_61
REMARK                            x       y       z     vdW  Elec       q    Type
REMARK                         _______ _______ _______ _____ _____    ______ ____
ROOT
ATOM      1  O   UNL     1       4.587   2.222  25.595  0.00  0.00    -0.284 OA
ENDROOT
BRANCH   1   2
ATOM      2  P   UNL     1       5.114   3.301  26.710  0.00  0.00    +0.483 P 
ATOM      3  O   UNL     1       3.938   4.128  27.225  0.00  0.00    -0.227 OA
BRANCH   2   4
ATOM      4  O   UNL     1       4.817   2.166  27.980  0.00  0.00    -0.302 OA
ATOM      5  H   UNL     1       4.131   2.521  28.573  0.00  0.00    +0.222 HD
ENDBRANCH   2   4
BRANCH   2   6
ATOM      6  O   UNL     1       5.412   4.437  25.439  0.00  0.00    -0.186 OA
BRANCH   6   7
ATOM      7  P   UNL     1       5.039   5.961  25.157  0.00  0.00    +0.483 P 
ATOM      8  O   UNL     1       4.601   6.018  23.732  0.00  0.00    -0.227 OA
BRANCH   7   9
ATOM      9  O   UNL     1       5.552   6.558  26.541  0.00  0.00    -0.302 OA
ATOM     10  H   UNL     1       6.427   6.954  26.307  0.00  0.00    +0.222 HD
ENDBRANCH   7   9
BRANCH   7  11
ATOM     11  O   UNL     1       6.332   6.951  24.749  0.00  0.00    -0.284 OA
BRANCH  11  12
ATOM     12  C   UNL     1       6.814   7.057  23.329  0.00  0.00    +0.206 C 
BRANCH  12  13
ATOM     13  C   UNL     1       8.089   6.301  22.778  0.00  0.00    +0.178 C 
ATOM     14  C   UNL     1       9.286   6.095  23.786  0.00  0.00    +0.178 C 
ATOM     15  C   UNL     1       9.100   4.759  24.477  0.00  0.00    +0.195 C 
ATOM     16  C   UNL     1       8.081   4.151  23.555  0.00  0.00    +0.253 C 
ATOM     17  O   UNL     1       7.789   4.952  22.400  0.00  0.00    -0.346 OA
BRANCH  16  18
ATOM     18  N   UNL     1       8.418   2.827  23.132  0.00  0.00    -0.286 N 
ATOM     19  C   UNL     1       9.095   1.714  23.570  0.00  0.00    +0.167 A 
ATOM     20  N   UNL     1       9.747   1.436  24.713  0.00  0.00    -0.216 NA
ATOM     21  C   UNL     1      10.277   0.175  24.626  0.00  0.00    +0.225 A 
ATOM     22  N   UNL     1      10.404  -0.690  23.574  0.00  0.00    -0.219 NA
ATOM     23  C   UNL     1       9.774  -0.339  22.480  0.00  0.00    +0.147 A 
ATOM     24  N   UNL     1       9.940  -1.089  21.276  0.00  0.00    -0.341 N 
ATOM     25  H   UNL     1       9.216  -1.071  20.565  0.00  0.00    +0.144 HD
ATOM     26  H   UNL     1      10.326  -2.008  21.424  0.00  0.00    +0.144 HD
ATOM     27  C   UNL     1       8.984   0.807  22.525  0.00  0.00    +0.147 A 
ATOM     28  N   UNL     1       8.073   1.259  21.665  0.00  0.00    -0.231 NA
ATOM     29  C   UNL     1       7.825   2.496  21.979  0.00  0.00    +0.203 A 
ENDBRANCH  16  18
BRANCH  15  30
ATOM     30  O   UNL     1       8.586   4.821  25.820  0.00  0.00    -0.385 OA
ATOM     31  H   UNL     1       7.639   4.449  25.811  0.00  0.00    +0.210 HD
ENDBRANCH  15  30
BRANCH  14  32
ATOM     32  O   UNL     1      10.500   5.959  23.013  0.00  0.00    -0.386 OA
ATOM     33  H   UNL     1      11.178   5.509  23.562  0.00  0.00    +0.210 HD
ENDBRANCH  14  32
ENDBRANCH  12  13
ENDBRANCH  11  12
ENDBRANCH   7  11
ENDBRANCH   6   7
ENDBRANCH   2   6
ENDBRANCH   1   2
BRANCH   1  34
ATOM     34  C   UNL     1       5.523   1.624  24.698  0.00  0.00    +0.206 C 
BRANCH  34  35
ATOM     35  C   UNL     1       5.543   0.090  24.807  0.00  0.00    +0.172 C 
BRANCH  35  36
ATOM     36  O   UNL     1       6.251  -0.475  23.699  0.00  0.00    -0.387 OA
ATOM     37  H   UNL     1       7.202  -0.360  23.884  0.00  0.00    +0.210 HD
ENDBRANCH  35  36
BRANCH  35  38
ATOM     38  C   UNL     1       6.159  -0.336  26.148  0.00  0.00    +0.175 C 
BRANCH  38  39
ATOM     39  O   UNL     1       7.539  -0.699  26.008  0.00  0.00    -0.387 OA
ATOM     40  H   UNL     1       7.810  -1.028  26.888  0.00  0.00    +0.210 HD
ENDBRANCH  38  39
BRANCH  38  41
ATOM     41  C   UNL     1       5.391  -1.457  26.846  0.00  0.00    +0.165 C 
BRANCH  41  42
ATOM     42  O   UNL     1       5.078  -0.979  28.174  0.00  0.00    -0.387 OA
ATOM     43  H   UNL     1       5.925  -0.990  28.662  0.00  0.00    +0.210 HD
ENDBRANCH  41  42
BRANCH  41  44
ATOM     44  C   UNL     1       6.142  -2.796  26.947  0.00  0.00    +0.158 C 
BRANCH  44  54
ATOM     45  C   UNL     1       2.051  -5.826  28.119  0.00  0.00    +0.044 C 
ATOM     46  C   UNL     1       3.082  -5.914  27.047  0.00  0.00    -0.042 A 
ATOM     47  C   UNL     1       3.024  -6.901  26.036  0.00  0.00    -0.004 A 
ATOM     48  C   UNL     1       1.944  -7.899  25.897  0.00  0.00    +0.048 C 
ATOM     49  C   UNL     1       3.927  -6.825  25.003  0.00  0.00    +0.147 A 
ATOM     50  C   UNL     1       4.723  -5.733  24.921  0.00  0.00    +0.130 A 
ATOM     51  N   UNL     1       5.316  -5.646  23.682  0.00  0.00    -0.233 NA
ATOM     52  C   UNL     1       6.108  -4.667  23.559  0.00  0.00    +0.171 A 
ATOM     53  C   UNL     1       6.502  -3.749  24.756  0.00  0.00    +0.170 A 
ATOM     54  N   UNL     1       5.682  -3.640  25.821  0.00  0.00    -0.319 N 
ATOM     55  N   UNL     1       7.691  -3.239  24.751  0.00  0.00    -0.173 NA
ATOM     56  C   UNL     1       8.290  -4.002  23.841  0.00  0.00    +0.351 A 
ATOM     57  O   UNL     1       8.849  -5.048  24.163  0.00  0.00    -0.245 OA
ATOM     58  N   UNL     1       7.856  -3.630  22.595  0.00  0.00    -0.272 N 
ATOM     59  H   UNL     1       8.583  -3.749  21.921  0.00  0.00    +0.174 HD
ATOM     60  C   UNL     1       6.908  -4.550  22.319  0.00  0.00    +0.282 A 
ATOM     61  O   UNL     1       6.900  -5.309  21.373  0.00  0.00    -0.265 OA
ATOM     62  C   UNL     1       4.824  -4.743  25.965  0.00  0.00    +0.073 A 
ATOM     63  C   UNL     1       4.019  -4.888  27.035  0.00  0.00    +0.032 A 
BRANCH  49  64
ATOM     64  O   UNL     1       4.010  -7.752  23.993  0.00  0.00    -0.504 OA
ATOM     65  H   UNL     1       3.959  -8.611  24.465  0.00  0.00    +0.292 HD
ENDBRANCH  49  64
ENDBRANCH  44  54
ENDBRANCH  41  44
ENDBRANCH  38  41
ENDBRANCH  35  38
ENDBRANCH  34  35
ENDBRANCH   1  34
TORSDOF 21
ENDMDL
MODEL 6
REMARK VINA RESULT:      -6.6      1.468      2.140
REMARK  Name = 
REMARK  23 active torsions:
REMARK  status: ('A' for Active; 'I' for Inactive)
REMARK    1  A    between atoms: C_1  and  C_2
REMARK    2  A    between atoms: N_15  and  C_16
REMARK    3  A    between atoms: C_16  and  C_17
REMARK    4  A    between atoms: C_17  and  O_19
REMARK    5  A    between atoms: C_17  and  C_20
REMARK    6  A    between atoms: C_20  and  O_22
REMARK    7  A    between atoms: C_20  and  C_23
REMARK    8  A    between atoms: C_23  and  O_25
REMARK    9  A    between atoms: C_23  and  C_26
REMARK   10  A    between atoms: C_26  and  O_27
REMARK   11  A    between atoms: O_27  and  P_28
REMARK   12  A    between atoms: P_28  and  O_29
REMARK   13  A    between atoms: P_28  and  O_31
REMARK   14  A    between atoms: O_31  and  P_32
REMARK   15  A    between atoms: P_32  and  O_33
REMARK   16  A    between atoms: P_32  and  O_35
REMARK   17  A    between atoms: O_35  and  C_36
REMARK   18  A    between atoms: C_36  and  C_37
REMARK   19  A    between atoms: C_40  and  N_48
REMARK   20  A    between atoms: C_42  and  O_44
REMARK   21  A    between atoms: C_45  and  O_47
REMARK   22  A    between atoms: C_58  and  O_59
REMARK   23  A    between atoms: C_60  and  C_61
REMARK                            x       y       z     vdW  Elec       q    Type
REMARK                         _______ _______ _______ _____ _____    ______ ____
ROOT
ATOM      1  O   UNL     1       7.109   2.450  28.279  0.00  0.00    -0.284 OA
ENDROOT
BRANCH   1   2
ATOM      2  P   UNL     1       6.795   4.006  28.687  0.00  0.00    +0.483 P 
ATOM      3  O   UNL     1       5.526   4.070  29.535  0.00  0.00    -0.227 OA
BRANCH   2   4
ATOM      4  O   UNL     1       7.708   3.830  30.145  0.00  0.00    -0.302 OA
ATOM      5  H   UNL     1       8.161   2.968  30.137  0.00  0.00    +0.222 HD
ENDBRANCH   2   4
BRANCH   2   6
ATOM      6  O   UNL     1       5.881   4.182  27.228  0.00  0.00    -0.186 OA
BRANCH   6   7
ATOM      7  P   UNL     1       4.459   4.788  26.836  0.00  0.00    +0.483 P 
ATOM      8  O   UNL     1       3.822   3.787  25.932  0.00  0.00    -0.227 OA
BRANCH   7   9
ATOM      9  O   UNL     1       4.655   6.220  27.504  0.00  0.00    -0.302 OA
ATOM     10  H   UNL     1       5.386   6.069  28.154  0.00  0.00    +0.222 HD
ENDBRANCH   7   9
BRANCH   7  11
ATOM     11  O   UNL     1       4.471   5.868  25.551  0.00  0.00    -0.284 OA
BRANCH  11  12
ATOM     12  C   UNL     1       5.751   6.237  24.854  0.00  0.00    +0.206 C 
BRANCH  12  13
ATOM     13  C   UNL     1       6.209   5.615  23.473  0.00  0.00    +0.178 C 
ATOM     14  C   UNL     1       7.622   6.056  22.928  0.00  0.00    +0.178 C 
ATOM     15  C   UNL     1       8.655   5.066  23.431  0.00  0.00    +0.195 C 
ATOM     16  C   UNL     1       7.736   3.959  23.864  0.00  0.00    +0.253 C 
ATOM     17  O   UNL     1       6.354   4.192  23.549  0.00  0.00    -0.346 OA
BRANCH  16  18
ATOM     18  N   UNL     1       8.118   2.676  23.364  0.00  0.00    -0.286 N 
ATOM     19  C   UNL     1       8.530   1.443  23.811  0.00  0.00    +0.167 A 
ATOM     20  N   UNL     1       8.722   0.939  25.044  0.00  0.00    -0.216 NA
ATOM     21  C   UNL     1       9.171  -0.351  24.930  0.00  0.00    +0.225 A 
ATOM     22  N   UNL     1       9.605  -1.074  23.853  0.00  0.00    -0.219 NA
ATOM     23  C   UNL     1       9.422  -0.507  22.686  0.00  0.00    +0.147 A 
ATOM     24  N   UNL     1       9.954  -1.100  21.501  0.00  0.00    -0.341 N 
ATOM     25  H   UNL     1       9.528  -0.902  20.601  0.00  0.00    +0.144 HD
ATOM     26  H   UNL     1      10.207  -2.069  21.613  0.00  0.00    +0.144 HD
ATOM     27  C   UNL     1       8.738   0.705  22.654  0.00  0.00    +0.147 A 
ATOM     28  N   UNL     1       8.215   1.372  21.625  0.00  0.00    -0.231 NA
ATOM     29  C   UNL     1       7.949   2.575  22.041  0.00  0.00    +0.203 A 
ENDBRANCH  16  18
BRANCH  15  30
ATOM     30  O   UNL     1       9.455   5.514  24.540  0.00  0.00    -0.385 OA
ATOM     31  H   UNL     1      10.247   4.883  24.632  0.00  0.00    +0.210 HD
ENDBRANCH  15  30
BRANCH  14  32
ATOM     32  O   UNL     1       7.614   5.900  21.491  0.00  0.00    -0.386 OA
ATOM     33  H   UNL     1       8.316   6.467  21.105  0.00  0.00    +0.210 HD
ENDBRANCH  14  32
ENDBRANCH  12  13
ENDBRANCH  11  12
ENDBRANCH   7  11
ENDBRANCH   6   7
ENDBRANCH   2   6
ENDBRANCH   1   2
BRANCH   1  34
ATOM     34  C   UNL     1       6.494   1.393  29.015  0.00  0.00    +0.206 C 
BRANCH  34  35
ATOM     35  C   UNL     1       5.304   0.770  28.266  0.00  0.00    +0.172 C 
BRANCH  35  36
ATOM     36  O   UNL     1       4.202   1.682  28.244  0.00  0.00    -0.387 OA
ATOM     37  H   UNL     1       3.973   1.870  29.173  0.00  0.00    +0.210 HD
ENDBRANCH  35  36
BRANCH  35  38
ATOM     38  C   UNL     1       5.728   0.362  26.847  0.00  0.00    +0.175 C 
BRANCH  38  39
ATOM     39  O   UNL     1       5.804   1.492  25.968  0.00  0.00    -0.387 OA
ATOM     40  H   UNL     1       6.633   1.951  26.209  0.00  0.00    +0.210 HD
ENDBRANCH  38  39
BRANCH  38  41
ATOM     41  C   UNL     1       4.843  -0.721  26.232  0.00  0.00    +0.165 C 
BRANCH  41  42
ATOM     42  O   UNL     1       3.482  -0.243  26.322  0.00  0.00    -0.387 OA
ATOM     43  H   UNL     1       3.275  -0.222  27.276  0.00  0.00    +0.210 HD
ENDBRANCH  41  42
BRANCH  41  44
ATOM     44  C   UNL     1       4.946  -2.103  26.900  0.00  0.00    +0.158 C 
BRANCH  44  54
ATOM     45  C   UNL     1       0.830  -4.336  24.584  0.00  0.00    +0.044 C 
ATOM     46  C   UNL     1       2.260  -4.744  24.687  0.00  0.00    -0.042 A 
ATOM     47  C   UNL     1       2.759  -5.883  24.014  0.00  0.00    -0.004 A 
ATOM     48  C   UNL     1       1.964  -6.747  23.118  0.00  0.00    +0.048 C 
ATOM     49  C   UNL     1       4.115  -6.109  24.040  0.00  0.00    +0.147 A 
ATOM     50  C   UNL     1       4.917  -5.158  24.574  0.00  0.00    +0.130 A 
ATOM     51  N   UNL     1       6.232  -5.371  24.230  0.00  0.00    -0.233 NA
ATOM     52  C   UNL     1       7.038  -4.537  24.737  0.00  0.00    +0.171 A 
ATOM     53  C   UNL     1       6.596  -3.474  25.788  0.00  0.00    +0.170 A 
ATOM     54  N   UNL     1       5.309  -3.073  25.842  0.00  0.00    -0.319 N 
ATOM     55  N   UNL     1       7.461  -3.126  26.685  0.00  0.00    -0.173 NA
ATOM     56  C   UNL     1       8.349  -4.110  26.576  0.00  0.00    +0.351 A 
ATOM     57  O   UNL     1       8.232  -5.142  27.233  0.00  0.00    -0.245 OA
ATOM     58  N   UNL     1       9.085  -3.918  25.434  0.00  0.00    -0.272 N 
ATOM     59  H   UNL     1      10.019  -4.248  25.561  0.00  0.00    +0.174 HD
ATOM     60  C   UNL     1       8.491  -4.748  24.551  0.00  0.00    +0.282 A 
ATOM     61  O   UNL     1       9.025  -5.659  23.953  0.00  0.00    -0.265 OA
ATOM     62  C   UNL     1       4.420  -4.016  25.301  0.00  0.00    +0.073 A 
ATOM     63  C   UNL     1       3.084  -3.862  25.375  0.00  0.00    +0.032 A 
BRANCH  49  64
ATOM     64  O   UNL     1       4.716  -7.207  23.474  0.00  0.00    -0.504 OA
ATOM     65  H   UNL     1       5.568  -6.854  23.140  0.00  0.00    +0.292 HD
ENDBRANCH  49  64
ENDBRANCH  44  54
ENDBRANCH  41  44
ENDBRANCH  38  41
ENDBRANCH  35  38
ENDBRANCH  34  35
ENDBRANCH   1  34
TORSDOF 21
ENDMDL
MODEL 7
REMARK VINA RESULT:      -6.5      2.933      8.808
REMARK  Name = 
REMARK  23 active torsions:
REMARK  status: ('A' for Active; 'I' for Inactive)
REMARK    1  A    between atoms: C_1  and  C_2
REMARK    2  A    between atoms: N_15  and  C_16
REMARK    3  A    between atoms: C_16  and  C_17
REMARK    4  A    between atoms: C_17  and  O_19
REMARK    5  A    between atoms: C_17  and  C_20
REMARK    6  A    between atoms: C_20  and  O_22
REMARK    7  A    between atoms: C_20  and  C_23
REMARK    8  A    between atoms: C_23  and  O_25
REMARK    9  A    between atoms: C_23  and  C_26
REMARK   10  A    between atoms: C_26  and  O_27
REMARK   11  A    between atoms: O_27  and  P_28
REMARK   12  A    between atoms: P_28  and  O_29
REMARK   13  A    between atoms: P_28  and  O_31
REMARK   14  A    between atoms: O_31  and  P_32
REMARK   15  A    between atoms: P_32  and  O_33
REMARK   16  A    between atoms: P_32  and  O_35
REMARK   17  A    between atoms: O_35  and  C_36
REMARK   18  A    between atoms: C_36  and  C_37
REMARK   19  A    between atoms: C_40  and  N_48
REMARK   20  A    between atoms: C_42  and  O_44
REMARK   21  A    between atoms: C_45  and  O_47
REMARK   22  A    between atoms: C_58  and  O_59
REMARK   23  A    between atoms: C_60  and  C_61
REMARK                            x       y       z     vdW  Elec       q    Type
REMARK                         _______ _______ _______ _____ _____    ______ ____
ROOT
ATOM      1  O   UNL     1       4.535  -2.255  27.380  0.00  0.00    -0.284 OA
ENDROOT
BRANCH   1   2
ATOM      2  P   UNL     1       3.880  -3.467  28.267  0.00  0.00    +0.483 P 
ATOM      3  O   UNL     1       4.188  -3.248  29.747  0.00  0.00    -0.227 OA
BRANCH   2   4
ATOM      4  O   UNL     1       2.426  -2.554  28.479  0.00  0.00    -0.302 OA
ATOM      5  H   UNL     1       1.661  -3.152  28.419  0.00  0.00    +0.222 HD
ENDBRANCH   2   4
BRANCH   2   6
ATOM      6  O   UNL     1       5.334  -4.380  28.054  0.00  0.00    -0.186 OA
BRANCH   6   7
ATOM      7  P   UNL     1       5.858  -5.816  28.507  0.00  0.00    +0.483 P 
ATOM      8  O   UNL     1       7.220  -5.961  27.913  0.00  0.00    -0.227 OA
BRANCH   7   9
ATOM      9  O   UNL     1       4.508  -6.326  29.178  0.00  0.00    -0.302 OA
ATOM     10  H   UNL     1       4.217  -5.552  29.720  0.00  0.00    +0.222 HD
ENDBRANCH   7   9
BRANCH   7  11
ATOM     11  O   UNL     1       5.356  -7.097  27.547  0.00  0.00    -0.284 OA
BRANCH  11  12
ATOM     12  C   UNL     1       4.323  -6.908  26.471  0.00  0.00    +0.206 C 
BRANCH  12  13
ATOM     13  C   UNL     1       4.673  -6.763  24.935  0.00  0.00    +0.178 C 
ATOM     14  C   UNL     1       3.642  -5.969  24.042  0.00  0.00    +0.178 C 
ATOM     15  C   UNL     1       4.059  -4.512  24.018  0.00  0.00    +0.195 C 
ATOM     16  C   UNL     1       5.461  -4.654  24.540  0.00  0.00    +0.253 C 
ATOM     17  O   UNL     1       5.878  -6.015  24.729  0.00  0.00    -0.346 OA
BRANCH  16  18
ATOM     18  N   UNL     1       6.434  -3.976  23.742  0.00  0.00    -0.286 N 
ATOM     19  C   UNL     1       7.744  -3.560  23.792  0.00  0.00    +0.167 A 
ATOM     20  N   UNL     1       8.703  -3.682  24.729  0.00  0.00    -0.216 NA
ATOM     21  C   UNL     1       9.838  -3.055  24.284  0.00  0.00    +0.225 A 
ATOM     22  N   UNL     1      10.066  -2.228  23.219  0.00  0.00    -0.219 NA
ATOM     23  C   UNL     1       9.076  -2.126  22.367  0.00  0.00    +0.147 A 
ATOM     24  N   UNL     1       9.141  -1.191  21.289  0.00  0.00    -0.341 N 
ATOM     25  H   UNL     1       8.596  -1.351  20.447  0.00  0.00    +0.144 HD
ATOM     26  H   UNL     1      10.074  -0.860  21.099  0.00  0.00    +0.144 HD
ATOM     27  C   UNL     1       7.953  -2.921  22.578  0.00  0.00    +0.147 A 
ATOM     28  N   UNL     1       6.926  -3.194  21.773  0.00  0.00    -0.231 NA
ATOM     29  C   UNL     1       5.993  -3.726  22.504  0.00  0.00    +0.203 A 
ENDBRANCH  16  18
BRANCH  15  30
ATOM     30  O   UNL     1       3.297  -3.635  24.867  0.00  0.00    -0.385 OA
ATOM     31  H   UNL     1       3.910  -3.301  25.606  0.00  0.00    +0.210 HD
ENDBRANCH  15  30
BRANCH  14  32
ATOM     32  O   UNL     1       3.787  -6.429  22.679  0.00  0.00    -0.386 OA
ATOM     33  H   UNL     1       3.973  -7.393  22.687  0.00  0.00    +0.210 HD
ENDBRANCH  14  32
ENDBRANCH  12  13
ENDBRANCH  11  12
ENDBRANCH   7  11
ENDBRANCH   6   7
ENDBRANCH   2   6
ENDBRANCH   1   2
BRANCH   1  34
ATOM     34  C   UNL     1       5.926  -2.288  27.064  0.00  0.00    +0.206 C 
BRANCH  34  35
ATOM     35  C   UNL     1       6.472  -0.906  26.666  0.00  0.00    +0.172 C 
BRANCH  35  36
ATOM     36  O   UNL     1       7.774  -1.036  26.089  0.00  0.00    -0.387 OA
ATOM     37  H   UNL     1       8.180  -1.830  26.484  0.00  0.00    +0.210 HD
ENDBRANCH  35  36
BRANCH  35  38
ATOM     38  C   UNL     1       5.495  -0.209  25.707  0.00  0.00    +0.175 C 
BRANCH  38  39
ATOM     39  O   UNL     1       5.022  -1.101  24.689  0.00  0.00    -0.387 OA
ATOM     40  H   UNL     1       5.209  -0.649  23.842  0.00  0.00    +0.210 HD
ENDBRANCH  38  39
BRANCH  38  41
ATOM     41  C   UNL     1       6.062   1.058  25.071  0.00  0.00    +0.165 C 
BRANCH  41  42
ATOM     42  O   UNL     1       6.861   0.634  23.943  0.00  0.00    -0.387 OA
ATOM     43  H   UNL     1       6.425   1.014  23.156  0.00  0.00    +0.210 HD
ENDBRANCH  41  42
BRANCH  41  44
ATOM     44  C   UNL     1       6.919   1.928  26.006  0.00  0.00    +0.158 C 
BRANCH  44  54
ATOM     45  C   UNL     1       3.620   5.673  24.462  0.00  0.00    +0.044 C 
ATOM     46  C   UNL     1       4.937   5.223  23.930  0.00  0.00    -0.042 A 
ATOM     47  C   UNL     1       5.577   5.893  22.862  0.00  0.00    -0.004 A 
ATOM     48  C   UNL     1       5.059   7.108  22.200  0.00  0.00    +0.048 C 
ATOM     49  C   UNL     1       6.853   5.507  22.526  0.00  0.00    +0.147 A 
ATOM     50  C   UNL     1       7.489   4.618  23.325  0.00  0.00    +0.130 A 
ATOM     51  N   UNL     1       8.838   4.591  23.058  0.00  0.00    -0.233 NA
ATOM     52  C   UNL     1       9.482   3.745  23.744  0.00  0.00    +0.171 A 
ATOM     53  C   UNL     1       8.780   2.713  24.679  0.00  0.00    +0.170 A 
ATOM     54  N   UNL     1       7.551   2.975  25.171  0.00  0.00    -0.319 N 
ATOM     55  N   UNL     1       9.346   1.559  24.826  0.00  0.00    -0.173 NA
ATOM     56  C   UNL     1      10.192   1.559  23.800  0.00  0.00    +0.351 A 
ATOM     57  O   UNL     1       9.848   1.139  22.697  0.00  0.00    -0.245 OA
ATOM     58  N   UNL     1      11.243   2.390  24.091  0.00  0.00    -0.272 N 
ATOM     59  H   UNL     1      12.084   2.050  23.673  0.00  0.00    +0.174 HD
ATOM     60  C   UNL     1      10.915   3.529  23.446  0.00  0.00    +0.282 A 
ATOM     61  O   UNL     1      11.573   4.082  22.590  0.00  0.00    -0.265 OA
ATOM     62  C   UNL     1       6.835   3.896  24.388  0.00  0.00    +0.073 A 
ATOM     63  C   UNL     1       5.544   4.192  24.636  0.00  0.00    +0.032 A 
BRANCH  49  64
ATOM     64  O   UNL     1       7.559   6.040  21.476  0.00  0.00    -0.504 OA
ATOM     65  H   UNL     1       8.268   6.556  21.915  0.00  0.00    +0.292 HD
ENDBRANCH  49  64
ENDBRANCH  44  54
ENDBRANCH  41  44
ENDBRANCH  38  41
ENDBRANCH  35  38
ENDBRANCH  34  35
ENDBRANCH   1  34
TORSDOF 21
ENDMDL
MODEL 8
REMARK VINA RESULT:      -6.4      2.954      8.734
REMARK  Name = 
REMARK  23 active torsions:
REMARK  status: ('A' for Active; 'I' for Inactive)
REMARK    1  A    between atoms: C_1  and  C_2
REMARK    2  A    between atoms: N_15  and  C_16
REMARK    3  A    between atoms: C_16  and  C_17
REMARK    4  A    between atoms: C_17  and  O_19
REMARK    5  A    between atoms: C_17  and  C_20
REMARK    6  A    between atoms: C_20  and  O_22
REMARK    7  A    between atoms: C_20  and  C_23
REMARK    8  A    between atoms: C_23  and  O_25
REMARK    9  A    between atoms: C_23  and  C_26
REMARK   10  A    between atoms: C_26  and  O_27
REMARK   11  A    between atoms: O_27  and  P_28
REMARK   12  A    between atoms: P_28  and  O_29
REMARK   13  A    between atoms: P_28  and  O_31
REMARK   14  A    between atoms: O_31  and  P_32
REMARK   15  A    between atoms: P_32  and  O_33
REMARK   16  A    between atoms: P_32  and  O_35
REMARK   17  A    between atoms: O_35  and  C_36
REMARK   18  A    between atoms: C_36  and  C_37
REMARK   19  A    between atoms: C_40  and  N_48
REMARK   20  A    between atoms: C_42  and  O_44
REMARK   21  A    between atoms: C_45  and  O_47
REMARK   22  A    between atoms: C_58  and  O_59
REMARK   23  A    between atoms: C_60  and  C_61
REMARK                            x       y       z     vdW  Elec       q    Type
REMARK                         _______ _______ _______ _____ _____    ______ ____
ROOT
ATOM      1  O   UNL     1       3.829  -2.014  28.323  0.00  0.00    -0.284 OA
ENDROOT
BRANCH   1   2
ATOM      2  P   UNL     1       3.578  -3.493  28.981  0.00  0.00    +0.483 P 
ATOM      3  O   UNL     1       4.388  -3.629  30.269  0.00  0.00    -0.227 OA
BRANCH   2   4
ATOM      4  O   UNL     1       2.265  -2.875  29.922  0.00  0.00    -0.302 OA
ATOM      5  H   UNL     1       1.819  -3.613  30.373  0.00  0.00    +0.222 HD
ENDBRANCH   2   4
BRANCH   2   6
ATOM      6  O   UNL     1       4.892  -4.112  28.040  0.00  0.00    -0.186 OA
BRANCH   6   7
ATOM      7  P   UNL     1       5.977  -5.267  28.212  0.00  0.00    +0.483 P 
ATOM      8  O   UNL     1       7.193  -4.798  27.485  0.00  0.00    -0.227 OA
BRANCH   7   9
ATOM      9  O   UNL     1       5.029  -6.338  28.910  0.00  0.00    -0.302 OA
ATOM     10  H   UNL     1       5.079  -7.116  28.301  0.00  0.00    +0.222 HD
ENDBRANCH   7   9
BRANCH   7  11
ATOM     11  O   UNL     1       5.864  -6.527  27.109  0.00  0.00    -0.284 OA
BRANCH  11  12
ATOM     12  C   UNL     1       4.701  -6.632  26.162  0.00  0.00    +0.206 C 
BRANCH  12  13
ATOM     13  C   UNL     1       4.770  -6.211  24.639  0.00  0.00    +0.178 C 
ATOM     14  C   UNL     1       3.726  -5.134  24.151  0.00  0.00    +0.178 C 
ATOM     15  C   UNL     1       4.353  -3.762  24.300  0.00  0.00    +0.195 C 
ATOM     16  C   UNL     1       5.790  -4.171  24.470  0.00  0.00    +0.253 C 
ATOM     17  O   UNL     1       6.016  -5.581  24.314  0.00  0.00    -0.346 OA
BRANCH  16  18
ATOM     18  N   UNL     1       6.687  -3.458  23.615  0.00  0.00    -0.286 N 
ATOM     19  C   UNL     1       8.018  -3.130  23.513  0.00  0.00    +0.167 A 
ATOM     20  N   UNL     1       9.089  -3.422  24.273  0.00  0.00    -0.216 NA
ATOM     21  C   UNL     1      10.193  -2.813  23.736  0.00  0.00    +0.225 A 
ATOM     22  N   UNL     1      10.328  -1.876  22.748  0.00  0.00    -0.219 NA
ATOM     23  C   UNL     1       9.237  -1.612  22.073  0.00  0.00    +0.147 A 
ATOM     24  N   UNL     1       9.218  -0.558  21.110  0.00  0.00    -0.341 N 
ATOM     25  H   UNL     1       8.548  -0.580  20.348  0.00  0.00    +0.144 HD
ATOM     26  H   UNL     1      10.136  -0.261  20.820  0.00  0.00    +0.144 HD
ATOM     27  C   UNL     1       8.099  -2.360  22.361  0.00  0.00    +0.147 A 
ATOM     28  N   UNL     1       6.949  -2.471  21.695  0.00  0.00    -0.231 NA
ATOM     29  C   UNL     1       6.093  -3.034  22.495  0.00  0.00    +0.203 A 
ENDBRANCH  16  18
BRANCH  15  30
ATOM     30  O   UNL     1       3.914  -2.999  25.439  0.00  0.00    -0.385 OA
ATOM     31  H   UNL     1       3.902  -3.618  26.246  0.00  0.00    +0.210 HD
ENDBRANCH  15  30
BRANCH  14  32
ATOM     32  O   UNL     1       3.534  -5.312  22.729  0.00  0.00    -0.386 OA
ATOM     33  H   UNL     1       2.597  -5.120  22.508  0.00  0.00    +0.210 HD
ENDBRANCH  14  32
ENDBRANCH  12  13
ENDBRANCH  11  12
ENDBRANCH   7  11
ENDBRANCH   6   7
ENDBRANCH   2   6
ENDBRANCH   1   2
BRANCH   1  34
ATOM     34  C   UNL     1       4.434  -0.988  29.109  0.00  0.00    +0.206 C 
BRANCH  34  35
ATOM     35  C   UNL     1       5.147   0.069  28.249  0.00  0.00    +0.172 C 
BRANCH  35  36
ATOM     36  O   UNL     1       6.261   0.616  28.961  0.00  0.00    -0.387 OA
ATOM     37  H   UNL     1       6.579   1.380  28.443  0.00  0.00    +0.210 HD
ENDBRANCH  35  36
BRANCH  35  38
ATOM     38  C   UNL     1       5.579  -0.545  26.909  0.00  0.00    +0.175 C 
BRANCH  38  39
ATOM     39  O   UNL     1       6.366  -1.729  27.095  0.00  0.00    -0.387 OA
ATOM     40  H   UNL     1       7.184  -1.579  26.582  0.00  0.00    +0.210 HD
ENDBRANCH  38  39
BRANCH  38  41
ATOM     41  C   UNL     1       6.315   0.434  25.996  0.00  0.00    +0.165 C 
BRANCH  41  42
ATOM     42  O   UNL     1       5.885   1.760  26.381  0.00  0.00    -0.387 OA
ATOM     43  H   UNL     1       5.181   2.000  25.747  0.00  0.00    +0.210 HD
ENDBRANCH  41  42
BRANCH  41  44
ATOM     44  C   UNL     1       6.068   0.232  24.491  0.00  0.00    +0.158 C 
BRANCH  44  54
ATOM     45  C   UNL     1      11.211   1.051  24.078  0.00  0.00    +0.044 C 
ATOM     46  C   UNL     1      10.046   1.978  24.026  0.00  0.00    -0.042 A 
ATOM     47  C   UNL     1      10.202   3.353  23.735  0.00  0.00    -0.004 A 
ATOM     48  C   UNL     1      11.488   4.004  23.410  0.00  0.00    +0.048 C 
ATOM     49  C   UNL     1       9.069   4.112  23.562  0.00  0.00    +0.147 A 
ATOM     50  C   UNL     1       7.871   3.482  23.525  0.00  0.00    +0.130 A 
ATOM     51  N   UNL     1       6.894   4.309  23.020  0.00  0.00    -0.233 NA
ATOM     52  C   UNL     1       5.740   3.790  23.002  0.00  0.00    +0.171 A 
ATOM     53  C   UNL     1       5.430   2.406  23.651  0.00  0.00    +0.170 A 
ATOM     54  N   UNL     1       6.419   1.503  23.818  0.00  0.00    -0.319 N 
ATOM     55  N   UNL     1       4.252   2.233  24.154  0.00  0.00    -0.173 NA
ATOM     56  C   UNL     1       3.823   3.490  24.236  0.00  0.00    +0.351 A 
ATOM     57  O   UNL     1       4.042   4.167  25.237  0.00  0.00    -0.245 OA
ATOM     58  N   UNL     1       3.495   3.929  22.979  0.00  0.00    -0.272 N 
ATOM     59  H   UNL     1       2.734   4.575  23.021  0.00  0.00    +0.174 HD
ATOM     60  C   UNL     1       4.587   4.631  22.610  0.00  0.00    +0.282 A 
ATOM     61  O   UNL     1       4.613   5.803  22.296  0.00  0.00    -0.265 OA
ATOM     62  C   UNL     1       7.694   2.091  23.862  0.00  0.00    +0.073 A 
ATOM     63  C   UNL     1       8.800   1.378  24.151  0.00  0.00    +0.032 A 
BRANCH  49  64
ATOM     64  O   UNL     1       9.085   5.466  23.332  0.00  0.00    -0.504 OA
ATOM     65  H   UNL     1       9.446   5.540  22.422  0.00  0.00    +0.292 HD
ENDBRANCH  49  64
ENDBRANCH  44  54
ENDBRANCH  41  44
ENDBRANCH  38  41
ENDBRANCH  35  38
ENDBRANCH  34  35
ENDBRANCH   1  34
TORSDOF 21
ENDMDL
MODEL 9
REMARK VINA RESULT:      -6.4      3.294      8.697
REMARK  Name = 
REMARK  23 active torsions:
REMARK  status: ('A' for Active; 'I' for Inactive)
REMARK    1  A    between atoms: C_1  and  C_2
REMARK    2  A    between atoms: N_15  and  C_16
REMARK    3  A    between atoms: C_16  and  C_17
REMARK    4  A    between atoms: C_17  and  O_19
REMARK    5  A    between atoms: C_17  and  C_20
REMARK    6  A    between atoms: C_20  and  O_22
REMARK    7  A    between atoms: C_20  and  C_23
REMARK    8  A    between atoms: C_23  and  O_25
REMARK    9  A    between atoms: C_23  and  C_26
REMARK   10  A    between atoms: C_26  and  O_27
REMARK   11  A    between atoms: O_27  and  P_28
REMARK   12  A    between atoms: P_28  and  O_29
REMARK   13  A    between atoms: P_28  and  O_31
REMARK   14  A    between atoms: O_31  and  P_32
REMARK   15  A    between atoms: P_32  and  O_33
REMARK   16  A    between atoms: P_32  and  O_35
REMARK   17  A    between atoms: O_35  and  C_36
REMARK   18  A    between atoms: C_36  and  C_37
REMARK   19  A    between atoms: C_40  and  N_48
REMARK   20  A    between atoms: C_42  and  O_44
REMARK   21  A    between atoms: C_45  and  O_47
REMARK   22  A    between atoms: C_58  and  O_59
REMARK   23  A    between atoms: C_60  and  C_61
REMARK                            x       y       z     vdW  Elec       q    Type
REMARK                         _______ _______ _______ _____ _____    ______ ____
ROOT
ATOM      1  O   UNL     1       4.510  -2.358  28.426  0.00  0.00    -0.284 OA
ENDROOT
BRANCH   1   2
ATOM      2  P   UNL     1       3.171  -3.197  28.861  0.00  0.00    +0.483 P 
ATOM      3  O   UNL     1       3.551  -4.299  29.849  0.00  0.00    -0.227 OA
BRANCH   2   4
ATOM      4  O   UNL     1       2.919  -2.138  30.205  0.00  0.00    -0.302 OA
ATOM      5  H   UNL     1       1.964  -1.994  30.324  0.00  0.00    +0.222 HD
ENDBRANCH   2   4
BRANCH   2   6
ATOM      6  O   UNL     1       3.423  -4.256  27.516  0.00  0.00    -0.186 OA
BRANCH   6   7
ATOM      7  P   UNL     1       4.689  -4.866  26.763  0.00  0.00    +0.483 P 
ATOM      8  O   UNL     1       5.075  -6.085  27.533  0.00  0.00    -0.227 OA
BRANCH   7   9
ATOM      9  O   UNL     1       4.908  -3.675  25.730  0.00  0.00    -0.302 OA
ATOM     10  H   UNL     1       3.986  -3.385  25.519  0.00  0.00    +0.222 HD
ENDBRANCH   7   9
BRANCH   7  11
ATOM     11  O   UNL     1       6.167  -4.191  27.186  0.00  0.00    -0.284 OA
BRANCH  11  12
ATOM     12  C   UNL     1       7.429  -5.007  27.173  0.00  0.00    +0.206 C 
BRANCH  12  13
ATOM     13  C   UNL     1       8.760  -4.553  26.449  0.00  0.00    +0.178 C 
ATOM     14  C   UNL     1       9.170  -5.348  25.149  0.00  0.00    +0.178 C 
ATOM     15  C   UNL     1       8.571  -4.639  23.951  0.00  0.00    +0.195 C 
ATOM     16  C   UNL     1       8.225  -3.326  24.595  0.00  0.00    +0.253 C 
ATOM     17  O   UNL     1       8.669  -3.211  25.956  0.00  0.00    -0.346 OA
BRANCH  16  18
ATOM     18  N   UNL     1       8.686  -2.193  23.856  0.00  0.00    -0.286 N 
ATOM     19  C   UNL     1       9.436  -1.052  24.022  0.00  0.00    +0.167 A 
ATOM     20  N   UNL     1      10.105  -0.547  25.075  0.00  0.00    -0.216 NA
ATOM     21  C   UNL     1      10.667   0.648  24.710  0.00  0.00    +0.225 A 
ATOM     22  N   UNL     1      10.503   1.433  23.602  0.00  0.00    -0.219 NA
ATOM     23  C   UNL     1       9.809   0.894  22.630  0.00  0.00    +0.147 A 
ATOM     24  N   UNL     1       9.455   1.662  21.479  0.00  0.00    -0.341 N 
ATOM     25  H   UNL     1       9.264   1.195  20.598  0.00  0.00    +0.144 HD
ATOM     26  H   UNL     1      10.002   2.501  21.371  0.00  0.00    +0.144 HD
ATOM     27  C   UNL     1       9.395  -0.427  22.784  0.00  0.00    +0.147 A 
ATOM     28  N   UNL     1       8.896  -1.283  21.892  0.00  0.00    -0.231 NA
ATOM     29  C   UNL     1       8.386  -2.278  22.556  0.00  0.00    +0.203 A 
ENDBRANCH  16  18
BRANCH  15  30
ATOM     30  O   UNL     1       7.392  -5.249  23.394  0.00  0.00    -0.385 OA
ATOM     31  H   UNL     1       7.689  -5.984  22.757  0.00  0.00    +0.210 HD
ENDBRANCH  15  30
BRANCH  14  32
ATOM     32  O   UNL     1      10.602  -5.228  24.987  0.00  0.00    -0.386 OA
ATOM     33  H   UNL     1      11.014  -5.119  25.871  0.00  0.00    +0.210 HD
ENDBRANCH  14  32
ENDBRANCH  12  13
ENDBRANCH  11  12
ENDBRANCH   7  11
ENDBRANCH   6   7
ENDBRANCH   2   6
ENDBRANCH   1   2
BRANCH   1  34
ATOM     34  C   UNL     1       4.395  -0.976  28.091  0.00  0.00    +0.206 C 
BRANCH  34  35
ATOM     35  C   UNL     1       5.552  -0.489  27.202  0.00  0.00    +0.172 C 
BRANCH  35  36
ATOM     36  O   UNL     1       6.547  -1.511  27.081  0.00  0.00    -0.387 OA
ATOM     37  H   UNL     1       7.386  -1.126  27.397  0.00  0.00    +0.210 HD
ENDBRANCH  35  36
BRANCH  35  38
ATOM     38  C   UNL     1       5.018  -0.056  25.829  0.00  0.00    +0.175 C 
BRANCH  38  39
ATOM     39  O   UNL     1       5.273  -1.044  24.822  0.00  0.00    -0.387 OA
ATOM     40  H   UNL     1       4.835  -0.710  24.015  0.00  0.00    +0.210 HD
ENDBRANCH  38  39
BRANCH  38  41
ATOM     41  C   UNL     1       5.539   1.305  25.371  0.00  0.00    +0.165 C 
BRANCH  41  42
ATOM     42  O   UNL     1       4.878   1.601  24.120  0.00  0.00    -0.387 OA
ATOM     43  H   UNL     1       3.932   1.709  24.343  0.00  0.00    +0.210 HD
ENDBRANCH  41  42
BRANCH  41  44
ATOM     44  C   UNL     1       7.063   1.387  25.177  0.00  0.00    +0.158 C 
BRANCH  44  54
ATOM     45  C   UNL     1       6.902   2.832  30.195  0.00  0.00    +0.044 C 
ATOM     46  C   UNL     1       6.873   3.618  28.929  0.00  0.00    -0.042 A 
ATOM     47  C   UNL     1       6.888   5.032  28.930  0.00  0.00    -0.004 A 
ATOM     48  C   UNL     1       6.981   5.871  30.142  0.00  0.00    +0.048 C 
ATOM     49  C   UNL     1       7.007   5.680  27.724  0.00  0.00    +0.147 A 
ATOM     50  C   UNL     1       7.257   4.942  26.617  0.00  0.00    +0.130 A 
ATOM     51  N   UNL     1       7.674   5.738  25.576  0.00  0.00    -0.233 NA
ATOM     52  C   UNL     1       7.882   5.108  24.498  0.00  0.00    +0.171 A 
ATOM     53  C   UNL     1       7.530   3.600  24.325  0.00  0.00    +0.170 A 
ATOM     54  N   UNL     1       7.456   2.796  25.406  0.00  0.00    -0.319 N 
ATOM     55  N   UNL     1       7.164   3.202  23.149  0.00  0.00    -0.173 NA
ATOM     56  C   UNL     1       6.884   4.364  22.565  0.00  0.00    +0.351 A 
ATOM     57  O   UNL     1       5.759   4.853  22.640  0.00  0.00    -0.245 OA
ATOM     58  N   UNL     1       8.059   5.001  22.258  0.00  0.00    -0.272 N 
ATOM     59  H   UNL     1       7.957   5.538  21.422  0.00  0.00    +0.174 HD
ATOM     60  C   UNL     1       8.201   5.878  23.274  0.00  0.00    +0.282 A 
ATOM     61  O   UNL     1       8.287   7.083  23.173  0.00  0.00    -0.265 OA
ATOM     62  C   UNL     1       7.200   3.501  26.594  0.00  0.00    +0.073 A 
ATOM     63  C   UNL     1       6.963   2.871  27.761  0.00  0.00    +0.032 A 
BRANCH  49  64
ATOM     64  O   UNL     1       6.977   7.046  27.586  0.00  0.00    -0.504 OA
ATOM     65  H   UNL     1       7.649   7.221  26.893  0.00  0.00    +0.292 HD
ENDBRANCH  49  64
ENDBRANCH  44  54
ENDBRANCH  41  44
ENDBRANCH  38  41
ENDBRANCH  35  38
ENDBRANCH  34  35
ENDBRANCH   1  34
TORSDOF 21
ENDMDL
