MODEL 1
REMARK VINA RESULT:      -5.5      0.000      0.000
REMARK  Name = 
REMARK  8 active torsions:
REMARK  status: ('A' for Active; 'I' for Inactive)
REMARK    1  A    between atoms: CA_2  and  N_3
REMARK    2  A    between atoms: CA_2  and  C_11
REMARK    3  A    between atoms: CA_2  and  C_13
REMARK    4  A    between atoms: C_4  and  O_6
REMARK    5  A    between atoms: O_6  and  C_7
REMARK    6  A    between atoms: C_7  and  C_8
REMARK    7  A    between atoms: C_7  and  C_9
REMARK    8  A    between atoms: C_7  and  C_10
REMARK                            x       y       z     vdW  Elec       q    Type
REMARK                         _______ _______ _______ _____ _____    ______ ____
ROOT
ATOM      1  CA  UNL     1       8.647  -0.557  24.631  0.00  0.00    +0.142 C 
ENDROOT
BRANCH   1   2
ATOM      2  C   UNL     1       8.175   0.832  24.123  0.00  0.00    +0.016 C 
ATOM      3  C   UNL     1       7.932   0.888  22.600  0.00  0.00    +0.006 C 
ATOM      4  C   UNL     1       9.221   0.845  21.780  0.00  0.00    +0.000 C 
ATOM      5  C   UNL     1      10.225   1.907  22.211  0.00  0.00    +0.000 C 
ATOM      6  C   UNL     1      10.461   1.906  23.719  0.00  0.00    +0.000 C 
ATOM      7  C   UNL     1       9.148   1.973  24.495  0.00  0.00    +0.006 C 
ENDBRANCH   1   2
BRANCH   1   8
ATOM      8  N   UNL     1       8.052  -1.665  23.891  0.00  0.00    -0.271 N 
ATOM      9  H   UNL     1       7.045  -1.712  23.783  0.00  0.00    +0.153 HD
ATOM     10  C   UNL     1       8.795  -2.680  23.373  0.00  0.00    +0.401 C 
ATOM     11  O   UNL     1      10.008  -2.766  23.504  0.00  0.00    -0.226 OA
BRANCH  10  12
ATOM     12  O   UNL     1       8.016  -3.531  22.662  0.00  0.00    -0.445 OA
BRANCH  12  13
ATOM     13  C   UNL     1       7.420  -4.671  23.339  0.00  0.00    +0.107 C 
ATOM     14  C   UNL     1       8.335  -5.156  24.471  0.00  0.00    +0.055 C 
ATOM     15  C   UNL     1       7.333  -5.792  22.288  0.00  0.00    +0.055 C 
ATOM     16  C   UNL     1       5.996  -4.378  23.835  0.00  0.00    +0.055 C 
ENDBRANCH  12  13
ENDBRANCH  10  12
ENDBRANCH   1   8
BRANCH   1  17
ATOM     17  C   UNL     1       8.250  -0.750  26.091  0.00  0.00    +0.245 C 
ATOM     18  O   UNL     1       9.050  -0.849  27.019  0.00  0.00    -0.299 OA
ENDBRANCH   1  17
TORSDOF 5
ENDMDL
MODEL 2
REMARK VINA RESULT:      -5.4      1.821      5.592
REMARK  Name = 
REMARK  8 active torsions:
REMARK  status: ('A' for Active; 'I' for Inactive)
REMARK    1  A    between atoms: CA_2  and  N_3
REMARK    2  A    between atoms: CA_2  and  C_11
REMARK    3  A    between atoms: CA_2  and  C_13
REMARK    4  A    between atoms: C_4  and  O_6
REMARK    5  A    between atoms: O_6  and  C_7
REMARK    6  A    between atoms: C_7  and  C_8
REMARK    7  A    between atoms: C_7  and  C_9
REMARK    8  A    between atoms: C_7  and  C_10
REMARK                            x       y       z     vdW  Elec       q    Type
REMARK                         _______ _______ _______ _____ _____    ______ ____
ROOT
ATOM      1  CA  UNL     1       7.589  -3.433  22.994  0.00  0.00    +0.142 C 
ENDROOT
BRANCH   1   2
ATOM      2  C   UNL     1       6.721  -3.236  24.267  0.00  0.00    +0.016 C 
ATOM      3  C   UNL     1       7.362  -2.305  25.318  0.00  0.00    +0.006 C 
ATOM      4  C   UNL     1       8.558  -2.933  26.033  0.00  0.00    +0.000 C 
ATOM      5  C   UNL     1       8.232  -4.294  26.637  0.00  0.00    +0.000 C 
ATOM      6  C   UNL     1       7.562  -5.229  25.634  0.00  0.00    +0.000 C 
ATOM      7  C   UNL     1       6.360  -4.567  24.962  0.00  0.00    +0.006 C 
ENDBRANCH   1   2
BRANCH   1   8
ATOM      8  N   UNL     1       8.081  -2.176  22.441  0.00  0.00    -0.271 N 
ATOM      9  H   UNL     1       7.435  -1.546  21.979  0.00  0.00    +0.153 HD
ATOM     10  C   UNL     1       9.396  -1.828  22.475  0.00  0.00    +0.401 C 
ATOM     11  O   UNL     1      10.274  -2.541  22.941  0.00  0.00    -0.226 OA
BRANCH  10  12
ATOM     12  O   UNL     1       9.575  -0.580  21.977  0.00  0.00    -0.445 OA
BRANCH  12  13
ATOM     13  C   UNL     1       9.593   0.547  22.895  0.00  0.00    +0.107 C 
ATOM     14  C   UNL     1       8.178   0.832  23.416  0.00  0.00    +0.055 C 
ATOM     15  C   UNL     1      10.046   1.762  22.068  0.00  0.00    +0.055 C 
ATOM     16  C   UNL     1      10.600   0.354  24.039  0.00  0.00    +0.055 C 
ENDBRANCH  12  13
ENDBRANCH  10  12
ENDBRANCH   1   8
BRANCH   1  17
ATOM     17  C   UNL     1       6.771  -4.099  21.893  0.00  0.00    +0.245 C 
ATOM     18  O   UNL     1       5.636  -3.752  21.568  0.00  0.00    -0.299 OA
ENDBRANCH   1  17
TORSDOF 5
ENDMDL
MODEL 3
REMARK VINA RESULT:      -5.2      1.610      5.408
REMARK  Name = 
REMARK  8 active torsions:
REMARK  status: ('A' for Active; 'I' for Inactive)
REMARK    1  A    between atoms: CA_2  and  N_3
REMARK    2  A    between atoms: CA_2  and  C_11
REMARK    3  A    between atoms: CA_2  and  C_13
REMARK    4  A    between atoms: C_4  and  O_6
REMARK    5  A    between atoms: O_6  and  C_7
REMARK    6  A    between atoms: C_7  and  C_8
REMARK    7  A    between atoms: C_7  and  C_9
REMARK    8  A    between atoms: C_7  and  C_10
REMARK                            x       y       z     vdW  Elec       q    Type
REMARK                         _______ _______ _______ _____ _____    ______ ____
ROOT
ATOM      1  CA  UNL     1       8.503  -3.613  24.512  0.00  0.00    +0.142 C 
ENDROOT
BRANCH   1   2
ATOM      2  C   UNL     1       7.725  -4.438  23.451  0.00  0.00    +0.016 C 
ATOM      3  C   UNL     1       7.167  -3.589  22.290  0.00  0.00    +0.006 C 
ATOM      4  C   UNL     1       5.991  -2.703  22.699  0.00  0.00    +0.000 C 
ATOM      5  C   UNL     1       4.879  -3.486  23.386  0.00  0.00    +0.000 C 
ATOM      6  C   UNL     1       5.401  -4.367  24.517  0.00  0.00    +0.000 C 
ATOM      7  C   UNL     1       6.559  -5.250  24.056  0.00  0.00    +0.006 C 
ENDBRANCH   1   2
BRANCH   1   8
ATOM      8  N   UNL     1       9.280  -2.525  23.928  0.00  0.00    -0.271 N 
ATOM      9  H   UNL     1       9.780  -2.677  23.060  0.00  0.00    +0.153 HD
ATOM     10  C   UNL     1       9.404  -1.310  24.530  0.00  0.00    +0.401 C 
ATOM     11  O   UNL     1       8.904  -1.037  25.612  0.00  0.00    -0.226 OA
BRANCH  10  12
ATOM     12  O   UNL     1      10.100  -0.454  23.743  0.00  0.00    -0.445 OA
BRANCH  12  13
ATOM     13  C   UNL     1       9.378   0.357  22.777  0.00  0.00    +0.107 C 
ATOM     14  C   UNL     1       9.486  -0.260  21.376  0.00  0.00    +0.055 C 
ATOM     15  C   UNL     1      10.092   1.720  22.749  0.00  0.00    +0.055 C 
ATOM     16  C   UNL     1       7.918   0.598  23.189  0.00  0.00    +0.055 C 
ENDBRANCH  12  13
ENDBRANCH  10  12
ENDBRANCH   1   8
BRANCH   1  17
ATOM     17  C   UNL     1       9.495  -4.503  25.253  0.00  0.00    +0.245 C 
ATOM     18  O   UNL     1       9.889  -5.593  24.841  0.00  0.00    -0.299 OA
ENDBRANCH   1  17
TORSDOF 5
ENDMDL
MODEL 4
REMARK VINA RESULT:      -5.2      1.809      2.736
REMARK  Name = 
REMARK  8 active torsions:
REMARK  status: ('A' for Active; 'I' for Inactive)
REMARK    1  A    between atoms: CA_2  and  N_3
REMARK    2  A    between atoms: CA_2  and  C_11
REMARK    3  A    between atoms: CA_2  and  C_13
REMARK    4  A    between atoms: C_4  and  O_6
REMARK    5  A    between atoms: O_6  and  C_7
REMARK    6  A    between atoms: C_7  and  C_8
REMARK    7  A    between atoms: C_7  and  C_9
REMARK    8  A    between atoms: C_7  and  C_10
REMARK                            x       y       z     vdW  Elec       q    Type
REMARK                         _______ _______ _______ _____ _____    ______ ____
ROOT
ATOM      1  CA  UNL     1       8.989  -1.187  23.986  0.00  0.00    +0.142 C 
ENDROOT
BRANCH   1   2
ATOM      2  C   UNL     1       9.484  -0.296  25.158  0.00  0.00    +0.016 C 
ATOM      3  C   UNL     1       8.415   0.682  25.690  0.00  0.00    +0.006 C 
ATOM      4  C   UNL     1       8.114   1.831  24.729  0.00  0.00    +0.000 C 
ATOM      5  C   UNL     1       9.370   2.579  24.297  0.00  0.00    +0.000 C 
ATOM      6  C   UNL     1      10.464   1.638  23.800  0.00  0.00    +0.000 C 
ATOM      7  C   UNL     1      10.746   0.521  24.802  0.00  0.00    +0.006 C 
ENDBRANCH   1   2
BRANCH   1   8
ATOM      8  N   UNL     1       8.009  -2.184  24.405  0.00  0.00    -0.271 N 
ATOM      9  H   UNL     1       8.155  -2.698  25.266  0.00  0.00    +0.153 HD
ATOM     10  C   UNL     1       6.916  -2.494  23.656  0.00  0.00    +0.401 C 
ATOM     11  O   UNL     1       6.676  -1.990  22.567  0.00  0.00    -0.226 OA
BRANCH  10  12
ATOM     12  O   UNL     1       6.125  -3.381  24.307  0.00  0.00    -0.445 OA
BRANCH  12  13
ATOM     13  C   UNL     1       6.108  -4.766  23.863  0.00  0.00    +0.107 C 
ATOM     14  C   UNL     1       4.926  -5.007  22.916  0.00  0.00    +0.055 C 
ATOM     15  C   UNL     1       5.882  -5.614  25.127  0.00  0.00    +0.055 C 
ATOM     16  C   UNL     1       7.444  -5.196  23.239  0.00  0.00    +0.055 C 
ENDBRANCH  12  13
ENDBRANCH  10  12
ENDBRANCH   1   8
BRANCH   1  17
ATOM     17  C   UNL     1      10.155  -1.957  23.377  0.00  0.00    +0.245 C 
ATOM     18  O   UNL     1      10.521  -1.849  22.208  0.00  0.00    -0.299 OA
ENDBRANCH   1  17
TORSDOF 5
ENDMDL
MODEL 5
REMARK VINA RESULT:      -5.1      1.941      5.999
REMARK  Name = 
REMARK  8 active torsions:
REMARK  status: ('A' for Active; 'I' for Inactive)
REMARK    1  A    between atoms: CA_2  and  N_3
REMARK    2  A    between atoms: CA_2  and  C_11
REMARK    3  A    between atoms: CA_2  and  C_13
REMARK    4  A    between atoms: C_4  and  O_6
REMARK    5  A    between atoms: O_6  and  C_7
REMARK    6  A    between atoms: C_7  and  C_8
REMARK    7  A    between atoms: C_7  and  C_9
REMARK    8  A    between atoms: C_7  and  C_10
REMARK                            x       y       z     vdW  Elec       q    Type
REMARK                         _______ _______ _______ _____ _____    ______ ____
ROOT
ATOM      1  CA  UNL     1       9.154  -1.907  24.292  0.00  0.00    +0.142 C 
ENDROOT
BRANCH   1   2
ATOM      2  C   UNL     1       8.025  -2.965  24.158  0.00  0.00    +0.016 C 
ATOM      3  C   UNL     1       6.912  -2.825  25.218  0.00  0.00    +0.006 C 
ATOM      4  C   UNL     1       7.357  -3.240  26.620  0.00  0.00    +0.000 C 
ATOM      5  C   UNL     1       7.967  -4.636  26.651  0.00  0.00    +0.000 C 
ATOM      6  C   UNL     1       9.047  -4.822  25.589  0.00  0.00    +0.000 C 
ATOM      7  C   UNL     1       8.550  -4.416  24.203  0.00  0.00    +0.006 C 
ENDBRANCH   1   2
BRANCH   1   8
ATOM      8  N   UNL     1       8.693  -0.547  24.034  0.00  0.00    -0.271 N 
ATOM      9  H   UNL     1       7.868  -0.398  23.463  0.00  0.00    +0.153 HD
ATOM     10  C   UNL     1       9.357   0.549  24.491  0.00  0.00    +0.401 C 
ATOM     11  O   UNL     1      10.401   0.492  25.127  0.00  0.00    -0.226 OA
BRANCH  10  12
ATOM     12  O   UNL     1       8.677   1.682  24.191  0.00  0.00    -0.445 OA
BRANCH  12  13
ATOM     13  C   UNL     1       9.164   2.530  23.115  0.00  0.00    +0.107 C 
ATOM     14  C   UNL     1       9.990   3.691  23.684  0.00  0.00    +0.055 C 
ATOM     15  C   UNL     1       7.914   3.123  22.442  0.00  0.00    +0.055 C 
ATOM     16  C   UNL     1       9.941   1.738  22.052  0.00  0.00    +0.055 C 
ENDBRANCH  12  13
ENDBRANCH  10  12
ENDBRANCH   1   8
BRANCH   1  17
ATOM     17  C   UNL     1      10.263  -2.186  23.284  0.00  0.00    +0.245 C 
ATOM     18  O   UNL     1      10.209  -1.883  22.093  0.00  0.00    -0.299 OA
ENDBRANCH   1  17
TORSDOF 5
ENDMDL
MODEL 6
REMARK VINA RESULT:      -5.1      1.724      5.826
REMARK  Name = 
REMARK  8 active torsions:
REMARK  status: ('A' for Active; 'I' for Inactive)
REMARK    1  A    between atoms: CA_2  and  N_3
REMARK    2  A    between atoms: CA_2  and  C_11
REMARK    3  A    between atoms: CA_2  and  C_13
REMARK    4  A    between atoms: C_4  and  O_6
REMARK    5  A    between atoms: O_6  and  C_7
REMARK    6  A    between atoms: C_7  and  C_8
REMARK    7  A    between atoms: C_7  and  C_9
REMARK    8  A    between atoms: C_7  and  C_10
REMARK                            x       y       z     vdW  Elec       q    Type
REMARK                         _______ _______ _______ _____ _____    ______ ____
ROOT
ATOM      1  CA  UNL     1       6.601  -3.046  24.209  0.00  0.00    +0.142 C 
ENDROOT
BRANCH   1   2
ATOM      2  C   UNL     1       6.819  -4.568  24.425  0.00  0.00    +0.016 C 
ATOM      3  C   UNL     1       7.793  -5.207  23.413  0.00  0.00    +0.006 C 
ATOM      4  C   UNL     1       7.212  -5.325  22.005  0.00  0.00    +0.000 C 
ATOM      5  C   UNL     1       5.863  -6.035  21.986  0.00  0.00    +0.000 C 
ATOM      6  C   UNL     1       4.886  -5.452  23.002  0.00  0.00    +0.000 C 
ATOM      7  C   UNL     1       5.502  -5.375  24.398  0.00  0.00    +0.006 C 
ENDBRANCH   1   2
BRANCH   1   8
ATOM      8  N   UNL     1       7.832  -2.272  24.336  0.00  0.00    -0.271 N 
ATOM      9  H   UNL     1       8.243  -2.133  25.252  0.00  0.00    +0.153 HD
ATOM     10  C   UNL     1       8.435  -1.679  23.270  0.00  0.00    +0.401 C 
ATOM     11  O   UNL     1       7.991  -1.719  22.132  0.00  0.00    -0.226 OA
BRANCH  10  12
ATOM     12  O   UNL     1       9.602  -1.099  23.642  0.00  0.00    -0.445 OA
BRANCH  12  13
ATOM     13  C   UNL     1       9.706   0.351  23.617  0.00  0.00    +0.107 C 
ATOM     14  C   UNL     1       9.999   0.839  22.191  0.00  0.00    +0.055 C 
ATOM     15  C   UNL     1      10.918   0.706  24.496  0.00  0.00    +0.055 C 
ATOM     16  C   UNL     1       8.470   1.037  24.218  0.00  0.00    +0.055 C 
ENDBRANCH  12  13
ENDBRANCH  10  12
ENDBRANCH   1   8
BRANCH   1  17
ATOM     17  C   UNL     1       5.635  -2.495  25.252  0.00  0.00    +0.245 C 
ATOM     18  O   UNL     1       4.904  -1.522  25.074  0.00  0.00    -0.299 OA
ENDBRANCH   1  17
TORSDOF 5
ENDMDL
MODEL 7
REMARK VINA RESULT:      -5.0      1.920      2.263
REMARK  Name = 
REMARK  8 active torsions:
REMARK  status: ('A' for Active; 'I' for Inactive)
REMARK    1  A    between atoms: CA_2  and  N_3
REMARK    2  A    between atoms: CA_2  and  C_11
REMARK    3  A    between atoms: CA_2  and  C_13
REMARK    4  A    between atoms: C_4  and  O_6
REMARK    5  A    between atoms: O_6  and  C_7
REMARK    6  A    between atoms: C_7  and  C_8
REMARK    7  A    between atoms: C_7  and  C_9
REMARK    8  A    between atoms: C_7  and  C_10
REMARK                            x       y       z     vdW  Elec       q    Type
REMARK                         _______ _______ _______ _____ _____    ______ ____
ROOT
ATOM      1  CA  UNL     1       7.096   1.060  23.507  0.00  0.00    +0.142 C 
ENDROOT
BRANCH   1   2
ATOM      2  C   UNL     1       7.604   2.070  22.442  0.00  0.00    +0.016 C 
ATOM      3  C   UNL     1       8.700   1.498  21.517  0.00  0.00    +0.006 C 
ATOM      4  C   UNL     1      10.045   1.310  22.217  0.00  0.00    +0.000 C 
ATOM      5  C   UNL     1      10.526   2.577  22.913  0.00  0.00    +0.000 C 
ATOM      6  C   UNL     1       9.453   3.191  23.809  0.00  0.00    +0.000 C 
ATOM      7  C   UNL     1       8.135   3.381  23.061  0.00  0.00    +0.006 C 
ENDBRANCH   1   2
BRANCH   1   8
ATOM      8  N   UNL     1       6.794  -0.253  22.947  0.00  0.00    -0.271 N 
ATOM      9  H   UNL     1       5.982  -0.368  22.351  0.00  0.00    +0.153 HD
ATOM     10  C   UNL     1       7.537  -1.357  23.231  0.00  0.00    +0.401 C 
ATOM     11  O   UNL     1       8.494  -1.352  23.993  0.00  0.00    -0.226 OA
BRANCH  10  12
ATOM     12  O   UNL     1       7.101  -2.424  22.519  0.00  0.00    -0.445 OA
BRANCH  12  13
ATOM     13  C   UNL     1       6.548  -3.566  23.230  0.00  0.00    +0.107 C 
ATOM     14  C   UNL     1       7.660  -4.562  23.585  0.00  0.00    +0.055 C 
ATOM     15  C   UNL     1       5.591  -4.258  22.245  0.00  0.00    +0.055 C 
ATOM     16  C   UNL     1       5.734  -3.148  24.464  0.00  0.00    +0.055 C 
ENDBRANCH  12  13
ENDBRANCH  10  12
ENDBRANCH   1   8
BRANCH   1  17
ATOM     17  C   UNL     1       5.805   1.566  24.143  0.00  0.00    +0.245 C 
ATOM     18  O   UNL     1       5.068   0.883  24.852  0.00  0.00    -0.299 OA
ENDBRANCH   1  17
TORSDOF 5
ENDMDL
MODEL 8
REMARK VINA RESULT:      -5.0      2.005      3.330
REMARK  Name = 
REMARK  8 active torsions:
REMARK  status: ('A' for Active; 'I' for Inactive)
REMARK    1  A    between atoms: CA_2  and  N_3
REMARK    2  A    between atoms: CA_2  and  C_11
REMARK    3  A    between atoms: CA_2  and  C_13
REMARK    4  A    between atoms: C_4  and  O_6
REMARK    5  A    between atoms: O_6  and  C_7
REMARK    6  A    between atoms: C_7  and  C_8
REMARK    7  A    between atoms: C_7  and  C_9
REMARK    8  A    between atoms: C_7  and  C_10
REMARK                            x       y       z     vdW  Elec       q    Type
REMARK                         _______ _______ _______ _____ _____    ______ ____
ROOT
ATOM      1  CA  UNL     1       8.400  -1.291  23.572  0.00  0.00    +0.142 C 
ENDROOT
BRANCH   1   2
ATOM      2  C   UNL     1       9.874  -0.919  23.256  0.00  0.00    +0.016 C 
ATOM      3  C   UNL     1      10.513   0.028  24.294  0.00  0.00    +0.006 C 
ATOM      4  C   UNL     1       9.968   1.454  24.227  0.00  0.00    +0.000 C 
ATOM      5  C   UNL     1      10.049   2.047  22.825  0.00  0.00    +0.000 C 
ATOM      6  C   UNL     1       9.460   1.119  21.767  0.00  0.00    +0.000 C 
ATOM      7  C   UNL     1      10.049  -0.287  21.858  0.00  0.00    +0.006 C 
ENDBRANCH   1   2
BRANCH   1   8
ATOM      8  N   UNL     1       8.266  -2.120  24.766  0.00  0.00    -0.271 N 
ATOM      9  H   UNL     1       8.978  -2.809  24.979  0.00  0.00    +0.153 HD
ATOM     10  C   UNL     1       7.187  -2.043  25.592  0.00  0.00    +0.401 C 
ATOM     11  O   UNL     1       6.235  -1.300  25.395  0.00  0.00    -0.226 OA
BRANCH  10  12
ATOM     12  O   UNL     1       7.349  -2.851  26.668  0.00  0.00    -0.445 OA
BRANCH  12  13
ATOM     13  C   UNL     1       6.777  -4.188  26.634  0.00  0.00    +0.107 C 
ATOM     14  C   UNL     1       5.796  -4.376  27.799  0.00  0.00    +0.055 C 
ATOM     15  C   UNL     1       7.953  -5.157  26.845  0.00  0.00    +0.055 C 
ATOM     16  C   UNL     1       6.132  -4.515  25.279  0.00  0.00    +0.055 C 
ENDBRANCH  12  13
ENDBRANCH  10  12
ENDBRANCH   1   8
BRANCH   1  17
ATOM     17  C   UNL     1       7.796  -2.090  22.422  0.00  0.00    +0.245 C 
ATOM     18  O   UNL     1       7.843  -3.315  22.330  0.00  0.00    -0.299 OA
ENDBRANCH   1  17
TORSDOF 5
ENDMDL
MODEL 9
REMARK VINA RESULT:      -4.8      1.717      2.543
REMARK  Name = 
REMARK  8 active torsions:
REMARK  status: ('A' for Active; 'I' for Inactive)
REMARK    1  A    between atoms: CA_2  and  N_3
REMARK    2  A    between atoms: CA_2  and  C_11
REMARK    3  A    between atoms: CA_2  and  C_13
REMARK    4  A    between atoms: C_4  and  O_6
REMARK    5  A    between atoms: O_6  and  C_7
REMARK    6  A    between atoms: C_7  and  C_8
REMARK    7  A    between atoms: C_7  and  C_9
REMARK    8  A    between atoms: C_7  and  C_10
REMARK                            x       y       z     vdW  Elec       q    Type
REMARK                         _______ _______ _______ _____ _____    ______ ____
ROOT
ATOM      1  CA  UNL     1       9.163  -0.762  23.989  0.00  0.00    +0.142 C 
ENDROOT
BRANCH   1   2
ATOM      2  C   UNL     1       9.644   0.521  24.720  0.00  0.00    +0.016 C 
ATOM      3  C   UNL     1       8.498   1.474  25.121  0.00  0.00    +0.006 C 
ATOM      4  C   UNL     1       7.864   2.193  23.931  0.00  0.00    +0.000 C 
ATOM      5  C   UNL     1       8.892   2.911  23.065  0.00  0.00    +0.000 C 
ATOM      6  C   UNL     1      10.060   2.008  22.680  0.00  0.00    +0.000 C 
ATOM      7  C   UNL     1      10.675   1.329  23.903  0.00  0.00    +0.006 C 
ENDBRANCH   1   2
BRANCH   1   8
ATOM      8  N   UNL     1       8.575  -1.744  24.893  0.00  0.00    -0.271 N 
ATOM      9  H   UNL     1       9.002  -1.913  25.797  0.00  0.00    +0.153 HD
ATOM     10  C   UNL     1       7.489  -2.492  24.554  0.00  0.00    +0.401 C 
ATOM     11  O   UNL     1       6.935  -2.425  23.466  0.00  0.00    -0.226 OA
BRANCH  10  12
ATOM     12  O   UNL     1       7.091  -3.260  25.597  0.00  0.00    -0.445 OA
BRANCH  12  13
ATOM     13  C   UNL     1       7.273  -4.700  25.519  0.00  0.00    +0.107 C 
ATOM     14  C   UNL     1       7.636  -5.267  26.898  0.00  0.00    +0.055 C 
ATOM     15  C   UNL     1       8.473  -4.927  24.584  0.00  0.00    +0.055 C 
ATOM     16  C   UNL     1       6.057  -5.411  24.906  0.00  0.00    +0.055 C 
ENDBRANCH  12  13
ENDBRANCH  10  12
ENDBRANCH   1   8
BRANCH   1  17
ATOM     17  C   UNL     1      10.338  -1.454  23.306  0.00  0.00    +0.245 C 
ATOM     18  O   UNL     1      10.365  -1.757  22.114  0.00  0.00    -0.299 OA
ENDBRANCH   1  17
TORSDOF 5
ENDMDL
