MODEL 1
REMARK VINA RESULT:      -6.6      0.000      0.000
REMARK  Name = 
REMARK  6 active torsions:
REMARK  status: ('A' for Active; 'I' for Inactive)
REMARK    1  A    between atoms: C_2  and  C_19
REMARK    2  A    between atoms: N_6  and  C_7
REMARK    3  A    between atoms: C_8  and  C_9
REMARK    4  A    between atoms: C_10  and  C_11
REMARK    5  A    between atoms: C_11  and  C_13
REMARK    6  A    between atoms: C_21  and  O_22
REMARK                            x       y       z     vdW  Elec       q    Type
REMARK                         _______ _______ _______ _____ _____    ______ ____
ROOT
ATOM      1  C   UNL     1       7.717  -2.802  26.119  0.00  0.00    +0.138 C 
ATOM      2  C   UNL     1       8.083  -3.429  24.805  0.00  0.00    +0.041 C 
ATOM      3  C   UNL     1       7.202  -4.271  24.194  0.00  0.00    +0.018 C 
ATOM      4  C   UNL     1       7.387  -4.733  22.757  0.00  0.00    +0.061 C 
ATOM      5  N   UNL     1       6.045  -4.717  24.894  0.00  0.00    -0.289 N 
ATOM      6  C   UNL     1       5.100  -5.617  24.204  0.00  0.00    +0.137 C 
ATOM      7  C   UNL     1       5.839  -4.410  26.243  0.00  0.00    +0.137 C 
ATOM      8  S   UNL     1       4.587  -4.904  27.243  0.00  0.00    -0.018 S 
ATOM      9  N   UNL     1       6.775  -3.625  26.832  0.00  0.00    -0.315 N 
ATOM     10  H   UNL     1       6.569  -3.372  27.789  0.00  0.00    +0.149 HD
ENDROOT
BRANCH   1  11
ATOM     11  C   UNL     1       7.202  -1.374  26.010  0.00  0.00    -0.019 A 
ATOM     12  C   UNL     1       6.340  -1.023  24.960  0.00  0.00    +0.006 A 
ATOM     13  C   UNL     1       5.884   0.288  24.818  0.00  0.00    +0.004 A 
ATOM     14  C   UNL     1       6.283   1.267  25.726  0.00  0.00    +0.045 A 
ATOM     15  C   UNL     1       7.128   0.927  26.772  0.00  0.00    +0.117 A 
ATOM     16  C   UNL     1       7.591  -0.377  26.923  0.00  0.00    +0.051 A 
BRANCH  15  17
ATOM     17  O   UNL     1       7.489   1.913  27.643  0.00  0.00    -0.507 OA
ATOM     18  H   UNL     1       7.983   2.593  27.155  0.00  0.00    +0.292 HD
ENDBRANCH  15  17
ENDBRANCH   1  11
BRANCH   2  19
ATOM     19  C   UNL     1       9.394  -3.021  24.153  0.00  0.00    +0.193 C 
ATOM     20  O   UNL     1      10.388  -3.745  24.187  0.00  0.00    -0.287 OA
BRANCH  19  21
ATOM     21  C   UNL     1       9.553  -1.738  23.399  0.00  0.00    +0.022 A 
ATOM     22  C   UNL     1      10.085  -0.637  24.093  0.00  0.00    +0.012 A 
ATOM     23  C   UNL     1      10.281   0.591  23.452  0.00  0.00    +0.001 A 
ATOM     24  C   UNL     1       9.958   0.729  22.105  0.00  0.00    +0.000 A 
ATOM     25  C   UNL     1       9.379  -0.336  21.420  0.00  0.00    +0.001 A 
ATOM     26  C   UNL     1       9.134  -1.550  22.077  0.00  0.00    +0.012 A 
ENDBRANCH  19  21
ENDBRANCH   2  19
TORSDOF 4
ENDMDL
MODEL 2
REMARK VINA RESULT:      -6.6      2.563      4.346
REMARK  Name = 
REMARK  6 active torsions:
REMARK  status: ('A' for Active; 'I' for Inactive)
REMARK    1  A    between atoms: C_2  and  C_19
REMARK    2  A    between atoms: N_6  and  C_7
REMARK    3  A    between atoms: C_8  and  C_9
REMARK    4  A    between atoms: C_10  and  C_11
REMARK    5  A    between atoms: C_11  and  C_13
REMARK    6  A    between atoms: C_21  and  O_22
REMARK                            x       y       z     vdW  Elec       q    Type
REMARK                         _______ _______ _______ _____ _____    ______ ____
ROOT
ATOM      1  C   UNL     1       8.837  -0.756  25.205  0.00  0.00    +0.138 C 
ATOM      2  C   UNL     1       8.110  -2.069  25.171  0.00  0.00    +0.041 C 
ATOM      3  C   UNL     1       6.959  -2.219  25.888  0.00  0.00    +0.018 C 
ATOM      4  C   UNL     1       6.037  -3.413  25.701  0.00  0.00    +0.061 C 
ATOM      5  N   UNL     1       6.571  -1.217  26.823  0.00  0.00    -0.289 N 
ATOM      6  C   UNL     1       5.314  -1.396  27.575  0.00  0.00    +0.137 C 
ATOM      7  C   UNL     1       7.399  -0.129  27.120  0.00  0.00    +0.137 C 
ATOM      8  S   UNL     1       7.146   1.096  28.235  0.00  0.00    -0.018 S 
ATOM      9  N   UNL     1       8.566  -0.055  26.432  0.00  0.00    -0.315 N 
ATOM     10  H   UNL     1       9.114   0.772  26.625  0.00  0.00    +0.149 HD
ENDROOT
BRANCH   1  11
ATOM     11  C   UNL     1       8.567   0.141  24.006  0.00  0.00    -0.019 A 
ATOM     12  C   UNL     1       7.254   0.300  23.537  0.00  0.00    +0.006 A 
ATOM     13  C   UNL     1       6.985   1.088  22.418  0.00  0.00    +0.004 A 
ATOM     14  C   UNL     1       8.028   1.729  21.752  0.00  0.00    +0.045 A 
ATOM     15  C   UNL     1       9.328   1.585  22.213  0.00  0.00    +0.117 A 
ATOM     16  C   UNL     1       9.609   0.799  23.327  0.00  0.00    +0.051 A 
BRANCH  15  17
ATOM     17  O   UNL     1      10.318   2.235  21.536  0.00  0.00    -0.507 OA
ATOM     18  H   UNL     1      11.174   1.985  21.922  0.00  0.00    +0.292 HD
ENDBRANCH  15  17
ENDBRANCH   1  11
BRANCH   2  19
ATOM     19  C   UNL     1       8.635  -3.161  24.253  0.00  0.00    +0.193 C 
ATOM     20  O   UNL     1       9.790  -3.576  24.336  0.00  0.00    -0.287 OA
BRANCH  19  21
ATOM     21  C   UNL     1       7.781  -3.825  23.220  0.00  0.00    +0.022 A 
ATOM     22  C   UNL     1       7.819  -5.229  23.147  0.00  0.00    +0.012 A 
ATOM     23  C   UNL     1       7.035  -5.922  22.220  0.00  0.00    +0.001 A 
ATOM     24  C   UNL     1       6.194  -5.221  21.360  0.00  0.00    +0.000 A 
ATOM     25  C   UNL     1       6.188  -3.828  21.383  0.00  0.00    +0.001 A 
ATOM     26  C   UNL     1       7.012  -3.132  22.277  0.00  0.00    +0.012 A 
ENDBRANCH  19  21
ENDBRANCH   2  19
TORSDOF 4
ENDMDL
MODEL 3
REMARK VINA RESULT:      -6.5      1.150      1.805
REMARK  Name = 
REMARK  6 active torsions:
REMARK  status: ('A' for Active; 'I' for Inactive)
REMARK    1  A    between atoms: C_2  and  C_19
REMARK    2  A    between atoms: N_6  and  C_7
REMARK    3  A    between atoms: C_8  and  C_9
REMARK    4  A    between atoms: C_10  and  C_11
REMARK    5  A    between atoms: C_11  and  C_13
REMARK    6  A    between atoms: C_21  and  O_22
REMARK                            x       y       z     vdW  Elec       q    Type
REMARK                         _______ _______ _______ _____ _____    ______ ____
ROOT
ATOM      1  C   UNL     1       7.671  -2.252  25.871  0.00  0.00    +0.138 C 
ATOM      2  C   UNL     1       8.050  -2.788  24.521  0.00  0.00    +0.041 C 
ATOM      3  C   UNL     1       7.162  -3.558  23.829  0.00  0.00    +0.018 C 
ATOM      4  C   UNL     1       7.368  -3.915  22.366  0.00  0.00    +0.061 C 
ATOM      5  N   UNL     1       5.979  -4.024  24.470  0.00  0.00    -0.289 N 
ATOM      6  C   UNL     1       5.028  -4.844  23.695  0.00  0.00    +0.137 C 
ATOM      7  C   UNL     1       5.751  -3.815  25.834  0.00  0.00    +0.137 C 
ATOM      8  S   UNL     1       4.466  -4.349  26.768  0.00  0.00    -0.018 S 
ATOM      9  N   UNL     1       6.693  -3.101  26.499  0.00  0.00    -0.315 N 
ATOM     10  H   UNL     1       6.472  -2.916  27.469  0.00  0.00    +0.149 HD
ENDROOT
BRANCH   1  11
ATOM     11  C   UNL     1       7.194  -0.806  25.860  0.00  0.00    -0.019 A 
ATOM     12  C   UNL     1       7.628   0.077  26.862  0.00  0.00    +0.006 A 
ATOM     13  C   UNL     1       7.177   1.397  26.894  0.00  0.00    +0.004 A 
ATOM     14  C   UNL     1       6.286   1.852  25.924  0.00  0.00    +0.045 A 
ATOM     15  C   UNL     1       5.860   0.989  24.925  0.00  0.00    +0.117 A 
ATOM     16  C   UNL     1       6.301  -0.331  24.884  0.00  0.00    +0.051 A 
BRANCH  15  17
ATOM     17  O   UNL     1       4.994   1.476  23.991  0.00  0.00    -0.507 OA
ATOM     18  H   UNL     1       4.331   0.793  23.795  0.00  0.00    +0.292 HD
ENDBRANCH  15  17
ENDBRANCH   1  11
BRANCH   2  19
ATOM     19  C   UNL     1       9.385  -2.367  23.928  0.00  0.00    +0.193 C 
ATOM     20  O   UNL     1      10.326  -3.153  23.827  0.00  0.00    -0.287 OA
BRANCH  19  21
ATOM     21  C   UNL     1       9.632  -0.990  23.397  0.00  0.00    +0.022 A 
ATOM     22  C   UNL     1       9.250  -0.724  22.071  0.00  0.00    +0.012 A 
ATOM     23  C   UNL     1       9.432   0.544  21.509  0.00  0.00    +0.001 A 
ATOM     24  C   UNL     1       9.989   1.566  22.272  0.00  0.00    +0.000 A 
ATOM     25  C   UNL     1      10.424   1.303  23.569  0.00  0.00    +0.001 A 
ATOM     26  C   UNL     1      10.289   0.019  24.113  0.00  0.00    +0.012 A 
ENDBRANCH  19  21
ENDBRANCH   2  19
TORSDOF 4
ENDMDL
MODEL 4
REMARK VINA RESULT:      -6.5      3.040      4.968
REMARK  Name = 
REMARK  6 active torsions:
REMARK  status: ('A' for Active; 'I' for Inactive)
REMARK    1  A    between atoms: C_2  and  C_19
REMARK    2  A    between atoms: N_6  and  C_7
REMARK    3  A    between atoms: C_8  and  C_9
REMARK    4  A    between atoms: C_10  and  C_11
REMARK    5  A    between atoms: C_11  and  C_13
REMARK    6  A    between atoms: C_21  and  O_22
REMARK                            x       y       z     vdW  Elec       q    Type
REMARK                         _______ _______ _______ _____ _____    ______ ____
ROOT
ATOM      1  C   UNL     1       6.485  -0.813  23.464  0.00  0.00    +0.138 C 
ATOM      2  C   UNL     1       7.706  -1.563  23.016  0.00  0.00    +0.041 C 
ATOM      3  C   UNL     1       8.808  -0.870  22.609  0.00  0.00    +0.018 C 
ATOM      4  C   UNL     1      10.155  -1.543  22.393  0.00  0.00    +0.061 C 
ATOM      5  N   UNL     1       8.727   0.537  22.407  0.00  0.00    -0.289 N 
ATOM      6  C   UNL     1       9.937   1.265  21.979  0.00  0.00    +0.137 C 
ATOM      7  C   UNL     1       7.511   1.223  22.499  0.00  0.00    +0.137 C 
ATOM      8  S   UNL     1       7.210   2.849  22.223  0.00  0.00    -0.018 S 
ATOM      9  N   UNL     1       6.426   0.483  22.842  0.00  0.00    -0.315 N 
ATOM     10  H   UNL     1       5.575   1.017  22.958  0.00  0.00    +0.149 HD
ENDROOT
BRANCH   1  11
ATOM     11  C   UNL     1       6.345  -0.688  24.974  0.00  0.00    -0.019 A 
ATOM     12  C   UNL     1       5.126  -1.014  25.589  0.00  0.00    +0.006 A 
ATOM     13  C   UNL     1       4.961  -0.873  26.967  0.00  0.00    +0.004 A 
ATOM     14  C   UNL     1       6.014  -0.404  27.750  0.00  0.00    +0.045 A 
ATOM     15  C   UNL     1       7.226  -0.087  27.152  0.00  0.00    +0.117 A 
ATOM     16  C   UNL     1       7.401  -0.222  25.777  0.00  0.00    +0.051 A 
BRANCH  15  17
ATOM     17  O   UNL     1       8.233   0.361  27.954  0.00  0.00    -0.507 OA
ATOM     18  H   UNL     1       8.967   0.660  27.393  0.00  0.00    +0.292 HD
ENDBRANCH  15  17
ENDBRANCH   1  11
BRANCH   2  19
ATOM     19  C   UNL     1       7.703  -3.078  23.128  0.00  0.00    +0.193 C 
ATOM     20  O   UNL     1       7.646  -3.801  22.134  0.00  0.00    -0.287 OA
BRANCH  19  21
ATOM     21  C   UNL     1       7.803  -3.789  24.441  0.00  0.00    +0.022 A 
ATOM     22  C   UNL     1       6.652  -4.439  24.920  0.00  0.00    +0.012 A 
ATOM     23  C   UNL     1       6.672  -5.140  26.130  0.00  0.00    +0.001 A 
ATOM     24  C   UNL     1       7.848  -5.210  26.872  0.00  0.00    +0.000 A 
ATOM     25  C   UNL     1       8.980  -4.524  26.438  0.00  0.00    +0.001 A 
ATOM     26  C   UNL     1       8.945  -3.779  25.252  0.00  0.00    +0.012 A 
ENDBRANCH  19  21
ENDBRANCH   2  19
TORSDOF 4
ENDMDL
MODEL 5
REMARK VINA RESULT:      -6.3      3.070      6.254
REMARK  Name = 
REMARK  6 active torsions:
REMARK  status: ('A' for Active; 'I' for Inactive)
REMARK    1  A    between atoms: C_2  and  C_19
REMARK    2  A    between atoms: N_6  and  C_7
REMARK    3  A    between atoms: C_8  and  C_9
REMARK    4  A    between atoms: C_10  and  C_11
REMARK    5  A    between atoms: C_11  and  C_13
REMARK    6  A    between atoms: C_21  and  O_22
REMARK                            x       y       z     vdW  Elec       q    Type
REMARK                         _______ _______ _______ _____ _____    ______ ____
ROOT
ATOM      1  C   UNL     1       8.966  -3.201  23.911  0.00  0.00    +0.138 C 
ATOM      2  C   UNL     1       8.647  -2.773  25.314  0.00  0.00    +0.041 C 
ATOM      3  C   UNL     1       8.489  -1.447  25.592  0.00  0.00    +0.018 C 
ATOM      4  C   UNL     1       7.915  -0.959  26.913  0.00  0.00    +0.061 C 
ATOM      5  N   UNL     1       8.833  -0.471  24.614  0.00  0.00    -0.289 N 
ATOM      6  C   UNL     1       8.640   0.956  24.936  0.00  0.00    +0.137 C 
ATOM      7  C   UNL     1       9.446  -0.825  23.407  0.00  0.00    +0.137 C 
ATOM      8  S   UNL     1       9.986   0.181  22.180  0.00  0.00    -0.018 S 
ATOM      9  N   UNL     1       9.646  -2.151  23.200  0.00  0.00    -0.315 N 
ATOM     10  H   UNL     1      10.036  -2.379  22.295  0.00  0.00    +0.149 HD
ENDROOT
BRANCH   1  11
ATOM     11  C   UNL     1       7.765  -3.693  23.117  0.00  0.00    -0.019 A 
ATOM     12  C   UNL     1       6.835  -2.768  22.617  0.00  0.00    +0.006 A 
ATOM     13  C   UNL     1       5.706  -3.197  21.918  0.00  0.00    +0.004 A 
ATOM     14  C   UNL     1       5.492  -4.557  21.708  0.00  0.00    +0.045 A 
ATOM     15  C   UNL     1       6.410  -5.479  22.191  0.00  0.00    +0.117 A 
ATOM     16  C   UNL     1       7.539  -5.063  22.892  0.00  0.00    +0.051 A 
BRANCH  15  17
ATOM     17  O   UNL     1       6.167  -6.800  21.959  0.00  0.00    -0.507 OA
ATOM     18  H   UNL     1       6.659  -7.072  21.166  0.00  0.00    +0.292 HD
ENDBRANCH  15  17
ENDBRANCH   1  11
BRANCH   2  19
ATOM     19  C   UNL     1       8.414  -3.850  26.361  0.00  0.00    +0.193 C 
ATOM     20  O   UNL     1       9.336  -4.315  27.029  0.00  0.00    -0.287 OA
BRANCH  19  21
ATOM     21  C   UNL     1       7.053  -4.388  26.674  0.00  0.00    +0.022 A 
ATOM     22  C   UNL     1       6.971  -5.482  27.552  0.00  0.00    +0.012 A 
ATOM     23  C   UNL     1       5.734  -6.029  27.907  0.00  0.00    +0.001 A 
ATOM     24  C   UNL     1       4.561  -5.481  27.395  0.00  0.00    +0.000 A 
ATOM     25  C   UNL     1       4.630  -4.433  26.480  0.00  0.00    +0.001 A 
ATOM     26  C   UNL     1       5.872  -3.919  26.085  0.00  0.00    +0.012 A 
ENDBRANCH  19  21
ENDBRANCH   2  19
TORSDOF 4
ENDMDL
MODEL 6
REMARK VINA RESULT:      -6.2      1.484      1.798
REMARK  Name = 
REMARK  6 active torsions:
REMARK  status: ('A' for Active; 'I' for Inactive)
REMARK    1  A    between atoms: C_2  and  C_19
REMARK    2  A    between atoms: N_6  and  C_7
REMARK    3  A    between atoms: C_8  and  C_9
REMARK    4  A    between atoms: C_10  and  C_11
REMARK    5  A    between atoms: C_11  and  C_13
REMARK    6  A    between atoms: C_21  and  O_22
REMARK                            x       y       z     vdW  Elec       q    Type
REMARK                         _______ _______ _______ _____ _____    ______ ____
ROOT
ATOM      1  C   UNL     1       8.158  -2.930  26.009  0.00  0.00    +0.138 C 
ATOM      2  C   UNL     1       8.360  -3.087  24.530  0.00  0.00    +0.041 C 
ATOM      3  C   UNL     1       7.532  -3.908  23.822  0.00  0.00    +0.018 C 
ATOM      4  C   UNL     1       7.507  -3.916  22.301  0.00  0.00    +0.061 C 
ATOM      5  N   UNL     1       6.628  -4.767  24.508  0.00  0.00    -0.289 N 
ATOM      6  C   UNL     1       5.734  -5.635  23.718  0.00  0.00    +0.137 C 
ATOM      7  C   UNL     1       6.642  -4.885  25.902  0.00  0.00    +0.137 C 
ATOM      8  S   UNL     1       5.715  -5.891  26.871  0.00  0.00    -0.018 S 
ATOM      9  N   UNL     1       7.529  -4.100  26.564  0.00  0.00    -0.315 N 
ATOM     10  H   UNL     1       7.474  -4.164  27.572  0.00  0.00    +0.149 HD
ENDROOT
BRANCH   1  11
ATOM     11  C   UNL     1       7.396  -1.674  26.408  0.00  0.00    -0.019 A 
ATOM     12  C   UNL     1       8.058  -0.652  27.106  0.00  0.00    +0.006 A 
ATOM     13  C   UNL     1       7.373   0.493  27.514  0.00  0.00    +0.004 A 
ATOM     14  C   UNL     1       6.016   0.631  27.229  0.00  0.00    +0.045 A 
ATOM     15  C   UNL     1       5.356  -0.370  26.533  0.00  0.00    +0.117 A 
ATOM     16  C   UNL     1       6.028  -1.518  26.122  0.00  0.00    +0.051 A 
BRANCH  15  17
ATOM     17  O   UNL     1       4.030  -0.193  26.269  0.00  0.00    -0.507 OA
ATOM     18  H   UNL     1       3.518  -0.809  26.818  0.00  0.00    +0.292 HD
ENDBRANCH  15  17
ENDBRANCH   1  11
BRANCH   2  19
ATOM     19  C   UNL     1       9.428  -2.242  23.855  0.00  0.00    +0.193 C 
ATOM     20  O   UNL     1      10.390  -2.750  23.282  0.00  0.00    -0.287 OA
BRANCH  19  21
ATOM     21  C   UNL     1       9.364  -0.748  23.811  0.00  0.00    +0.022 A 
ATOM     22  C   UNL     1      10.445  -0.033  24.357  0.00  0.00    +0.012 A 
ATOM     23  C   UNL     1      10.467   1.365  24.336  0.00  0.00    +0.001 A 
ATOM     24  C   UNL     1       9.411   2.067  23.760  0.00  0.00    +0.000 A 
ATOM     25  C   UNL     1       8.308   1.374  23.267  0.00  0.00    +0.001 A 
ATOM     26  C   UNL     1       8.264  -0.025  23.335  0.00  0.00    +0.012 A 
ENDBRANCH  19  21
ENDBRANCH   2  19
TORSDOF 4
ENDMDL
MODEL 7
REMARK VINA RESULT:      -6.0      3.350      5.430
REMARK  Name = 
REMARK  6 active torsions:
REMARK  status: ('A' for Active; 'I' for Inactive)
REMARK    1  A    between atoms: C_2  and  C_19
REMARK    2  A    between atoms: N_6  and  C_7
REMARK    3  A    between atoms: C_8  and  C_9
REMARK    4  A    between atoms: C_10  and  C_11
REMARK    5  A    between atoms: C_11  and  C_13
REMARK    6  A    between atoms: C_21  and  O_22
REMARK                            x       y       z     vdW  Elec       q    Type
REMARK                         _______ _______ _______ _____ _____    ______ ____
ROOT
ATOM      1  C   UNL     1       7.107  -0.675  23.099  0.00  0.00    +0.138 C 
ATOM      2  C   UNL     1       8.539  -0.653  23.548  0.00  0.00    +0.041 C 
ATOM      3  C   UNL     1       9.090   0.518  23.980  0.00  0.00    +0.018 C 
ATOM      4  C   UNL     1      10.435   0.567  24.688  0.00  0.00    +0.061 C 
ATOM      5  N   UNL     1       8.383   1.741  23.806  0.00  0.00    -0.289 N 
ATOM      6  C   UNL     1       8.996   2.991  24.295  0.00  0.00    +0.137 C 
ATOM      7  C   UNL     1       7.182   1.800  23.092  0.00  0.00    +0.137 C 
ATOM      8  S   UNL     1       6.256   3.147  22.722  0.00  0.00    -0.018 S 
ATOM      9  N   UNL     1       6.703   0.621  22.620  0.00  0.00    -0.315 N 
ATOM     10  H   UNL     1       5.805   0.687  22.161  0.00  0.00    +0.149 HD
ENDROOT
BRANCH   1  11
ATOM     11  C   UNL     1       6.129  -1.186  24.147  0.00  0.00    -0.019 A 
ATOM     12  C   UNL     1       5.956  -0.472  25.344  0.00  0.00    +0.006 A 
ATOM     13  C   UNL     1       5.092  -0.939  26.335  0.00  0.00    +0.004 A 
ATOM     14  C   UNL     1       4.390  -2.127  26.143  0.00  0.00    +0.045 A 
ATOM     15  C   UNL     1       4.548  -2.834  24.961  0.00  0.00    +0.117 A 
ATOM     16  C   UNL     1       5.408  -2.379  23.965  0.00  0.00    +0.051 A 
BRANCH  15  17
ATOM     17  O   UNL     1       3.836  -3.988  24.810  0.00  0.00    -0.507 OA
ATOM     18  H   UNL     1       3.964  -4.537  25.601  0.00  0.00    +0.292 HD
ENDBRANCH  15  17
ENDBRANCH   1  11
BRANCH   2  19
ATOM     19  C   UNL     1       9.300  -1.968  23.596  0.00  0.00    +0.193 C 
ATOM     20  O   UNL     1      10.306  -2.161  22.915  0.00  0.00    -0.287 OA
BRANCH  19  21
ATOM     21  C   UNL     1       8.901  -3.096  24.495  0.00  0.00    +0.022 A 
ATOM     22  C   UNL     1       8.482  -4.294  23.890  0.00  0.00    +0.012 A 
ATOM     23  C   UNL     1       8.112  -5.399  24.664  0.00  0.00    +0.001 A 
ATOM     24  C   UNL     1       8.166  -5.323  26.053  0.00  0.00    +0.000 A 
ATOM     25  C   UNL     1       8.525  -4.125  26.666  0.00  0.00    +0.001 A 
ATOM     26  C   UNL     1       8.846  -3.003  25.891  0.00  0.00    +0.012 A 
ENDBRANCH  19  21
ENDBRANCH   2  19
TORSDOF 4
ENDMDL
MODEL 8
REMARK VINA RESULT:      -5.9      3.021      6.343
REMARK  Name = 
REMARK  6 active torsions:
REMARK  status: ('A' for Active; 'I' for Inactive)
REMARK    1  A    between atoms: C_2  and  C_19
REMARK    2  A    between atoms: N_6  and  C_7
REMARK    3  A    between atoms: C_8  and  C_9
REMARK    4  A    between atoms: C_10  and  C_11
REMARK    5  A    between atoms: C_11  and  C_13
REMARK    6  A    between atoms: C_21  and  O_22
REMARK                            x       y       z     vdW  Elec       q    Type
REMARK                         _______ _______ _______ _____ _____    ______ ____
ROOT
ATOM      1  C   UNL     1       8.291  -2.071  24.336  0.00  0.00    +0.138 C 
ATOM      2  C   UNL     1       7.213  -1.321  25.063  0.00  0.00    +0.041 C 
ATOM      3  C   UNL     1       6.710  -0.175  24.522  0.00  0.00    +0.018 C 
ATOM      4  C   UNL     1       5.453   0.491  25.060  0.00  0.00    +0.061 C 
ATOM      5  N   UNL     1       7.345   0.415  23.393  0.00  0.00    -0.289 N 
ATOM      6  C   UNL     1       6.772   1.647  22.818  0.00  0.00    +0.137 C 
ATOM      7  C   UNL     1       8.551  -0.081  22.886  0.00  0.00    +0.137 C 
ATOM      8  S   UNL     1       9.477   0.522  21.625  0.00  0.00    -0.018 S 
ATOM      9  N   UNL     1       9.053  -1.183  23.498  0.00  0.00    -0.315 N 
ATOM     10  H   UNL     1       9.893  -1.552  23.073  0.00  0.00    +0.149 HD
ENDROOT
BRANCH   1  11
ATOM     11  C   UNL     1       7.793  -3.265  23.535  0.00  0.00    -0.019 A 
ATOM     12  C   UNL     1       8.207  -4.560  23.884  0.00  0.00    +0.006 A 
ATOM     13  C   UNL     1       7.792  -5.667  23.143  0.00  0.00    +0.004 A 
ATOM     14  C   UNL     1       6.956  -5.494  22.042  0.00  0.00    +0.045 A 
ATOM     15  C   UNL     1       6.534  -4.219  21.694  0.00  0.00    +0.117 A 
ATOM     16  C   UNL     1       6.943  -3.107  22.425  0.00  0.00    +0.051 A 
BRANCH  15  17
ATOM     17  O   UNL     1       5.711  -4.094  20.615  0.00  0.00    -0.507 OA
ATOM     18  H   UNL     1       4.795  -4.019  20.929  0.00  0.00    +0.292 HD
ENDBRANCH  15  17
ENDBRANCH   1  11
BRANCH   2  19
ATOM     19  C   UNL     1       6.651  -1.925  26.340  0.00  0.00    +0.193 C 
ATOM     20  O   UNL     1       6.549  -1.270  27.377  0.00  0.00    -0.287 OA
BRANCH  19  21
ATOM     21  C   UNL     1       6.153  -3.334  26.413  0.00  0.00    +0.022 A 
ATOM     22  C   UNL     1       4.996  -3.655  25.682  0.00  0.00    +0.012 A 
ATOM     23  C   UNL     1       4.480  -4.955  25.686  0.00  0.00    +0.001 A 
ATOM     24  C   UNL     1       5.123  -5.954  26.412  0.00  0.00    +0.000 A 
ATOM     25  C   UNL     1       6.237  -5.638  27.185  0.00  0.00    +0.001 A 
ATOM     26  C   UNL     1       6.723  -4.325  27.222  0.00  0.00    +0.012 A 
ENDBRANCH  19  21
ENDBRANCH   2  19
TORSDOF 4
ENDMDL
MODEL 9
REMARK VINA RESULT:      -5.9      3.023      6.421
REMARK  Name = 
REMARK  6 active torsions:
REMARK  status: ('A' for Active; 'I' for Inactive)
REMARK    1  A    between atoms: C_2  and  C_19
REMARK    2  A    between atoms: N_6  and  C_7
REMARK    3  A    between atoms: C_8  and  C_9
REMARK    4  A    between atoms: C_10  and  C_11
REMARK    5  A    between atoms: C_11  and  C_13
REMARK    6  A    between atoms: C_21  and  O_22
REMARK                            x       y       z     vdW  Elec       q    Type
REMARK                         _______ _______ _______ _____ _____    ______ ____
ROOT
ATOM      1  C   UNL     1       8.297  -3.661  24.763  0.00  0.00    +0.138 C 
ATOM      2  C   UNL     1       7.422  -3.205  25.895  0.00  0.00    +0.041 C 
ATOM      3  C   UNL     1       7.257  -1.870  26.122  0.00  0.00    +0.018 C 
ATOM      4  C   UNL     1       6.196  -1.335  27.069  0.00  0.00    +0.061 C 
ATOM      5  N   UNL     1       8.071  -0.928  25.431  0.00  0.00    -0.289 N 
ATOM      6  C   UNL     1       7.862   0.511  25.684  0.00  0.00    +0.137 C 
ATOM      7  C   UNL     1       9.126  -1.333  24.606  0.00  0.00    +0.137 C 
ATOM      8  S   UNL     1      10.228  -0.377  23.780  0.00  0.00    -0.018 S 
ATOM      9  N   UNL     1       9.298  -2.672  24.462  0.00  0.00    -0.315 N 
ATOM     10  H   UNL     1      10.029  -2.933  23.815  0.00  0.00    +0.149 HD
ENDROOT
BRANCH   1  11
ATOM     11  C   UNL     1       7.538  -4.053  23.504  0.00  0.00    -0.019 A 
ATOM     12  C   UNL     1       6.971  -3.057  22.694  0.00  0.00    +0.006 A 
ATOM     13  C   UNL     1       6.241  -3.393  21.554  0.00  0.00    +0.004 A 
ATOM     14  C   UNL     1       6.067  -4.731  21.208  0.00  0.00    +0.045 A 
ATOM     15  C   UNL     1       6.631  -5.723  21.997  0.00  0.00    +0.117 A 
ATOM     16  C   UNL     1       7.360  -5.400  23.138  0.00  0.00    +0.051 A 
BRANCH  15  17
ATOM     17  O   UNL     1       6.443  -7.019  21.619  0.00  0.00    -0.507 OA
ATOM     18  H   UNL     1       6.365  -7.567  22.417  0.00  0.00    +0.292 HD
ENDBRANCH  15  17
ENDBRANCH   1  11
BRANCH   2  19
ATOM     19  C   UNL     1       6.670  -4.258  26.693  0.00  0.00    +0.193 C 
ATOM     20  O   UNL     1       6.961  -4.517  27.860  0.00  0.00    -0.287 OA
BRANCH  19  21
ATOM     21  C   UNL     1       5.510  -5.018  26.130  0.00  0.00    +0.022 A 
ATOM     22  C   UNL     1       4.522  -4.288  25.447  0.00  0.00    +0.012 A 
ATOM     23  C   UNL     1       3.417  -4.929  24.878  0.00  0.00    +0.001 A 
ATOM     24  C   UNL     1       3.293  -6.313  24.975  0.00  0.00    +0.000 A 
ATOM     25  C   UNL     1       4.235  -7.042  25.697  0.00  0.00    +0.001 A 
ATOM     26  C   UNL     1       5.313  -6.392  26.311  0.00  0.00    +0.012 A 
ENDBRANCH  19  21
ENDBRANCH   2  19
TORSDOF 4
ENDMDL
