MODEL 1
REMARK VINA RESULT:      -7.3      0.000      0.000
REMARK  Name = 
REMARK  6 active torsions:
REMARK  status: ('A' for Active; 'I' for Inactive)
REMARK    1  A    between atoms: C_1  and  N_2
REMARK    2  A    between atoms: N_9  and  C_10
REMARK    3  A    between atoms: C_10  and  C_11
REMARK    4  A    between atoms: C_11  and  C_12
REMARK    5  A    between atoms: C_12  and  C_13
REMARK    6  A    between atoms: C_13  and  C_15
REMARK                            x       y       z     vdW  Elec       q    Type
REMARK                         _______ _______ _______ _____ _____    ______ ____
ROOT
ATOM      1  C   UNL     1       9.561  -5.272  25.371  0.00  0.00    +0.129 C 
ATOM      2  N   UNL     1       8.149  -4.936  25.540  0.00  0.00    -0.330 N 
ATOM      3  C   UNL     1       7.554  -4.338  24.408  0.00  0.00    +0.051 A 
ATOM      4  C   UNL     1       7.641  -4.859  23.116  0.00  0.00    +0.025 A 
ATOM      5  C   UNL     1       7.036  -4.179  22.037  0.00  0.00    +0.002 A 
ATOM      6  C   UNL     1       6.461  -2.897  22.201  0.00  0.00    +0.006 A 
ATOM      7  C   UNL     1       6.405  -2.354  23.474  0.00  0.00    -0.018 A 
ATOM      8  C   UNL     1       5.846  -1.053  24.049  0.00  0.00    +0.055 C 
ATOM      9  C   UNL     1       5.383  -1.612  25.409  0.00  0.00    +0.083 C 
ATOM     10  C   UNL     1       5.098  -0.634  26.516  0.00  0.00    +0.038 C 
ATOM     11  C   UNL     1       6.020   0.553  26.642  0.00  0.00    +0.086 C 
ATOM     12  N   UNL     1       6.947   0.803  25.568  0.00  0.00    -0.302 NA
ATOM     13  N   UNL     1       6.234  -2.747  25.775  0.00  0.00    -0.323 N 
ATOM     14  C   UNL     1       7.263  -2.846  26.778  0.00  0.00    +0.124 C 
ATOM     15  C   UNL     1       6.800   0.186  24.239  0.00  0.00    +0.094 C 
ATOM     16  C   UNL     1       6.792  -3.171  24.534  0.00  0.00    +0.055 A 
ATOM     17  C   UNL     1       7.745  -4.328  26.845  0.00  0.00    +0.123 C 
ENDROOT
BRANCH  12  18
ATOM     18  C   UNL     1       7.808   1.971  25.817  0.00  0.00    +0.085 C 
BRANCH  18  19
ATOM     19  C   UNL     1       7.869   2.897  24.570  0.00  0.00    +0.023 C 
BRANCH  19  20
ATOM     20  C   UNL     1       9.159   3.736  24.438  0.00  0.00    +0.081 C 
BRANCH  20  21
ATOM     21  C   UNL     1      10.258   3.080  23.597  0.00  0.00    +0.163 C 
ATOM     22  O   UNL     1      11.313   3.669  23.355  0.00  0.00    -0.292 OA
BRANCH  21  23
ATOM     23  C   UNL     1      10.113   1.658  23.101  0.00  0.00    +0.018 A 
ATOM     24  C   UNL     1       9.518   1.452  21.839  0.00  0.00    +0.014 A 
ATOM     25  C   UNL     1       9.332   0.157  21.330  0.00  0.00    +0.039 A 
ATOM     26  C   UNL     1       9.741  -0.932  22.080  0.00  0.00    +0.123 A 
ATOM     27  F   UNL     1       9.553  -2.170  21.604  0.00  0.00    -0.205 F 
ATOM     28  C   UNL     1      10.341  -0.758  23.321  0.00  0.00    +0.039 A 
ATOM     29  C   UNL     1      10.536   0.538  23.832  0.00  0.00    +0.014 A 
ENDBRANCH  21  23
ENDBRANCH  20  21
ENDBRANCH  19  20
ENDBRANCH  18  19
ENDBRANCH  12  18
TORSDOF 5
ENDMDL
MODEL 2
REMARK VINA RESULT:      -7.1      2.923      6.857
REMARK  Name = 
REMARK  6 active torsions:
REMARK  status: ('A' for Active; 'I' for Inactive)
REMARK    1  A    between atoms: C_1  and  N_2
REMARK    2  A    between atoms: N_9  and  C_10
REMARK    3  A    between atoms: C_10  and  C_11
REMARK    4  A    between atoms: C_11  and  C_12
REMARK    5  A    between atoms: C_12  and  C_13
REMARK    6  A    between atoms: C_13  and  C_15
REMARK                            x       y       z     vdW  Elec       q    Type
REMARK                         _______ _______ _______ _____ _____    ______ ____
ROOT
ATOM      1  C   UNL     1       9.644   4.938  24.575  0.00  0.00    +0.129 C 
ATOM      2  N   UNL     1       9.799   4.032  23.440  0.00  0.00    -0.330 N 
ATOM      3  C   UNL     1       8.590   3.474  22.972  0.00  0.00    +0.051 A 
ATOM      4  C   UNL     1       7.451   4.222  22.673  0.00  0.00    +0.025 A 
ATOM      5  C   UNL     1       6.275   3.576  22.235  0.00  0.00    +0.002 A 
ATOM      6  C   UNL     1       6.165   2.166  22.227  0.00  0.00    +0.006 A 
ATOM      7  C   UNL     1       7.280   1.414  22.560  0.00  0.00    -0.018 A 
ATOM      8  C   UNL     1       7.565  -0.086  22.631  0.00  0.00    +0.055 C 
ATOM      9  C   UNL     1       9.038  -0.036  22.180  0.00  0.00    +0.083 C 
ATOM     10  C   UNL     1       9.902  -1.239  22.450  0.00  0.00    +0.038 C 
ATOM     11  C   UNL     1       9.705  -1.948  23.766  0.00  0.00    +0.086 C 
ATOM     12  N   UNL     1       8.558  -1.589  24.560  0.00  0.00    -0.302 NA
ATOM     13  N   UNL     1       9.614   1.253  22.569  0.00  0.00    -0.323 N 
ATOM     14  C   UNL     1      10.562   1.567  23.608  0.00  0.00    +0.124 C 
ATOM     15  C   UNL     1       7.417  -0.842  24.006  0.00  0.00    +0.094 C 
ATOM     16  C   UNL     1       8.480   2.097  22.744  0.00  0.00    +0.055 A 
ATOM     17  C   UNL     1      10.946   3.073  23.485  0.00  0.00    +0.123 C 
ENDROOT
BRANCH  12  18
ATOM     18  C   UNL     1       8.488  -2.329  25.831  0.00  0.00    +0.085 C 
BRANCH  18  19
ATOM     19  C   UNL     1       7.033  -2.370  26.375  0.00  0.00    +0.023 C 
BRANCH  19  20
ATOM     20  C   UNL     1       6.472  -3.782  26.646  0.00  0.00    +0.081 C 
BRANCH  20  21
ATOM     21  C   UNL     1       7.164  -4.900  25.858  0.00  0.00    +0.163 C 
ATOM     22  O   UNL     1       7.988  -5.642  26.396  0.00  0.00    -0.292 OA
BRANCH  21  23
ATOM     23  C   UNL     1       6.798  -5.176  24.417  0.00  0.00    +0.018 A 
ATOM     24  C   UNL     1       7.841  -5.266  23.472  0.00  0.00    +0.014 A 
ATOM     25  C   UNL     1       7.569  -5.497  22.115  0.00  0.00    +0.039 A 
ATOM     26  C   UNL     1       6.257  -5.639  21.700  0.00  0.00    +0.123 A 
ATOM     27  F   UNL     1       5.991  -5.846  20.403  0.00  0.00    -0.205 F 
ATOM     28  C   UNL     1       5.210  -5.567  22.611  0.00  0.00    +0.039 A 
ATOM     29  C   UNL     1       5.478  -5.343  23.974  0.00  0.00    +0.014 A 
ENDBRANCH  21  23
ENDBRANCH  20  21
ENDBRANCH  19  20
ENDBRANCH  18  19
ENDBRANCH  12  18
TORSDOF 5
ENDMDL
MODEL 3
REMARK VINA RESULT:      -7.0      3.285      7.141
REMARK  Name = 
REMARK  6 active torsions:
REMARK  status: ('A' for Active; 'I' for Inactive)
REMARK    1  A    between atoms: C_1  and  N_2
REMARK    2  A    between atoms: N_9  and  C_10
REMARK    3  A    between atoms: C_10  and  C_11
REMARK    4  A    between atoms: C_11  and  C_12
REMARK    5  A    between atoms: C_12  and  C_13
REMARK    6  A    between atoms: C_13  and  C_15
REMARK                            x       y       z     vdW  Elec       q    Type
REMARK                         _______ _______ _______ _____ _____    ______ ____
ROOT
ATOM      1  C   UNL     1       6.596   2.681  25.606  0.00  0.00    +0.129 C 
ATOM      2  N   UNL     1       7.768   1.831  25.806  0.00  0.00    -0.330 N 
ATOM      3  C   UNL     1       8.628   1.754  24.689  0.00  0.00    +0.051 A 
ATOM      4  C   UNL     1       9.112   2.867  24.001  0.00  0.00    +0.025 A 
ATOM      5  C   UNL     1       9.948   2.695  22.876  0.00  0.00    +0.002 A 
ATOM      6  C   UNL     1      10.196   1.415  22.329  0.00  0.00    +0.006 A 
ATOM      7  C   UNL     1       9.686   0.305  22.984  0.00  0.00    -0.018 A 
ATOM      8  C   UNL     1       9.764  -1.201  22.736  0.00  0.00    +0.055 C 
ATOM      9  C   UNL     1       9.781  -1.650  24.210  0.00  0.00    +0.083 C 
ATOM     10  C   UNL     1       9.467  -3.090  24.515  0.00  0.00    +0.038 C 
ATOM     11  C   UNL     1       8.377  -3.745  23.705  0.00  0.00    +0.086 C 
ATOM     12  N   UNL     1       7.884  -3.043  22.547  0.00  0.00    -0.302 NA
ATOM     13  N   UNL     1       9.060  -0.664  25.019  0.00  0.00    -0.323 N 
ATOM     14  C   UNL     1       7.767  -0.749  25.648  0.00  0.00    +0.124 C 
ATOM     15  C   UNL     1       8.612  -1.919  21.936  0.00  0.00    +0.094 C 
ATOM     16  C   UNL     1       9.080   0.515  24.220  0.00  0.00    +0.055 A 
ATOM     17  C   UNL     1       7.553   0.530  26.512  0.00  0.00    +0.123 C 
ENDROOT
BRANCH  12  18
ATOM     18  C   UNL     1       6.807  -3.770  21.855  0.00  0.00    +0.085 C 
BRANCH  18  19
ATOM     19  C   UNL     1       6.951  -5.305  22.054  0.00  0.00    +0.023 C 
BRANCH  19  20
ATOM     20  C   UNL     1       5.623  -6.072  22.229  0.00  0.00    +0.081 C 
BRANCH  20  21
ATOM     21  C   UNL     1       4.639  -5.420  23.206  0.00  0.00    +0.163 C 
ATOM     22  O   UNL     1       3.533  -5.027  22.829  0.00  0.00    -0.292 OA
BRANCH  21  23
ATOM     23  C   UNL     1       4.965  -5.309  24.678  0.00  0.00    +0.018 A 
ATOM     24  C   UNL     1       5.197  -4.025  25.213  0.00  0.00    +0.014 A 
ATOM     25  C   UNL     1       5.527  -3.853  26.566  0.00  0.00    +0.039 A 
ATOM     26  C   UNL     1       5.625  -4.963  27.386  0.00  0.00    +0.123 A 
ATOM     27  F   UNL     1       5.952  -4.806  28.676  0.00  0.00    -0.205 F 
ATOM     28  C   UNL     1       5.389  -6.240  26.890  0.00  0.00    +0.039 A 
ATOM     29  C   UNL     1       5.050  -6.416  25.536  0.00  0.00    +0.014 A 
ENDBRANCH  21  23
ENDBRANCH  20  21
ENDBRANCH  19  20
ENDBRANCH  18  19
ENDBRANCH  12  18
TORSDOF 5
ENDMDL
MODEL 4
REMARK VINA RESULT:      -6.7      2.737      4.612
REMARK  Name = 
REMARK  6 active torsions:
REMARK  status: ('A' for Active; 'I' for Inactive)
REMARK    1  A    between atoms: C_1  and  N_2
REMARK    2  A    between atoms: N_9  and  C_10
REMARK    3  A    between atoms: C_10  and  C_11
REMARK    4  A    between atoms: C_11  and  C_12
REMARK    5  A    between atoms: C_12  and  C_13
REMARK    6  A    between atoms: C_13  and  C_15
REMARK                            x       y       z     vdW  Elec       q    Type
REMARK                         _______ _______ _______ _____ _____    ______ ____
ROOT
ATOM      1  C   UNL     1       3.466  -5.884  23.837  0.00  0.00    +0.129 C 
ATOM      2  N   UNL     1       4.851  -6.287  24.071  0.00  0.00    -0.330 N 
ATOM      3  C   UNL     1       5.311  -6.051  25.384  0.00  0.00    +0.051 A 
ATOM      4  C   UNL     1       4.627  -6.453  26.532  0.00  0.00    +0.025 A 
ATOM      5  C   UNL     1       5.150  -6.151  27.809  0.00  0.00    +0.002 A 
ATOM      6  C   UNL     1       6.283  -5.320  27.966  0.00  0.00    +0.006 A 
ATOM      7  C   UNL     1       6.946  -4.883  26.830  0.00  0.00    -0.018 A 
ATOM      8  C   UNL     1       8.191  -4.029  26.591  0.00  0.00    +0.055 C 
ATOM      9  C   UNL     1       8.695  -4.752  25.328  0.00  0.00    +0.083 C 
ATOM     10  C   UNL     1       9.709  -4.047  24.466  0.00  0.00    +0.038 C 
ATOM     11  C   UNL     1       9.537  -2.562  24.274  0.00  0.00    +0.086 C 
ATOM     12  N   UNL     1       8.579  -1.881  25.108  0.00  0.00    -0.302 NA
ATOM     13  N   UNL     1       7.551  -5.324  24.614  0.00  0.00    -0.323 N 
ATOM     14  C   UNL     1       6.929  -4.911  23.382  0.00  0.00    +0.124 C 
ATOM     15  C   UNL     1       8.035  -2.482  26.336  0.00  0.00    +0.094 C 
ATOM     16  C   UNL     1       6.535  -5.411  25.608  0.00  0.00    +0.055 A 
ATOM     17  C   UNL     1       5.845  -5.965  23.001  0.00  0.00    +0.123 C 
ENDROOT
BRANCH  12  18
ATOM     18  C   UNL     1       8.484  -0.442  24.809  0.00  0.00    +0.085 C 
BRANCH  18  19
ATOM     19  C   UNL     1       9.750   0.316  25.300  0.00  0.00    +0.023 C 
BRANCH  19  20
ATOM     20  C   UNL     1      10.719   0.765  24.186  0.00  0.00    +0.081 C 
BRANCH  20  21
ATOM     21  C   UNL     1      10.031   1.291  22.921  0.00  0.00    +0.163 C 
ATOM     22  O   UNL     1      10.027   0.634  21.878  0.00  0.00    -0.292 OA
BRANCH  21  23
ATOM     23  C   UNL     1       9.270   2.597  22.938  0.00  0.00    +0.018 A 
ATOM     24  C   UNL     1       9.791   3.660  23.705  0.00  0.00    +0.014 A 
ATOM     25  C   UNL     1       9.122   4.892  23.782  0.00  0.00    +0.039 A 
ATOM     26  C   UNL     1       7.935   5.064  23.092  0.00  0.00    +0.123 A 
ATOM     27  F   UNL     1       7.286   6.234  23.173  0.00  0.00    -0.205 F 
ATOM     28  C   UNL     1       7.405   4.038  22.319  0.00  0.00    +0.039 A 
ATOM     29  C   UNL     1       8.075   2.805  22.233  0.00  0.00    +0.014 A 
ENDBRANCH  21  23
ENDBRANCH  20  21
ENDBRANCH  19  20
ENDBRANCH  18  19
ENDBRANCH  12  18
TORSDOF 5
ENDMDL
MODEL 5
REMARK VINA RESULT:      -6.7      2.990      6.363
REMARK  Name = 
REMARK  6 active torsions:
REMARK  status: ('A' for Active; 'I' for Inactive)
REMARK    1  A    between atoms: C_1  and  N_2
REMARK    2  A    between atoms: N_9  and  C_10
REMARK    3  A    between atoms: C_10  and  C_11
REMARK    4  A    between atoms: C_11  and  C_12
REMARK    5  A    between atoms: C_12  and  C_13
REMARK    6  A    between atoms: C_13  and  C_15
REMARK                            x       y       z     vdW  Elec       q    Type
REMARK                         _______ _______ _______ _____ _____    ______ ____
ROOT
ATOM      1  C   UNL     1       7.468   3.753  22.261  0.00  0.00    +0.129 C 
ATOM      2  N   UNL     1       8.340   3.016  23.173  0.00  0.00    -0.330 N 
ATOM      3  C   UNL     1       8.629   1.697  22.762  0.00  0.00    +0.051 A 
ATOM      4  C   UNL     1       9.087   1.361  21.488  0.00  0.00    +0.025 A 
ATOM      5  C   UNL     1       9.325   0.009  21.156  0.00  0.00    +0.002 A 
ATOM      6  C   UNL     1       8.975  -1.041  22.036  0.00  0.00    +0.006 A 
ATOM      7  C   UNL     1       8.482  -0.717  23.290  0.00  0.00    -0.018 A 
ATOM      8  C   UNL     1       8.040  -1.539  24.500  0.00  0.00    +0.055 C 
ATOM      9  C   UNL     1       8.515  -0.564  25.594  0.00  0.00    +0.083 C 
ATOM     10  C   UNL     1       7.966  -0.738  26.985  0.00  0.00    +0.038 C 
ATOM     11  C   UNL     1       6.510  -1.110  27.110  0.00  0.00    +0.086 C 
ATOM     12  N   UNL     1       5.812  -1.509  25.914  0.00  0.00    -0.302 NA
ATOM     13  N   UNL     1       8.476   0.803  25.069  0.00  0.00    -0.323 N 
ATOM     14  C   UNL     1       7.569   1.882  25.364  0.00  0.00    +0.124 C 
ATOM     15  C   UNL     1       6.516  -1.897  24.682  0.00  0.00    +0.094 C 
ATOM     16  C   UNL     1       8.499   0.627  23.655  0.00  0.00    +0.055 A 
ATOM     17  C   UNL     1       8.076   3.165  24.637  0.00  0.00    +0.123 C 
ENDROOT
BRANCH  12  18
ATOM     18  C   UNL     1       4.394  -1.822  26.159  0.00  0.00    +0.085 C 
BRANCH  18  19
ATOM     19  C   UNL     1       3.958  -3.092  25.375  0.00  0.00    +0.023 C 
BRANCH  19  20
ATOM     20  C   UNL     1       4.036  -4.413  26.170  0.00  0.00    +0.081 C 
BRANCH  20  21
ATOM     21  C   UNL     1       4.948  -5.475  25.546  0.00  0.00    +0.163 C 
ATOM     22  O   UNL     1       4.479  -6.475  24.999  0.00  0.00    -0.292 OA
BRANCH  21  23
ATOM     23  C   UNL     1       6.448  -5.289  25.514  0.00  0.00    +0.018 A 
ATOM     24  C   UNL     1       7.104  -5.390  24.270  0.00  0.00    +0.014 A 
ATOM     25  C   UNL     1       8.498  -5.252  24.174  0.00  0.00    +0.039 A 
ATOM     26  C   UNL     1       9.236  -5.011  25.319  0.00  0.00    +0.123 A 
ATOM     27  F   UNL     1      10.568  -4.891  25.234  0.00  0.00    -0.205 F 
ATOM     28  C   UNL     1       8.615  -4.895  26.557  0.00  0.00    +0.039 A 
ATOM     29  C   UNL     1       7.218  -5.026  26.657  0.00  0.00    +0.014 A 
ENDBRANCH  21  23
ENDBRANCH  20  21
ENDBRANCH  19  20
ENDBRANCH  18  19
ENDBRANCH  12  18
TORSDOF 5
ENDMDL
MODEL 6
REMARK VINA RESULT:      -6.6      2.836      6.423
REMARK  Name = 
REMARK  6 active torsions:
REMARK  status: ('A' for Active; 'I' for Inactive)
REMARK    1  A    between atoms: C_1  and  N_2
REMARK    2  A    between atoms: N_9  and  C_10
REMARK    3  A    between atoms: C_10  and  C_11
REMARK    4  A    between atoms: C_11  and  C_12
REMARK    5  A    between atoms: C_12  and  C_13
REMARK    6  A    between atoms: C_13  and  C_15
REMARK                            x       y       z     vdW  Elec       q    Type
REMARK                         _______ _______ _______ _____ _____    ______ ____
ROOT
ATOM      1  C   UNL     1       7.243   3.806  22.573  0.00  0.00    +0.129 C 
ATOM      2  N   UNL     1       8.247   3.127  23.389  0.00  0.00    -0.330 N 
ATOM      3  C   UNL     1       8.655   1.873  22.885  0.00  0.00    +0.051 A 
ATOM      4  C   UNL     1       9.067   1.659  21.569  0.00  0.00    +0.025 A 
ATOM      5  C   UNL     1       9.434   0.364  21.144  0.00  0.00    +0.002 A 
ATOM      6  C   UNL     1       9.258  -0.765  21.978  0.00  0.00    +0.006 A 
ATOM      7  C   UNL     1       8.811  -0.567  23.275  0.00  0.00    -0.018 A 
ATOM      8  C   UNL     1       8.539  -1.497  24.457  0.00  0.00    +0.055 C 
ATOM      9  C   UNL     1       8.971  -0.533  25.579  0.00  0.00    +0.083 C 
ATOM     10  C   UNL     1       8.532  -0.843  26.985  0.00  0.00    +0.038 C 
ATOM     11  C   UNL     1       7.138  -1.385  27.169  0.00  0.00    +0.086 C 
ATOM     12  N   UNL     1       6.415  -1.798  25.993  0.00  0.00    -0.302 NA
ATOM     13  N   UNL     1       8.746   0.846  25.139  0.00  0.00    -0.323 N 
ATOM     14  C   UNL     1       7.745   1.797  25.548  0.00  0.00    +0.124 C 
ATOM     15  C   UNL     1       7.080  -2.037  24.701  0.00  0.00    +0.094 C 
ATOM     16  C   UNL     1       8.701   0.749  23.718  0.00  0.00    +0.055 A 
ATOM     17  C   UNL     1       8.059   3.166  24.872  0.00  0.00    +0.123 C 
ENDROOT
BRANCH  12  18
ATOM     18  C   UNL     1       5.059  -2.284  26.297  0.00  0.00    +0.085 C 
BRANCH  18  19
ATOM     19  C   UNL     1       5.103  -3.466  27.307  0.00  0.00    +0.023 C 
BRANCH  19  20
ATOM     20  C   UNL     1       4.998  -4.871  26.676  0.00  0.00    +0.081 C 
BRANCH  20  21
ATOM     21  C   UNL     1       6.256  -5.325  25.928  0.00  0.00    +0.163 C 
ATOM     22  O   UNL     1       7.271  -5.669  26.537  0.00  0.00    -0.292 OA
BRANCH  21  23
ATOM     23  C   UNL     1       6.264  -5.439  24.420  0.00  0.00    +0.018 A 
ATOM     24  C   UNL     1       5.023  -5.517  23.753  0.00  0.00    +0.014 A 
ATOM     25  C   UNL     1       4.959  -5.648  22.357  0.00  0.00    +0.039 A 
ATOM     26  C   UNL     1       6.133  -5.699  21.626  0.00  0.00    +0.123 A 
ATOM     27  F   UNL     1       6.078  -5.837  20.294  0.00  0.00    -0.205 F 
ATOM     28  C   UNL     1       7.369  -5.612  22.255  0.00  0.00    +0.039 A 
ATOM     29  C   UNL     1       7.438  -5.474  23.654  0.00  0.00    +0.014 A 
ENDBRANCH  21  23
ENDBRANCH  20  21
ENDBRANCH  19  20
ENDBRANCH  18  19
ENDBRANCH  12  18
TORSDOF 5
ENDMDL
MODEL 7
REMARK VINA RESULT:      -6.5      3.236      7.593
REMARK  Name = 
REMARK  6 active torsions:
REMARK  status: ('A' for Active; 'I' for Inactive)
REMARK    1  A    between atoms: C_1  and  N_2
REMARK    2  A    between atoms: N_9  and  C_10
REMARK    3  A    between atoms: C_10  and  C_11
REMARK    4  A    between atoms: C_11  and  C_12
REMARK    5  A    between atoms: C_12  and  C_13
REMARK    6  A    between atoms: C_13  and  C_15
REMARK                            x       y       z     vdW  Elec       q    Type
REMARK                         _______ _______ _______ _____ _____    ______ ____
ROOT
ATOM      1  C   UNL     1       6.565   5.000  23.522  0.00  0.00    +0.129 C 
ATOM      2  N   UNL     1       7.322   4.272  24.538  0.00  0.00    -0.330 N 
ATOM      3  C   UNL     1       8.672   4.037  24.199  0.00  0.00    +0.051 A 
ATOM      4  C   UNL     1       9.546   5.027  23.748  0.00  0.00    +0.025 A 
ATOM      5  C   UNL     1      10.875   4.695  23.407  0.00  0.00    +0.002 A 
ATOM      6  C   UNL     1      11.314   3.351  23.368  0.00  0.00    +0.006 A 
ATOM      7  C   UNL     1      10.440   2.357  23.776  0.00  0.00    -0.018 A 
ATOM      8  C   UNL     1      10.549   0.838  23.910  0.00  0.00    +0.055 C 
ATOM      9  C   UNL     1       9.649   0.677  25.150  0.00  0.00    +0.083 C 
ATOM     10  C   UNL     1       9.118  -0.695  25.466  0.00  0.00    +0.038 C 
ATOM     11  C   UNL     1       8.690  -1.554  24.303  0.00  0.00    +0.086 C 
ATOM     12  N   UNL     1       9.037  -1.113  22.976  0.00  0.00    -0.302 NA
ATOM     13  N   UNL     1       8.656   1.754  25.164  0.00  0.00    -0.323 N 
ATOM     14  C   UNL     1       7.242   1.713  24.893  0.00  0.00    +0.124 C 
ATOM     15  C   UNL     1      10.060  -0.084  22.730  0.00  0.00    +0.094 C 
ATOM     16  C   UNL     1       9.230   2.760  24.335  0.00  0.00    +0.055 A 
ATOM     17  C   UNL     1       6.640   3.118  25.200  0.00  0.00    +0.123 C 
ENDROOT
BRANCH  12  18
ATOM     18  C   UNL     1       8.544  -2.019  21.926  0.00  0.00    +0.085 C 
BRANCH  18  19
ATOM     19  C   UNL     1       7.233  -2.728  22.370  0.00  0.00    +0.023 C 
BRANCH  19  20
ATOM     20  C   UNL     1       7.223  -4.261  22.192  0.00  0.00    +0.081 C 
BRANCH  20  21
ATOM     21  C   UNL     1       7.528  -5.050  23.469  0.00  0.00    +0.163 C 
ATOM     22  O   UNL     1       8.686  -5.197  23.866  0.00  0.00    -0.292 OA
BRANCH  21  23
ATOM     23  C   UNL     1       6.411  -5.607  24.324  0.00  0.00    +0.018 A 
ATOM     24  C   UNL     1       6.527  -5.494  25.725  0.00  0.00    +0.014 A 
ATOM     25  C   UNL     1       5.538  -6.010  26.576  0.00  0.00    +0.039 A 
ATOM     26  C   UNL     1       4.432  -6.637  26.030  0.00  0.00    +0.123 A 
ATOM     27  F   UNL     1       3.491  -7.143  26.839  0.00  0.00    -0.205 F 
ATOM     28  C   UNL     1       4.286  -6.751  24.652  0.00  0.00    +0.039 A 
ATOM     29  C   UNL     1       5.271  -6.229  23.795  0.00  0.00    +0.014 A 
ENDBRANCH  21  23
ENDBRANCH  20  21
ENDBRANCH  19  20
ENDBRANCH  18  19
ENDBRANCH  12  18
TORSDOF 5
ENDMDL
MODEL 8
REMARK VINA RESULT:      -6.5      2.512      5.782
REMARK  Name = 
REMARK  6 active torsions:
REMARK  status: ('A' for Active; 'I' for Inactive)
REMARK    1  A    between atoms: C_1  and  N_2
REMARK    2  A    between atoms: N_9  and  C_10
REMARK    3  A    between atoms: C_10  and  C_11
REMARK    4  A    between atoms: C_11  and  C_12
REMARK    5  A    between atoms: C_12  and  C_13
REMARK    6  A    between atoms: C_13  and  C_15
REMARK                            x       y       z     vdW  Elec       q    Type
REMARK                         _______ _______ _______ _____ _____    ______ ____
ROOT
ATOM      1  C   UNL     1       7.408   2.137  21.659  0.00  0.00    +0.129 C 
ATOM      2  N   UNL     1       7.405   2.460  23.085  0.00  0.00    -0.330 N 
ATOM      3  C   UNL     1       8.449   1.858  23.819  0.00  0.00    +0.051 A 
ATOM      4  C   UNL     1       9.793   1.911  23.448  0.00  0.00    +0.025 A 
ATOM      5  C   UNL     1      10.770   1.257  24.231  0.00  0.00    +0.002 A 
ATOM      6  C   UNL     1      10.410   0.418  25.311  0.00  0.00    +0.006 A 
ATOM      7  C   UNL     1       9.073   0.328  25.662  0.00  0.00    -0.018 A 
ATOM      8  C   UNL     1       8.312  -0.418  26.758  0.00  0.00    +0.055 C 
ATOM      9  C   UNL     1       7.219   0.638  27.004  0.00  0.00    +0.083 C 
ATOM     10  C   UNL     1       5.977   0.214  27.741  0.00  0.00    +0.038 C 
ATOM     11  C   UNL     1       5.425  -1.154  27.431  0.00  0.00    +0.086 C 
ATOM     12  N   UNL     1       6.240  -2.049  26.649  0.00  0.00    -0.302 NA
ATOM     13  N   UNL     1       6.990   1.388  25.767  0.00  0.00    -0.323 N 
ATOM     14  C   UNL     1       5.880   1.346  24.850  0.00  0.00    +0.124 C 
ATOM     15  C   UNL     1       7.681  -1.827  26.445  0.00  0.00    +0.094 C 
ATOM     16  C   UNL     1       8.184   1.183  25.016  0.00  0.00    +0.055 A 
ATOM     17  C   UNL     1       6.081   2.461  23.780  0.00  0.00    +0.123 C 
ENDROOT
BRANCH  12  18
ATOM     18  C   UNL     1       5.584  -3.341  26.391  0.00  0.00    +0.085 C 
BRANCH  18  19
ATOM     19  C   UNL     1       6.363  -4.507  27.062  0.00  0.00    +0.023 C 
BRANCH  19  20
ATOM     20  C   UNL     1       7.284  -5.310  26.119  0.00  0.00    +0.081 C 
BRANCH  20  21
ATOM     21  C   UNL     1       7.106  -4.985  24.632  0.00  0.00    +0.163 C 
ATOM     22  O   UNL     1       6.239  -5.542  23.957  0.00  0.00    -0.292 OA
BRANCH  21  23
ATOM     23  C   UNL     1       7.941  -3.914  23.966  0.00  0.00    +0.018 A 
ATOM     24  C   UNL     1       7.338  -3.133  22.957  0.00  0.00    +0.014 A 
ATOM     25  C   UNL     1       8.063  -2.138  22.283  0.00  0.00    +0.039 A 
ATOM     26  C   UNL     1       9.388  -1.921  22.615  0.00  0.00    +0.123 A 
ATOM     27  F   UNL     1      10.088  -0.981  21.965  0.00  0.00    -0.205 F 
ATOM     28  C   UNL     1      10.004  -2.667  23.613  0.00  0.00    +0.039 A 
ATOM     29  C   UNL     1       9.280  -3.660  24.297  0.00  0.00    +0.014 A 
ENDBRANCH  21  23
ENDBRANCH  20  21
ENDBRANCH  19  20
ENDBRANCH  18  19
ENDBRANCH  12  18
TORSDOF 5
ENDMDL
MODEL 9
REMARK VINA RESULT:      -6.5      2.443      4.020
REMARK  Name = 
REMARK  6 active torsions:
REMARK  status: ('A' for Active; 'I' for Inactive)
REMARK    1  A    between atoms: C_1  and  N_2
REMARK    2  A    between atoms: N_9  and  C_10
REMARK    3  A    between atoms: C_10  and  C_11
REMARK    4  A    between atoms: C_11  and  C_12
REMARK    5  A    between atoms: C_12  and  C_13
REMARK    6  A    between atoms: C_13  and  C_15
REMARK                            x       y       z     vdW  Elec       q    Type
REMARK                         _______ _______ _______ _____ _____    ______ ____
ROOT
ATOM      1  C   UNL     1       5.355  -5.958  23.686  0.00  0.00    +0.129 C 
ATOM      2  N   UNL     1       6.598  -5.308  23.276  0.00  0.00    -0.330 N 
ATOM      3  C   UNL     1       7.358  -4.781  24.342  0.00  0.00    +0.051 A 
ATOM      4  C   UNL     1       7.698  -5.503  25.487  0.00  0.00    +0.025 A 
ATOM      5  C   UNL     1       8.441  -4.886  26.517  0.00  0.00    +0.002 A 
ATOM      6  C   UNL     1       8.731  -3.502  26.492  0.00  0.00    +0.006 A 
ATOM      7  C   UNL     1       8.362  -2.769  25.376  0.00  0.00    -0.018 A 
ATOM      8  C   UNL     1       8.526  -1.305  24.966  0.00  0.00    +0.055 C 
ATOM      9  C   UNL     1       8.706  -1.535  23.454  0.00  0.00    +0.083 C 
ATOM     10  C   UNL     1       8.525  -0.358  22.533  0.00  0.00    +0.038 C 
ATOM     11  C   UNL     1       7.417   0.610  22.861  0.00  0.00    +0.086 C 
ATOM     12  N   UNL     1       6.773   0.488  24.144  0.00  0.00    -0.302 NA
ATOM     13  N   UNL     1       7.991  -2.753  23.066  0.00  0.00    -0.323 N 
ATOM     14  C   UNL     1       6.768  -2.912  22.321  0.00  0.00    +0.124 C 
ATOM     15  C   UNL     1       7.362  -0.282  25.252  0.00  0.00    +0.094 C 
ATOM     16  C   UNL     1       7.855  -3.474  24.287  0.00  0.00    +0.055 A 
ATOM     17  C   UNL     1       6.541  -4.433  22.065  0.00  0.00    +0.123 C 
ENDROOT
BRANCH  12  18
ATOM     18  C   UNL     1       5.694   1.471  24.337  0.00  0.00    +0.085 C 
BRANCH  18  19
ATOM     19  C   UNL     1       5.972   2.772  23.532  0.00  0.00    +0.023 C 
BRANCH  19  20
ATOM     20  C   UNL     1       6.514   3.954  24.363  0.00  0.00    +0.081 C 
BRANCH  20  21
ATOM     21  C   UNL     1       7.409   4.922  23.580  0.00  0.00    +0.163 C 
ATOM     22  O   UNL     1       6.935   5.901  23.002  0.00  0.00    -0.292 OA
BRANCH  21  23
ATOM     23  C   UNL     1       8.910   4.745  23.558  0.00  0.00    +0.018 A 
ATOM     24  C   UNL     1       9.717   5.897  23.679  0.00  0.00    +0.014 A 
ATOM     25  C   UNL     1      11.117   5.806  23.642  0.00  0.00    +0.039 A 
ATOM     26  C   UNL     1      11.713   4.567  23.486  0.00  0.00    +0.123 A 
ATOM     27  F   UNL     1      13.049   4.477  23.438  0.00  0.00    -0.205 F 
ATOM     28  C   UNL     1      10.943   3.414  23.378  0.00  0.00    +0.039 A 
ATOM     29  C   UNL     1       9.540   3.500  23.421  0.00  0.00    +0.014 A 
ENDBRANCH  21  23
ENDBRANCH  20  21
ENDBRANCH  19  20
ENDBRANCH  18  19
ENDBRANCH  12  18
TORSDOF 5
ENDMDL
