MODEL 1
REMARK VINA RESULT:      -5.6      0.000      0.000
REMARK  Name = 
REMARK  10 active torsions:
REMARK  status: ('A' for Active; 'I' for Inactive)
REMARK    1  A    between atoms: C_2  and  O_3
REMARK    2  A    between atoms: C_2  and  C_7
REMARK    3  A    between atoms: C_2  and  C_11
REMARK    4  A    between atoms: O_3  and  C_4
REMARK    5  A    between atoms: C_4  and  C_5
REMARK    6  A    between atoms: C_7  and  O_9
REMARK    7  A    between atoms: O_9  and  C_10
REMARK    8  A    between atoms: C_14  and  N_15
REMARK    9  A    between atoms: C_17  and  C_18
REMARK   10  A    between atoms: C_18  and  O_19
REMARK                            x       y       z     vdW  Elec       q    Type
REMARK                         _______ _______ _______ _____ _____    ______ ____
ROOT
ATOM      1  C   UNL     1       8.247  -1.732  22.873  0.00  0.00    +0.018 A 
ATOM      2  C   UNL     1       7.648  -0.571  23.409  0.00  0.00    +0.068 A 
ATOM      3  C   UNL     1       8.059   0.707  22.976  0.00  0.00    +0.038 A 
ATOM      4  C   UNL     1       9.066   0.860  22.024  0.00  0.00    +0.025 A 
ATOM      5  C   UNL     1       9.590  -0.280  21.427  0.00  0.00    +0.023 A 
ATOM      6  C   UNL     1       9.196  -1.554  21.848  0.00  0.00    +0.010 A 
ENDROOT
BRANCH   4   7
ATOM      7  N   UNL     1       9.370   2.126  21.512  0.00  0.00    -0.358 N 
ATOM      8  H   UNL     1       9.205   2.229  20.516  0.00  0.00    +0.142 HD
ATOM      9  H   UNL     1       8.952   2.888  22.041  0.00  0.00    +0.142 HD
ENDBRANCH   4   7
BRANCH   2  10
ATOM     10  C   UNL     1       6.604  -0.643  24.473  0.00  0.00    +0.337 C 
ATOM     11  O   UNL     1       6.795  -0.315  25.628  0.00  0.00    -0.245 OA
BRANCH  10  12
ATOM     12  O   UNL     1       5.415  -1.112  24.036  0.00  0.00    -0.477 OA
ATOM     13  H   UNL     1       4.683  -1.075  24.680  0.00  0.00    +0.295 HD
ENDBRANCH  10  12
ENDBRANCH   2  10
BRANCH   1  14
ATOM     14  C   UNL     1       7.853  -3.145  23.322  0.00  0.00    +0.315 C 
BRANCH  14  15
ATOM     15  C   UNL     1       8.694  -3.733  24.490  0.00  0.00    +0.353 C 
ATOM     16  O   UNL     1       9.861  -4.100  24.404  0.00  0.00    -0.246 OA
BRANCH  15  17
ATOM     17  O   UNL     1       7.998  -3.704  25.667  0.00  0.00    -0.465 OA
ATOM     18  C   UNL     1       6.673  -4.232  25.558  0.00  0.00    +0.280 C 
ENDBRANCH  15  17
ENDBRANCH  14  15
BRANCH  14  19
ATOM     19  O   UNL     1       7.600  -3.961  22.170  0.00  0.00    -0.445 OA
BRANCH  19  20
ATOM     20  C   UNL     1       6.305  -4.192  21.837  0.00  0.00    +0.305 C 
ATOM     21  O   UNL     1       5.392  -3.395  21.950  0.00  0.00    -0.251 OA
ATOM     22  C   UNL     1       6.143  -5.611  21.370  0.00  0.00    +0.136 C 
ENDBRANCH  19  20
ENDBRANCH  14  19
ENDBRANCH   1  14
TORSDOF 8
ENDMDL
MODEL 2
REMARK VINA RESULT:      -5.4      2.356      4.209
REMARK  Name = 
REMARK  10 active torsions:
REMARK  status: ('A' for Active; 'I' for Inactive)
REMARK    1  A    between atoms: C_2  and  O_3
REMARK    2  A    between atoms: C_2  and  C_7
REMARK    3  A    between atoms: C_2  and  C_11
REMARK    4  A    between atoms: O_3  and  C_4
REMARK    5  A    between atoms: C_4  and  C_5
REMARK    6  A    between atoms: C_7  and  O_9
REMARK    7  A    between atoms: O_9  and  C_10
REMARK    8  A    between atoms: C_14  and  N_15
REMARK    9  A    between atoms: C_17  and  C_18
REMARK   10  A    between atoms: C_18  and  O_19
REMARK                            x       y       z     vdW  Elec       q    Type
REMARK                         _______ _______ _______ _____ _____    ______ ____
ROOT
ATOM      1  C   UNL     1       7.684  -3.886  23.716  0.00  0.00    +0.018 A 
ATOM      2  C   UNL     1       8.905  -3.782  24.418  0.00  0.00    +0.068 A 
ATOM      3  C   UNL     1       9.855  -2.804  24.055  0.00  0.00    +0.038 A 
ATOM      4  C   UNL     1       9.623  -1.927  22.996  0.00  0.00    +0.025 A 
ATOM      5  C   UNL     1       8.385  -1.966  22.365  0.00  0.00    +0.023 A 
ATOM      6  C   UNL     1       7.435  -2.931  22.711  0.00  0.00    +0.010 A 
ENDROOT
BRANCH   4   7
ATOM      7  N   UNL     1      10.515  -0.883  22.733  0.00  0.00    -0.358 N 
ATOM      8  H   UNL     1      10.220  -0.252  21.994  0.00  0.00    +0.142 HD
ATOM      9  H   UNL     1      10.801  -0.375  23.567  0.00  0.00    +0.142 HD
ENDBRANCH   4   7
BRANCH   2  10
ATOM     10  C   UNL     1       9.259  -4.717  25.525  0.00  0.00    +0.337 C 
ATOM     11  O   UNL     1       9.021  -4.497  26.696  0.00  0.00    -0.245 OA
BRANCH  10  12
ATOM     12  O   UNL     1       9.879  -5.844  25.108  0.00  0.00    -0.477 OA
ATOM     13  H   UNL     1       9.611  -6.665  25.560  0.00  0.00    +0.295 HD
ENDBRANCH  10  12
ENDBRANCH   2  10
BRANCH   1  14
ATOM     14  C   UNL     1       6.626  -4.943  24.055  0.00  0.00    +0.315 C 
BRANCH  14  15
ATOM     15  C   UNL     1       5.925  -5.602  22.834  0.00  0.00    +0.353 C 
ATOM     16  O   UNL     1       6.390  -6.517  22.163  0.00  0.00    -0.246 OA
BRANCH  15  17
ATOM     17  O   UNL     1       4.668  -5.097  22.651  0.00  0.00    -0.465 OA
ATOM     18  C   UNL     1       3.628  -6.012  23.009  0.00  0.00    +0.280 C 
ENDBRANCH  15  17
ENDBRANCH  14  15
BRANCH  14  19
ATOM     19  O   UNL     1       5.824  -4.483  25.152  0.00  0.00    -0.445 OA
BRANCH  19  20
ATOM     20  C   UNL     1       5.516  -5.378  26.123  0.00  0.00    +0.305 C 
ATOM     21  O   UNL     1       6.218  -6.309  26.477  0.00  0.00    -0.251 OA
ATOM     22  C   UNL     1       4.140  -5.099  26.658  0.00  0.00    +0.136 C 
ENDBRANCH  19  20
ENDBRANCH  14  19
ENDBRANCH   1  14
TORSDOF 8
ENDMDL
MODEL 3
REMARK VINA RESULT:      -5.3      2.168      3.471
REMARK  Name = 
REMARK  10 active torsions:
REMARK  status: ('A' for Active; 'I' for Inactive)
REMARK    1  A    between atoms: C_2  and  O_3
REMARK    2  A    between atoms: C_2  and  C_7
REMARK    3  A    between atoms: C_2  and  C_11
REMARK    4  A    between atoms: O_3  and  C_4
REMARK    5  A    between atoms: C_4  and  C_5
REMARK    6  A    between atoms: C_7  and  O_9
REMARK    7  A    between atoms: O_9  and  C_10
REMARK    8  A    between atoms: C_14  and  N_15
REMARK    9  A    between atoms: C_17  and  C_18
REMARK   10  A    between atoms: C_18  and  O_19
REMARK                            x       y       z     vdW  Elec       q    Type
REMARK                         _______ _______ _______ _____ _____    ______ ____
ROOT
ATOM      1  C   UNL     1       7.519  -3.472  24.201  0.00  0.00    +0.018 A 
ATOM      2  C   UNL     1       8.894  -3.639  24.476  0.00  0.00    +0.068 A 
ATOM      3  C   UNL     1       9.829  -2.671  24.052  0.00  0.00    +0.038 A 
ATOM      4  C   UNL     1       9.428  -1.538  23.346  0.00  0.00    +0.025 A 
ATOM      5  C   UNL     1       8.067  -1.325  23.157  0.00  0.00    +0.023 A 
ATOM      6  C   UNL     1       7.129  -2.276  23.568  0.00  0.00    +0.010 A 
ENDROOT
BRANCH   4   7
ATOM      7  N   UNL     1      10.347  -0.527  23.047  0.00  0.00    -0.358 N 
ATOM      8  H   UNL     1      11.183  -0.846  22.566  0.00  0.00    +0.142 HD
ATOM      9  H   UNL     1       9.930   0.274  22.580  0.00  0.00    +0.142 HD
ENDBRANCH   4   7
BRANCH   2  10
ATOM     10  C   UNL     1       9.416  -4.849  25.175  0.00  0.00    +0.337 C 
ATOM     11  O   UNL     1       9.716  -4.872  26.353  0.00  0.00    -0.245 OA
BRANCH  10  12
ATOM     12  O   UNL     1       9.531  -5.932  24.374  0.00  0.00    -0.477 OA
ATOM     13  H   UNL     1       8.702  -6.249  23.970  0.00  0.00    +0.295 HD
ENDBRANCH  10  12
ENDBRANCH   2  10
BRANCH   1  14
ATOM     14  C   UNL     1       6.464  -4.502  24.621  0.00  0.00    +0.315 C 
BRANCH  14  15
ATOM     15  C   UNL     1       6.336  -4.739  26.153  0.00  0.00    +0.353 C 
ATOM     16  O   UNL     1       6.176  -3.858  26.992  0.00  0.00    -0.246 OA
BRANCH  15  17
ATOM     17  O   UNL     1       6.329  -6.073  26.450  0.00  0.00    -0.465 OA
ATOM     18  C   UNL     1       5.039  -6.568  26.818  0.00  0.00    +0.280 C 
ENDBRANCH  15  17
ENDBRANCH  14  15
BRANCH  14  19
ATOM     19  O   UNL     1       6.525  -5.637  23.746  0.00  0.00    -0.445 OA
BRANCH  19  20
ATOM     20  C   UNL     1       5.921  -5.529  22.537  0.00  0.00    +0.305 C 
ATOM     21  O   UNL     1       4.744  -5.276  22.353  0.00  0.00    -0.251 OA
ATOM     22  C   UNL     1       6.905  -5.840  21.444  0.00  0.00    +0.136 C 
ENDBRANCH  19  20
ENDBRANCH  14  19
ENDBRANCH   1  14
TORSDOF 8
ENDMDL
MODEL 4
REMARK VINA RESULT:      -5.2      2.774      5.050
REMARK  Name = 
REMARK  10 active torsions:
REMARK  status: ('A' for Active; 'I' for Inactive)
REMARK    1  A    between atoms: C_2  and  O_3
REMARK    2  A    between atoms: C_2  and  C_7
REMARK    3  A    between atoms: C_2  and  C_11
REMARK    4  A    between atoms: O_3  and  C_4
REMARK    5  A    between atoms: C_4  and  C_5
REMARK    6  A    between atoms: C_7  and  O_9
REMARK    7  A    between atoms: O_9  and  C_10
REMARK    8  A    between atoms: C_14  and  N_15
REMARK    9  A    between atoms: C_17  and  C_18
REMARK   10  A    between atoms: C_18  and  O_19
REMARK                            x       y       z     vdW  Elec       q    Type
REMARK                         _______ _______ _______ _____ _____    ______ ____
ROOT
ATOM      1  C   UNL     1       7.416  -2.877  23.447  0.00  0.00    +0.018 A 
ATOM      2  C   UNL     1       7.869  -4.160  23.827  0.00  0.00    +0.068 A 
ATOM      3  C   UNL     1       7.333  -5.314  23.217  0.00  0.00    +0.038 A 
ATOM      4  C   UNL     1       6.343  -5.224  22.241  0.00  0.00    +0.025 A 
ATOM      5  C   UNL     1       5.964  -3.962  21.799  0.00  0.00    +0.023 A 
ATOM      6  C   UNL     1       6.483  -2.809  22.394  0.00  0.00    +0.010 A 
ENDROOT
BRANCH   4   7
ATOM      7  N   UNL     1       5.917  -6.367  21.557  0.00  0.00    -0.358 N 
ATOM      8  H   UNL     1       5.932  -7.220  22.109  0.00  0.00    +0.142 HD
ATOM      9  H   UNL     1       5.026  -6.246  21.081  0.00  0.00    +0.142 HD
ENDBRANCH   4   7
BRANCH   2  10
ATOM     10  C   UNL     1       8.883  -4.350  24.904  0.00  0.00    +0.337 C 
ATOM     11  O   UNL     1       8.602  -4.612  26.057  0.00  0.00    -0.245 OA
BRANCH  10  12
ATOM     12  O   UNL     1      10.159  -4.200  24.482  0.00  0.00    -0.477 OA
ATOM     13  H   UNL     1      10.615  -5.020  24.217  0.00  0.00    +0.295 HD
ENDBRANCH  10  12
ENDBRANCH   2  10
BRANCH   1  14
ATOM     14  C   UNL     1       7.950  -1.591  24.089  0.00  0.00    +0.315 C 
BRANCH  14  15
ATOM     15  C   UNL     1       6.969  -0.873  25.059  0.00  0.00    +0.353 C 
ATOM     16  O   UNL     1       6.009  -0.191  24.713  0.00  0.00    -0.246 OA
BRANCH  15  17
ATOM     17  O   UNL     1       7.250  -1.173  26.363  0.00  0.00    -0.465 OA
ATOM     18  C   UNL     1       8.638  -1.058  26.688  0.00  0.00    +0.280 C 
ENDBRANCH  15  17
ENDBRANCH  14  15
BRANCH  14  19
ATOM     19  O   UNL     1       8.644  -0.815  23.104  0.00  0.00    -0.445 OA
BRANCH  19  20
ATOM     20  C   UNL     1       9.993  -0.944  23.039  0.00  0.00    +0.305 C 
ATOM     21  O   UNL     1      10.592  -1.871  22.524  0.00  0.00    -0.251 OA
ATOM     22  C   UNL     1      10.651   0.196  23.764  0.00  0.00    +0.136 C 
ENDBRANCH  19  20
ENDBRANCH  14  19
ENDBRANCH   1  14
TORSDOF 8
ENDMDL
MODEL 5
REMARK VINA RESULT:      -5.2      2.940      5.411
REMARK  Name = 
REMARK  10 active torsions:
REMARK  status: ('A' for Active; 'I' for Inactive)
REMARK    1  A    between atoms: C_2  and  O_3
REMARK    2  A    between atoms: C_2  and  C_7
REMARK    3  A    between atoms: C_2  and  C_11
REMARK    4  A    between atoms: O_3  and  C_4
REMARK    5  A    between atoms: C_4  and  C_5
REMARK    6  A    between atoms: C_7  and  O_9
REMARK    7  A    between atoms: O_9  and  C_10
REMARK    8  A    between atoms: C_14  and  N_15
REMARK    9  A    between atoms: C_17  and  C_18
REMARK   10  A    between atoms: C_18  and  O_19
REMARK                            x       y       z     vdW  Elec       q    Type
REMARK                         _______ _______ _______ _____ _____    ______ ____
ROOT
ATOM      1  C   UNL     1       7.650  -2.778  23.225  0.00  0.00    +0.018 A 
ATOM      2  C   UNL     1       7.940  -3.968  23.928  0.00  0.00    +0.068 A 
ATOM      3  C   UNL     1       7.114  -5.103  23.779  0.00  0.00    +0.038 A 
ATOM      4  C   UNL     1       5.993  -5.079  22.951  0.00  0.00    +0.025 A 
ATOM      5  C   UNL     1       5.761  -3.941  22.187  0.00  0.00    +0.023 A 
ATOM      6  C   UNL     1       6.567  -2.808  22.325  0.00  0.00    +0.010 A 
ENDROOT
BRANCH   4   7
ATOM      7  N   UNL     1       5.262  -6.247  22.715  0.00  0.00    -0.358 N 
ATOM      8  H   UNL     1       4.709  -6.566  23.505  0.00  0.00    +0.142 HD
ATOM      9  H   UNL     1       4.710  -6.214  21.861  0.00  0.00    +0.142 HD
ENDBRANCH   4   7
BRANCH   2  10
ATOM     10  C   UNL     1       9.085  -4.062  24.879  0.00  0.00    +0.337 C 
ATOM     11  O   UNL     1      10.198  -4.433  24.561  0.00  0.00    -0.245 OA
BRANCH  10  12
ATOM     12  O   UNL     1       8.773  -3.697  26.143  0.00  0.00    -0.477 OA
ATOM     13  H   UNL     1       8.173  -4.300  26.621  0.00  0.00    +0.295 HD
ENDBRANCH  10  12
ENDBRANCH   2  10
BRANCH   1  14
ATOM     14  C   UNL     1       8.502  -1.511  23.365  0.00  0.00    +0.315 C 
BRANCH  14  15
ATOM     15  C   UNL     1       9.677  -1.382  22.354  0.00  0.00    +0.353 C 
ATOM     16  O   UNL     1      10.758  -1.951  22.453  0.00  0.00    -0.246 OA
BRANCH  15  17
ATOM     17  O   UNL     1       9.322  -0.620  21.275  0.00  0.00    -0.465 OA
ATOM     18  C   UNL     1       9.334   0.785  21.540  0.00  0.00    +0.280 C 
ENDBRANCH  15  17
ENDBRANCH  14  15
BRANCH  14  19
ATOM     19  O   UNL     1       8.750  -1.249  24.753  0.00  0.00    -0.445 OA
BRANCH  19  20
ATOM     20  C   UNL     1       9.273  -0.042  25.081  0.00  0.00    +0.305 C 
ATOM     21  O   UNL     1      10.455   0.192  25.265  0.00  0.00    -0.251 OA
ATOM     22  C   UNL     1       8.170   0.963  25.256  0.00  0.00    +0.136 C 
ENDBRANCH  19  20
ENDBRANCH  14  19
ENDBRANCH   1  14
TORSDOF 8
ENDMDL
MODEL 6
REMARK VINA RESULT:      -5.2      2.992      5.305
REMARK  Name = 
REMARK  10 active torsions:
REMARK  status: ('A' for Active; 'I' for Inactive)
REMARK    1  A    between atoms: C_2  and  O_3
REMARK    2  A    between atoms: C_2  and  C_7
REMARK    3  A    between atoms: C_2  and  C_11
REMARK    4  A    between atoms: O_3  and  C_4
REMARK    5  A    between atoms: C_4  and  C_5
REMARK    6  A    between atoms: C_7  and  O_9
REMARK    7  A    between atoms: O_9  and  C_10
REMARK    8  A    between atoms: C_14  and  N_15
REMARK    9  A    between atoms: C_17  and  C_18
REMARK   10  A    between atoms: C_18  and  O_19
REMARK                            x       y       z     vdW  Elec       q    Type
REMARK                         _______ _______ _______ _____ _____    ______ ____
ROOT
ATOM      1  C   UNL     1       7.496  -0.997  23.415  0.00  0.00    +0.018 A 
ATOM      2  C   UNL     1       8.204  -1.919  22.613  0.00  0.00    +0.068 A 
ATOM      3  C   UNL     1       7.666  -3.197  22.352  0.00  0.00    +0.038 A 
ATOM      4  C   UNL     1       6.438  -3.588  22.883  0.00  0.00    +0.025 A 
ATOM      5  C   UNL     1       5.697  -2.650  23.593  0.00  0.00    +0.023 A 
ATOM      6  C   UNL     1       6.217  -1.381  23.862  0.00  0.00    +0.010 A 
ENDROOT
BRANCH   4   7
ATOM      7  N   UNL     1       5.861  -4.806  22.510  0.00  0.00    -0.358 N 
ATOM      8  H   UNL     1       6.255  -5.619  22.975  0.00  0.00    +0.142 HD
ATOM      9  H   UNL     1       4.845  -4.804  22.557  0.00  0.00    +0.142 HD
ENDBRANCH   4   7
BRANCH   2  10
ATOM     10  C   UNL     1       9.551  -1.604  22.053  0.00  0.00    +0.337 C 
ATOM     11  O   UNL     1      10.594  -1.956  22.568  0.00  0.00    -0.245 OA
BRANCH  10  12
ATOM     12  O   UNL     1       9.509  -0.882  20.912  0.00  0.00    -0.477 OA
ATOM     13  H   UNL     1      10.373  -0.688  20.503  0.00  0.00    +0.295 HD
ENDBRANCH  10  12
ENDBRANCH   2  10
BRANCH   1  14
ATOM     14  C   UNL     1       8.042   0.397  23.745  0.00  0.00    +0.315 C 
BRANCH  14  15
ATOM     15  C   UNL     1       8.627   0.563  25.176  0.00  0.00    +0.353 C 
ATOM     16  O   UNL     1       7.969   0.812  26.182  0.00  0.00    -0.246 OA
BRANCH  15  17
ATOM     17  O   UNL     1       9.968   0.301  25.199  0.00  0.00    -0.465 OA
ATOM     18  C   UNL     1      10.724   1.121  24.304  0.00  0.00    +0.280 C 
ENDBRANCH  15  17
ENDBRANCH  14  15
BRANCH  14  19
ATOM     19  O   UNL     1       7.144   1.396  23.242  0.00  0.00    -0.445 OA
BRANCH  19  20
ATOM     20  C   UNL     1       7.529   2.091  22.143  0.00  0.00    +0.305 C 
ATOM     21  O   UNL     1       8.249   1.670  21.256  0.00  0.00    -0.251 OA
ATOM     22  C   UNL     1       6.994   3.494  22.211  0.00  0.00    +0.136 C 
ENDBRANCH  19  20
ENDBRANCH  14  19
ENDBRANCH   1  14
TORSDOF 8
ENDMDL
MODEL 7
REMARK VINA RESULT:      -5.2      3.567      5.490
REMARK  Name = 
REMARK  10 active torsions:
REMARK  status: ('A' for Active; 'I' for Inactive)
REMARK    1  A    between atoms: C_2  and  O_3
REMARK    2  A    between atoms: C_2  and  C_7
REMARK    3  A    between atoms: C_2  and  C_11
REMARK    4  A    between atoms: O_3  and  C_4
REMARK    5  A    between atoms: C_4  and  C_5
REMARK    6  A    between atoms: C_7  and  O_9
REMARK    7  A    between atoms: O_9  and  C_10
REMARK    8  A    between atoms: C_14  and  N_15
REMARK    9  A    between atoms: C_17  and  C_18
REMARK   10  A    between atoms: C_18  and  O_19
REMARK                            x       y       z     vdW  Elec       q    Type
REMARK                         _______ _______ _______ _____ _____    ______ ____
ROOT
ATOM      1  C   UNL     1       6.657  -4.595  25.087  0.00  0.00    +0.018 A 
ATOM      2  C   UNL     1       7.741  -5.001  24.278  0.00  0.00    +0.068 A 
ATOM      3  C   UNL     1       7.510  -5.550  22.999  0.00  0.00    +0.038 A 
ATOM      4  C   UNL     1       6.217  -5.717  22.506  0.00  0.00    +0.025 A 
ATOM      5  C   UNL     1       5.154  -5.231  23.259  0.00  0.00    +0.023 A 
ATOM      6  C   UNL     1       5.367  -4.688  24.529  0.00  0.00    +0.010 A 
ENDROOT
BRANCH   4   7
ATOM      7  N   UNL     1       6.011  -6.141  21.189  0.00  0.00    -0.358 N 
ATOM      8  H   UNL     1       6.688  -6.820  20.854  0.00  0.00    +0.142 HD
ATOM      9  H   UNL     1       5.057  -6.442  21.006  0.00  0.00    +0.142 HD
ENDBRANCH   4   7
BRANCH   2  10
ATOM     10  C   UNL     1       9.153  -4.912  24.752  0.00  0.00    +0.337 C 
ATOM     11  O   UNL     1       9.904  -3.999  24.468  0.00  0.00    -0.245 OA
BRANCH  10  12
ATOM     12  O   UNL     1       9.531  -5.950  25.530  0.00  0.00    -0.477 OA
ATOM     13  H   UNL     1       8.911  -6.192  26.243  0.00  0.00    +0.295 HD
ENDBRANCH  10  12
ENDBRANCH   2  10
BRANCH   1  14
ATOM     14  C   UNL     1       6.850  -4.010  26.491  0.00  0.00    +0.315 C 
BRANCH  14  15
ATOM     15  C   UNL     1       6.657  -5.013  27.664  0.00  0.00    +0.353 C 
ATOM     16  O   UNL     1       7.375  -5.983  27.887  0.00  0.00    -0.246 OA
BRANCH  15  17
ATOM     17  O   UNL     1       5.635  -4.627  28.485  0.00  0.00    -0.465 OA
ATOM     18  C   UNL     1       5.439  -5.500  29.601  0.00  0.00    +0.280 C 
ENDBRANCH  15  17
ENDBRANCH  14  15
BRANCH  14  19
ATOM     19  O   UNL     1       6.218  -2.724  26.567  0.00  0.00    -0.445 OA
BRANCH  19  20
ATOM     20  C   UNL     1       6.857  -1.677  25.988  0.00  0.00    +0.305 C 
ATOM     21  O   UNL     1       6.404  -0.972  25.105  0.00  0.00    -0.251 OA
ATOM     22  C   UNL     1       8.245  -1.551  26.549  0.00  0.00    +0.136 C 
ENDBRANCH  19  20
ENDBRANCH  14  19
ENDBRANCH   1  14
TORSDOF 8
ENDMDL
MODEL 8
REMARK VINA RESULT:      -5.2      0.810      2.800
REMARK  Name = 
REMARK  10 active torsions:
REMARK  status: ('A' for Active; 'I' for Inactive)
REMARK    1  A    between atoms: C_2  and  O_3
REMARK    2  A    between atoms: C_2  and  C_7
REMARK    3  A    between atoms: C_2  and  C_11
REMARK    4  A    between atoms: O_3  and  C_4
REMARK    5  A    between atoms: C_4  and  C_5
REMARK    6  A    between atoms: C_7  and  O_9
REMARK    7  A    between atoms: O_9  and  C_10
REMARK    8  A    between atoms: C_14  and  N_15
REMARK    9  A    between atoms: C_17  and  C_18
REMARK   10  A    between atoms: C_18  and  O_19
REMARK                            x       y       z     vdW  Elec       q    Type
REMARK                         _______ _______ _______ _____ _____    ______ ____
ROOT
ATOM      1  C   UNL     1       8.189  -1.818  22.656  0.00  0.00    +0.018 A 
ATOM      2  C   UNL     1       7.608  -0.726  23.338  0.00  0.00    +0.068 A 
ATOM      3  C   UNL     1       8.011   0.594  23.043  0.00  0.00    +0.038 A 
ATOM      4  C   UNL     1       8.993   0.855  22.088  0.00  0.00    +0.025 A 
ATOM      5  C   UNL     1       9.497  -0.210  21.351  0.00  0.00    +0.023 A 
ATOM      6  C   UNL     1       9.110  -1.524  21.633  0.00  0.00    +0.010 A 
ENDROOT
BRANCH   4   7
ATOM      7  N   UNL     1       9.287   2.170  21.717  0.00  0.00    -0.358 N 
ATOM      8  H   UNL     1       9.306   2.832  22.488  0.00  0.00    +0.142 HD
ATOM      9  H   UNL     1      10.117   2.251  21.135  0.00  0.00    +0.142 HD
ENDBRANCH   4   7
BRANCH   2  10
ATOM     10  C   UNL     1       6.594  -0.919  24.415  0.00  0.00    +0.337 C 
ATOM     11  O   UNL     1       6.810  -0.706  25.592  0.00  0.00    -0.245 OA
BRANCH  10  12
ATOM     12  O   UNL     1       5.399  -1.360  23.962  0.00  0.00    -0.477 OA
ATOM     13  H   UNL     1       4.825  -1.782  24.628  0.00  0.00    +0.295 HD
ENDBRANCH  10  12
ENDBRANCH   2  10
BRANCH   1  14
ATOM     14  C   UNL     1       7.802  -3.273  22.951  0.00  0.00    +0.315 C 
BRANCH  14  15
ATOM     15  C   UNL     1       6.685  -3.862  22.045  0.00  0.00    +0.353 C 
ATOM     16  O   UNL     1       5.648  -3.283  21.737  0.00  0.00    -0.246 OA
BRANCH  15  17
ATOM     17  O   UNL     1       7.041  -5.085  21.548  0.00  0.00    -0.465 OA
ATOM     18  C   UNL     1       6.374  -6.177  22.189  0.00  0.00    +0.280 C 
ENDBRANCH  15  17
ENDBRANCH  14  15
BRANCH  14  19
ATOM     19  O   UNL     1       7.723  -3.470  24.369  0.00  0.00    -0.445 OA
BRANCH  19  20
ATOM     20  C   UNL     1       8.595  -4.344  24.931  0.00  0.00    +0.305 C 
ATOM     21  O   UNL     1       9.153  -5.259  24.352  0.00  0.00    -0.251 OA
ATOM     22  C   UNL     1       8.723  -4.064  26.402  0.00  0.00    +0.136 C 
ENDBRANCH  19  20
ENDBRANCH  14  19
ENDBRANCH   1  14
TORSDOF 8
ENDMDL
MODEL 9
REMARK VINA RESULT:      -5.0      3.486      5.609
REMARK  Name = 
REMARK  10 active torsions:
REMARK  status: ('A' for Active; 'I' for Inactive)
REMARK    1  A    between atoms: C_2  and  O_3
REMARK    2  A    between atoms: C_2  and  C_7
REMARK    3  A    between atoms: C_2  and  C_11
REMARK    4  A    between atoms: O_3  and  C_4
REMARK    5  A    between atoms: C_4  and  C_5
REMARK    6  A    between atoms: C_7  and  O_9
REMARK    7  A    between atoms: O_9  and  C_10
REMARK    8  A    between atoms: C_14  and  N_15
REMARK    9  A    between atoms: C_17  and  C_18
REMARK   10  A    between atoms: C_18  and  O_19
REMARK                            x       y       z     vdW  Elec       q    Type
REMARK                         _______ _______ _______ _____ _____    ______ ____
ROOT
ATOM      1  C   UNL     1       6.584  -4.321  24.942  0.00  0.00    +0.018 A 
ATOM      2  C   UNL     1       7.667  -4.857  24.210  0.00  0.00    +0.068 A 
ATOM      3  C   UNL     1       7.439  -5.540  22.997  0.00  0.00    +0.038 A 
ATOM      4  C   UNL     1       6.150  -5.715  22.496  0.00  0.00    +0.025 A 
ATOM      5  C   UNL     1       5.093  -5.108  23.165  0.00  0.00    +0.023 A 
ATOM      6  C   UNL     1       5.302  -4.431  24.369  0.00  0.00    +0.010 A 
ENDROOT
BRANCH   4   7
ATOM      7  N   UNL     1       5.952  -6.280  21.232  0.00  0.00    -0.358 N 
ATOM      8  H   UNL     1       5.375  -7.116  21.229  0.00  0.00    +0.142 HD
ATOM      9  H   UNL     1       5.642  -5.609  20.533  0.00  0.00    +0.142 HD
ENDBRANCH   4   7
BRANCH   2  10
ATOM     10  C   UNL     1       9.072  -4.766  24.702  0.00  0.00    +0.337 C 
ATOM     11  O   UNL     1       9.823  -3.849  24.434  0.00  0.00    -0.245 OA
BRANCH  10  12
ATOM     12  O   UNL     1       9.444  -5.807  25.480  0.00  0.00    -0.477 OA
ATOM     13  H   UNL     1      10.273  -6.251  25.224  0.00  0.00    +0.295 HD
ENDBRANCH  10  12
ENDBRANCH   2  10
BRANCH   1  14
ATOM     14  C   UNL     1       6.774  -3.587  26.274  0.00  0.00    +0.315 C 
BRANCH  14  15
ATOM     15  C   UNL     1       7.173  -2.089  26.160  0.00  0.00    +0.353 C 
ATOM     16  O   UNL     1       6.449  -1.197  25.728  0.00  0.00    -0.246 OA
BRANCH  15  17
ATOM     17  O   UNL     1       8.411  -1.862  26.692  0.00  0.00    -0.465 OA
ATOM     18  C   UNL     1       9.056  -0.701  26.161  0.00  0.00    +0.280 C 
ENDBRANCH  15  17
ENDBRANCH  14  15
BRANCH  14  19
ATOM     19  O   UNL     1       7.492  -4.428  27.188  0.00  0.00    -0.445 OA
BRANCH  19  20
ATOM     20  C   UNL     1       6.769  -5.283  27.954  0.00  0.00    +0.305 C 
ATOM     21  O   UNL     1       7.119  -6.400  28.292  0.00  0.00    -0.251 OA
ATOM     22  C   UNL     1       5.430  -4.679  28.271  0.00  0.00    +0.136 C 
ENDBRANCH  19  20
ENDBRANCH  14  19
ENDBRANCH   1  14
TORSDOF 8
ENDMDL
