MODEL 1
REMARK VINA RESULT:      -5.0      0.000      0.000
REMARK  Name = 
REMARK  10 active torsions:
REMARK  status: ('A' for Active; 'I' for Inactive)
REMARK    1  A    between atoms: C_1  and  C_2
REMARK    2  A    between atoms: C_2  and  C_4
REMARK    3  A    between atoms: C_4  and  O_6
REMARK    4  A    between atoms: C_4  and  C_7
REMARK    5  A    between atoms: C_7  and  O_9
REMARK    6  A    between atoms: C_7  and  C_10
REMARK    7  A    between atoms: C_10  and  O_11
REMARK    8  A    between atoms: O_11  and  P_12
REMARK    9  A    between atoms: P_12  and  O_13
REMARK   10  A    between atoms: P_12  and  O_14
REMARK                            x       y       z     vdW  Elec       q    Type
REMARK                         _______ _______ _______ _____ _____    ______ ____
ROOT
ATOM      1  C   UNL     1      10.260  -1.766  22.841  0.00  0.00    +0.176 C 
ENDROOT
BRANCH   1   2
ATOM      2  O   UNL     1       9.912  -1.643  21.456  0.00  0.00    -0.386 OA
ATOM      3  H   UNL     1       9.581  -2.520  21.183  0.00  0.00    +0.210 HD
ENDBRANCH   1   2
BRANCH   1   4
ATOM      4  C   UNL     1      10.259  -0.391  23.532  0.00  0.00    +0.210 C 
BRANCH   4   6
ATOM      5  C   UNL     1      10.055   1.777  22.097  0.00  0.00    +0.089 C 
ATOM      6  C   UNL     1       9.390   0.595  22.755  0.00  0.00    +0.161 C 
ATOM      7  O   UNL     1       8.166   0.412  22.651  0.00  0.00    -0.295 OA
ENDBRANCH   4   6
BRANCH   4   8
ATOM      8  O   UNL     1       9.908  -0.494  24.910  0.00  0.00    -0.382 OA
ATOM      9  H   UNL     1       9.377   0.288  25.141  0.00  0.00    +0.210 HD
ENDBRANCH   4   8
ENDBRANCH   1   4
BRANCH   1  10
ATOM     10  C   UNL     1       9.278  -2.732  23.519  0.00  0.00    +0.206 C 
BRANCH  10  11
ATOM     11  O   UNL     1      10.022  -3.631  24.339  0.00  0.00    -0.284 OA
BRANCH  11  12
ATOM     12  P   UNL     1       9.061  -4.731  25.268  0.00  0.00    +0.472 P 
ATOM     13  O   UNL     1       8.202  -5.714  26.099  0.00  0.00    -0.228 OA
BRANCH  12  14
ATOM     14  O   UNL     1      10.447  -5.575  25.440  0.00  0.00    -0.303 OA
ATOM     15  H   UNL     1      10.467  -6.050  26.285  0.00  0.00    +0.222 HD
ENDBRANCH  12  14
BRANCH  12  16
ATOM     16  O   UNL     1       8.583  -5.386  23.852  0.00  0.00    -0.303 OA
ATOM     17  H   UNL     1       7.711  -4.990  23.663  0.00  0.00    +0.222 HD
ENDBRANCH  12  16
ENDBRANCH  11  12
ENDBRANCH  10  11
ENDBRANCH   1  10
TORSDOF 9
ENDMDL
MODEL 2
REMARK VINA RESULT:      -4.7      1.265      1.586
REMARK  Name = 
REMARK  10 active torsions:
REMARK  status: ('A' for Active; 'I' for Inactive)
REMARK    1  A    between atoms: C_1  and  C_2
REMARK    2  A    between atoms: C_2  and  C_4
REMARK    3  A    between atoms: C_4  and  O_6
REMARK    4  A    between atoms: C_4  and  C_7
REMARK    5  A    between atoms: C_7  and  O_9
REMARK    6  A    between atoms: C_7  and  C_10
REMARK    7  A    between atoms: C_10  and  O_11
REMARK    8  A    between atoms: O_11  and  P_12
REMARK    9  A    between atoms: P_12  and  O_13
REMARK   10  A    between atoms: P_12  and  O_14
REMARK                            x       y       z     vdW  Elec       q    Type
REMARK                         _______ _______ _______ _____ _____    ______ ____
ROOT
ATOM      1  C   UNL     1       8.532  -1.888  22.841  0.00  0.00    +0.176 C 
ENDROOT
BRANCH   1   2
ATOM      2  O   UNL     1       7.397  -1.037  23.051  0.00  0.00    -0.386 OA
ATOM      3  H   UNL     1       6.617  -1.624  23.041  0.00  0.00    +0.210 HD
ENDBRANCH   1   2
BRANCH   1   4
ATOM      4  C   UNL     1       9.533  -1.239  21.870  0.00  0.00    +0.210 C 
BRANCH   4   6
ATOM      5  C   UNL     1      10.287   1.004  22.966  0.00  0.00    +0.089 C 
ATOM      6  C   UNL     1       9.441   0.283  21.948  0.00  0.00    +0.161 C 
ATOM      7  O   UNL     1       8.700   0.912  21.174  0.00  0.00    -0.295 OA
ENDBRANCH   4   6
BRANCH   4   8
ATOM      8  O   UNL     1      10.854  -1.739  22.061  0.00  0.00    -0.382 OA
ATOM      9  H   UNL     1      10.842  -2.693  21.867  0.00  0.00    +0.210 HD
ENDBRANCH   4   8
ENDBRANCH   1   4
BRANCH   1  10
ATOM     10  C   UNL     1       9.187  -2.191  24.196  0.00  0.00    +0.206 C 
BRANCH  10  11
ATOM     11  O   UNL     1       9.766  -3.493  24.138  0.00  0.00    -0.284 OA
BRANCH  11  12
ATOM     12  P   UNL     1       8.994  -4.677  25.137  0.00  0.00    +0.472 P 
ATOM     13  O   UNL     1       8.304  -5.736  26.030  0.00  0.00    -0.228 OA
BRANCH  12  14
ATOM     14  O   UNL     1      10.463  -5.388  25.185  0.00  0.00    -0.303 OA
ATOM     15  H   UNL     1      10.688  -5.790  24.332  0.00  0.00    +0.222 HD
ENDBRANCH  12  14
BRANCH  12  16
ATOM     16  O   UNL     1       8.462  -5.376  23.762  0.00  0.00    -0.303 OA
ATOM     17  H   UNL     1       9.020  -6.169  23.640  0.00  0.00    +0.222 HD
ENDBRANCH  12  16
ENDBRANCH  11  12
ENDBRANCH  10  11
ENDBRANCH   1  10
TORSDOF 9
ENDMDL
MODEL 3
REMARK VINA RESULT:      -4.6      1.906      2.856
REMARK  Name = 
REMARK  10 active torsions:
REMARK  status: ('A' for Active; 'I' for Inactive)
REMARK    1  A    between atoms: C_1  and  C_2
REMARK    2  A    between atoms: C_2  and  C_4
REMARK    3  A    between atoms: C_4  and  O_6
REMARK    4  A    between atoms: C_4  and  C_7
REMARK    5  A    between atoms: C_7  and  O_9
REMARK    6  A    between atoms: C_7  and  C_10
REMARK    7  A    between atoms: C_10  and  O_11
REMARK    8  A    between atoms: O_11  and  P_12
REMARK    9  A    between atoms: P_12  and  O_13
REMARK   10  A    between atoms: P_12  and  O_14
REMARK                            x       y       z     vdW  Elec       q    Type
REMARK                         _______ _______ _______ _____ _____    ______ ____
ROOT
ATOM      1  C   UNL     1       8.934  -2.449  24.316  0.00  0.00    +0.176 C 
ENDROOT
BRANCH   1   2
ATOM      2  O   UNL     1       9.909  -3.496  24.233  0.00  0.00    -0.386 OA
ATOM      3  H   UNL     1      10.775  -3.069  24.380  0.00  0.00    +0.210 HD
ENDBRANCH   1   2
BRANCH   1   4
ATOM      4  C   UNL     1       8.497  -1.993  22.913  0.00  0.00    +0.210 C 
BRANCH   4   6
ATOM      5  C   UNL     1       9.395  -0.059  21.413  0.00  0.00    +0.089 C 
ATOM      6  C   UNL     1       9.660  -1.327  22.182  0.00  0.00    +0.161 C 
ATOM      7  O   UNL     1      10.802  -1.811  22.241  0.00  0.00    -0.295 OA
ENDBRANCH   4   6
BRANCH   4   8
ATOM      8  O   UNL     1       7.897  -3.056  22.177  0.00  0.00    -0.382 OA
ATOM      9  H   UNL     1       7.840  -3.830  22.765  0.00  0.00    +0.210 HD
ENDBRANCH   4   8
ENDBRANCH   1   4
BRANCH   1  10
ATOM     10  C   UNL     1       7.737  -2.944  25.140  0.00  0.00    +0.206 C 
BRANCH  10  11
ATOM     11  O   UNL     1       7.667  -4.364  25.026  0.00  0.00    -0.284 OA
BRANCH  11  12
ATOM     12  P   UNL     1       7.504  -5.206  26.530  0.00  0.00    +0.472 P 
ATOM     13  O   UNL     1       7.358  -5.958  27.874  0.00  0.00    -0.228 OA
BRANCH  12  14
ATOM     14  O   UNL     1       7.069  -3.754  27.134  0.00  0.00    -0.303 OA
ATOM     15  H   UNL     1       7.069  -3.761  28.104  0.00  0.00    +0.222 HD
ENDBRANCH  12  14
BRANCH  12  16
ATOM     16  O   UNL     1       9.117  -5.039  26.708  0.00  0.00    -0.303 OA
ATOM     17  H   UNL     1       9.440  -4.698  25.852  0.00  0.00    +0.222 HD
ENDBRANCH  12  16
ENDBRANCH  11  12
ENDBRANCH  10  11
ENDBRANCH   1  10
TORSDOF 9
ENDMDL
MODEL 4
REMARK VINA RESULT:      -4.5      2.990      4.188
REMARK  Name = 
REMARK  10 active torsions:
REMARK  status: ('A' for Active; 'I' for Inactive)
REMARK    1  A    between atoms: C_1  and  C_2
REMARK    2  A    between atoms: C_2  and  C_4
REMARK    3  A    between atoms: C_4  and  O_6
REMARK    4  A    between atoms: C_4  and  C_7
REMARK    5  A    between atoms: C_7  and  O_9
REMARK    6  A    between atoms: C_7  and  C_10
REMARK    7  A    between atoms: C_10  and  O_11
REMARK    8  A    between atoms: O_11  and  P_12
REMARK    9  A    between atoms: P_12  and  O_13
REMARK   10  A    between atoms: P_12  and  O_14
REMARK                            x       y       z     vdW  Elec       q    Type
REMARK                         _______ _______ _______ _____ _____    ______ ____
ROOT
ATOM      1  C   UNL     1       9.306   1.458  23.946  0.00  0.00    +0.176 C 
ENDROOT
BRANCH   1   2
ATOM      2  O   UNL     1       8.792   1.945  25.193  0.00  0.00    -0.386 OA
ATOM      3  H   UNL     1       9.550   2.352  25.655  0.00  0.00    +0.210 HD
ENDBRANCH   1   2
BRANCH   1   4
ATOM      4  C   UNL     1       9.496   2.610  22.944  0.00  0.00    +0.210 C 
BRANCH   4   6
ATOM      5  C   UNL     1      11.606   4.089  23.347  0.00  0.00    +0.089 C 
ATOM      6  C   UNL     1      10.151   3.808  23.626  0.00  0.00    +0.161 C 
ATOM      7  O   UNL     1       9.492   4.545  24.378  0.00  0.00    -0.295 OA
ENDBRANCH   4   6
BRANCH   4   8
ATOM      8  O   UNL     1      10.181   2.179  21.771  0.00  0.00    -0.382 OA
ATOM      9  H   UNL     1       9.656   1.467  21.364  0.00  0.00    +0.210 HD
ENDBRANCH   4   8
ENDBRANCH   1   4
BRANCH   1  10
ATOM     10  C   UNL     1      10.626   0.719  24.204  0.00  0.00    +0.206 C 
BRANCH  10  11
ATOM     11  O   UNL     1      10.828  -0.225  23.154  0.00  0.00    -0.284 OA
BRANCH  11  12
ATOM     12  P   UNL     1       9.454  -1.213  22.791  0.00  0.00    +0.472 P 
ATOM     13  O   UNL     1       8.226  -2.097  22.467  0.00  0.00    -0.228 OA
BRANCH  12  14
ATOM     14  O   UNL     1      10.500  -2.461  22.902  0.00  0.00    -0.303 OA
ATOM     15  H   UNL     1      10.463  -2.875  23.778  0.00  0.00    +0.222 HD
ENDBRANCH  12  14
BRANCH  12  16
ATOM     16  O   UNL     1       9.711  -0.856  21.220  0.00  0.00    -0.303 OA
ATOM     17  H   UNL     1       9.831  -1.717  20.773  0.00  0.00    +0.222 HD
ENDBRANCH  12  16
ENDBRANCH  11  12
ENDBRANCH  10  11
ENDBRANCH   1  10
TORSDOF 9
ENDMDL
MODEL 5
REMARK VINA RESULT:      -4.5      3.285      5.200
REMARK  Name = 
REMARK  10 active torsions:
REMARK  status: ('A' for Active; 'I' for Inactive)
REMARK    1  A    between atoms: C_1  and  C_2
REMARK    2  A    between atoms: C_2  and  C_4
REMARK    3  A    between atoms: C_4  and  O_6
REMARK    4  A    between atoms: C_4  and  C_7
REMARK    5  A    between atoms: C_7  and  O_9
REMARK    6  A    between atoms: C_7  and  C_10
REMARK    7  A    between atoms: C_10  and  O_11
REMARK    8  A    between atoms: O_11  and  P_12
REMARK    9  A    between atoms: P_12  and  O_13
REMARK   10  A    between atoms: P_12  and  O_14
REMARK                            x       y       z     vdW  Elec       q    Type
REMARK                         _______ _______ _______ _____ _____    ______ ____
ROOT
ATOM      1  C   UNL     1       7.665  -5.049  25.957  0.00  0.00    +0.176 C 
ENDROOT
BRANCH   1   2
ATOM      2  O   UNL     1       8.199  -5.944  26.941  0.00  0.00    -0.386 OA
ATOM      3  H   UNL     1       7.581  -6.700  26.980  0.00  0.00    +0.210 HD
ENDBRANCH   1   2
BRANCH   1   4
ATOM      4  C   UNL     1       8.640  -4.886  24.777  0.00  0.00    +0.210 C 
BRANCH   4   6
ATOM      5  C   UNL     1       8.565  -2.427  25.641  0.00  0.00    +0.089 C 
ATOM      6  C   UNL     1       9.157  -3.452  24.707  0.00  0.00    +0.161 C 
ATOM      7  O   UNL     1      10.061  -3.145  23.913  0.00  0.00    -0.295 OA
ENDBRANCH   4   6
BRANCH   4   8
ATOM      8  O   UNL     1       9.677  -5.863  24.812  0.00  0.00    -0.382 OA
ATOM      9  H   UNL     1       9.284  -6.723  24.577  0.00  0.00    +0.210 HD
ENDBRANCH   4   8
ENDBRANCH   1   4
BRANCH   1  10
ATOM     10  C   UNL     1       6.303  -5.577  25.487  0.00  0.00    +0.206 C 
BRANCH  10  11
ATOM     11  O   UNL     1       6.325  -5.682  24.065  0.00  0.00    -0.284 OA
BRANCH  11  12
ATOM     12  P   UNL     1       4.766  -5.782  23.320  0.00  0.00    +0.472 P 
ATOM     13  O   UNL     1       3.372  -5.872  22.654  0.00  0.00    -0.228 OA
BRANCH  12  14
ATOM     14  O   UNL     1       4.702  -7.273  23.981  0.00  0.00    -0.303 OA
ATOM     15  H   UNL     1       4.999  -7.950  23.353  0.00  0.00    +0.222 HD
ENDBRANCH  12  14
BRANCH  12  16
ATOM     16  O   UNL     1       5.537  -6.191  21.942  0.00  0.00    -0.303 OA
ATOM     17  H   UNL     1       5.035  -6.944  21.575  0.00  0.00    +0.222 HD
ENDBRANCH  12  16
ENDBRANCH  11  12
ENDBRANCH  10  11
ENDBRANCH   1  10
TORSDOF 9
ENDMDL
MODEL 6
REMARK VINA RESULT:      -4.5      2.887      5.459
REMARK  Name = 
REMARK  10 active torsions:
REMARK  status: ('A' for Active; 'I' for Inactive)
REMARK    1  A    between atoms: C_1  and  C_2
REMARK    2  A    between atoms: C_2  and  C_4
REMARK    3  A    between atoms: C_4  and  O_6
REMARK    4  A    between atoms: C_4  and  C_7
REMARK    5  A    between atoms: C_7  and  O_9
REMARK    6  A    between atoms: C_7  and  C_10
REMARK    7  A    between atoms: C_10  and  O_11
REMARK    8  A    between atoms: O_11  and  P_12
REMARK    9  A    between atoms: P_12  and  O_13
REMARK   10  A    between atoms: P_12  and  O_14
REMARK                            x       y       z     vdW  Elec       q    Type
REMARK                         _______ _______ _______ _____ _____    ______ ____
ROOT
ATOM      1  C   UNL     1       9.141  -1.262  21.767  0.00  0.00    +0.176 C 
ENDROOT
BRANCH   1   2
ATOM      2  O   UNL     1      10.513  -1.666  21.863  0.00  0.00    -0.386 OA
ATOM      3  H   UNL     1      10.629  -2.382  21.210  0.00  0.00    +0.210 HD
ENDBRANCH   1   2
BRANCH   1   4
ATOM      4  C   UNL     1       8.382  -1.585  23.065  0.00  0.00    +0.210 C 
BRANCH   4   6
ATOM      5  C   UNL     1       6.289  -2.914  22.256  0.00  0.00    +0.089 C 
ATOM      6  C   UNL     1       7.637  -2.911  22.931  0.00  0.00    +0.161 C 
ATOM      7  O   UNL     1       8.143  -3.965  23.351  0.00  0.00    -0.295 OA
ENDBRANCH   4   6
BRANCH   4   8
ATOM      8  O   UNL     1       9.237  -1.526  24.204  0.00  0.00    -0.382 OA
ATOM      9  H   UNL     1       9.486  -0.596  24.341  0.00  0.00    +0.210 HD
ENDBRANCH   4   8
ENDBRANCH   1   4
BRANCH   1  10
ATOM     10  C   UNL     1       9.083   0.237  21.445  0.00  0.00    +0.206 C 
BRANCH  10  11
ATOM     11  O   UNL     1       8.714   0.940  22.629  0.00  0.00    -0.284 OA
BRANCH  11  12
ATOM     12  P   UNL     1       9.829   2.167  23.124  0.00  0.00    +0.472 P 
ATOM     13  O   UNL     1      10.827   3.265  23.566  0.00  0.00    -0.228 OA
BRANCH  12  14
ATOM     14  O   UNL     1      10.299   2.172  21.561  0.00  0.00    -0.303 OA
ATOM     15  H   UNL     1      10.728   1.337  21.319  0.00  0.00    +0.222 HD
ENDBRANCH  12  14
BRANCH  12  16
ATOM     16  O   UNL     1      10.804   0.964  23.638  0.00  0.00    -0.303 OA
ATOM     17  H   UNL     1      10.325   0.538  24.375  0.00  0.00    +0.222 HD
ENDBRANCH  12  16
ENDBRANCH  11  12
ENDBRANCH  10  11
ENDBRANCH   1  10
TORSDOF 9
ENDMDL
MODEL 7
REMARK VINA RESULT:      -4.5      2.795      5.954
REMARK  Name = 
REMARK  10 active torsions:
REMARK  status: ('A' for Active; 'I' for Inactive)
REMARK    1  A    between atoms: C_1  and  C_2
REMARK    2  A    between atoms: C_2  and  C_4
REMARK    3  A    between atoms: C_4  and  O_6
REMARK    4  A    between atoms: C_4  and  C_7
REMARK    5  A    between atoms: C_7  and  O_9
REMARK    6  A    between atoms: C_7  and  C_10
REMARK    7  A    between atoms: C_10  and  O_11
REMARK    8  A    between atoms: O_11  and  P_12
REMARK    9  A    between atoms: P_12  and  O_13
REMARK   10  A    between atoms: P_12  and  O_14
REMARK                            x       y       z     vdW  Elec       q    Type
REMARK                         _______ _______ _______ _____ _____    ______ ____
ROOT
ATOM      1  C   UNL     1      10.654  -0.150  23.547  0.00  0.00    +0.176 C 
ENDROOT
BRANCH   1   2
ATOM      2  O   UNL     1      10.017  -0.421  24.802  0.00  0.00    -0.386 OA
ATOM      3  H   UNL     1      10.738  -0.514  25.454  0.00  0.00    +0.210 HD
ENDBRANCH   1   2
BRANCH   1   4
ATOM      4  C   UNL     1      10.320  -1.241  22.515  0.00  0.00    +0.210 C 
BRANCH   4   6
ATOM      5  C   UNL     1       8.050  -2.500  22.773  0.00  0.00    +0.089 C 
ATOM      6  C   UNL     1       9.499  -2.354  23.162  0.00  0.00    +0.161 C 
ATOM      7  O   UNL     1      10.023  -3.133  23.976  0.00  0.00    -0.295 OA
ENDBRANCH   4   6
BRANCH   4   8
ATOM      8  O   UNL     1       9.713  -0.694  21.347  0.00  0.00    -0.382 OA
ATOM      9  H   UNL     1      10.240  -0.974  20.579  0.00  0.00    +0.210 HD
ENDBRANCH   4   8
ENDBRANCH   1   4
BRANCH   1  10
ATOM     10  C   UNL     1      10.217   1.237  23.054  0.00  0.00    +0.206 C 
BRANCH  10  11
ATOM     11  O   UNL     1       8.867   1.456  23.460  0.00  0.00    -0.284 OA
BRANCH  11  12
ATOM     12  P   UNL     1       8.033   2.687  22.574  0.00  0.00    +0.472 P 
ATOM     13  O   UNL     1       7.286   3.786  21.782  0.00  0.00    -0.228 OA
BRANCH  12  14
ATOM     14  O   UNL     1       8.853   2.116  21.284  0.00  0.00    -0.303 OA
ATOM     15  H   UNL     1       8.257   1.931  20.541  0.00  0.00    +0.222 HD
ENDBRANCH  12  14
BRANCH  12  16
ATOM     16  O   UNL     1       9.168   3.730  23.107  0.00  0.00    -0.303 OA
ATOM     17  H   UNL     1       8.926   3.929  24.033  0.00  0.00    +0.222 HD
ENDBRANCH  12  16
ENDBRANCH  11  12
ENDBRANCH  10  11
ENDBRANCH   1  10
TORSDOF 9
ENDMDL
MODEL 8
REMARK VINA RESULT:      -4.4      1.874      2.803
REMARK  Name = 
REMARK  10 active torsions:
REMARK  status: ('A' for Active; 'I' for Inactive)
REMARK    1  A    between atoms: C_1  and  C_2
REMARK    2  A    between atoms: C_2  and  C_4
REMARK    3  A    between atoms: C_4  and  O_6
REMARK    4  A    between atoms: C_4  and  C_7
REMARK    5  A    between atoms: C_7  and  O_9
REMARK    6  A    between atoms: C_7  and  C_10
REMARK    7  A    between atoms: C_10  and  O_11
REMARK    8  A    between atoms: O_11  and  P_12
REMARK    9  A    between atoms: P_12  and  O_13
REMARK   10  A    between atoms: P_12  and  O_14
REMARK                            x       y       z     vdW  Elec       q    Type
REMARK                         _______ _______ _______ _____ _____    ______ ____
ROOT
ATOM      1  C   UNL     1       9.183  -1.922  23.668  0.00  0.00    +0.176 C 
ENDROOT
BRANCH   1   2
ATOM      2  O   UNL     1      10.231  -2.894  23.766  0.00  0.00    -0.386 OA
ATOM      3  H   UNL     1      11.046  -2.392  23.961  0.00  0.00    +0.210 HD
ENDBRANCH   1   2
BRANCH   1   4
ATOM      4  C   UNL     1       9.410  -0.988  22.467  0.00  0.00    +0.210 C 
BRANCH   4   6
ATOM      5  C   UNL     1       9.993   1.524  22.079  0.00  0.00    +0.089 C 
ATOM      6  C   UNL     1      10.151   0.273  22.905  0.00  0.00    +0.161 C 
ATOM      7  O   UNL     1      10.850   0.270  23.932  0.00  0.00    -0.295 OA
ENDBRANCH   4   6
BRANCH   4   8
ATOM      8  O   UNL     1      10.038  -1.668  21.383  0.00  0.00    -0.382 OA
ATOM      9  H   UNL     1       9.337  -2.031  20.814  0.00  0.00    +0.210 HD
ENDBRANCH   4   8
ENDBRANCH   1   4
BRANCH   1  10
ATOM     10  C   UNL     1       7.835  -2.649  23.563  0.00  0.00    +0.206 C 
BRANCH  10  11
ATOM     11  O   UNL     1       7.768  -3.295  22.293  0.00  0.00    -0.284 OA
BRANCH  11  12
ATOM     12  P   UNL     1       7.077  -4.881  22.320  0.00  0.00    +0.472 P 
ATOM     13  O   UNL     1       6.458  -6.299  22.344  0.00  0.00    -0.228 OA
BRANCH  12  14
ATOM     14  O   UNL     1       6.016  -4.247  23.387  0.00  0.00    -0.303 OA
ATOM     15  H   UNL     1       5.174  -4.728  23.373  0.00  0.00    +0.222 HD
ENDBRANCH  12  14
BRANCH  12  16
ATOM     16  O   UNL     1       8.241  -5.285  23.389  0.00  0.00    -0.303 OA
ATOM     17  H   UNL     1       8.631  -6.114  23.049  0.00  0.00    +0.222 HD
ENDBRANCH  12  16
ENDBRANCH  11  12
ENDBRANCH  10  11
ENDBRANCH   1  10
TORSDOF 9
ENDMDL
MODEL 9
REMARK VINA RESULT:      -4.3      2.234      3.290
REMARK  Name = 
REMARK  10 active torsions:
REMARK  status: ('A' for Active; 'I' for Inactive)
REMARK    1  A    between atoms: C_1  and  C_2
REMARK    2  A    between atoms: C_2  and  C_4
REMARK    3  A    between atoms: C_4  and  O_6
REMARK    4  A    between atoms: C_4  and  C_7
REMARK    5  A    between atoms: C_7  and  O_9
REMARK    6  A    between atoms: C_7  and  C_10
REMARK    7  A    between atoms: C_10  and  O_11
REMARK    8  A    between atoms: O_11  and  P_12
REMARK    9  A    between atoms: P_12  and  O_13
REMARK   10  A    between atoms: P_12  and  O_14
REMARK                            x       y       z     vdW  Elec       q    Type
REMARK                         _______ _______ _______ _____ _____    ______ ____
ROOT
ATOM      1  C   UNL     1      10.061   1.017  22.185  0.00  0.00    +0.176 C 
ENDROOT
BRANCH   1   2
ATOM      2  O   UNL     1       9.761   2.205  21.440  0.00  0.00    -0.386 OA
ATOM      3  H   UNL     1      10.553   2.390  20.900  0.00  0.00    +0.210 HD
ENDBRANCH   1   2
BRANCH   1   4
ATOM      4  C   UNL     1      10.418   1.359  23.642  0.00  0.00    +0.210 C 
BRANCH   4   6
ATOM      5  C   UNL     1       8.378   2.183  25.041  0.00  0.00    +0.089 C 
ATOM      6  C   UNL     1       9.549   2.507  24.149  0.00  0.00    +0.161 C 
ATOM      7  O   UNL     1       9.816   3.682  23.848  0.00  0.00    -0.295 OA
ENDBRANCH   4   6
BRANCH   4   8
ATOM      8  O   UNL     1      10.381   0.206  24.478  0.00  0.00    -0.382 OA
ATOM      9  H   UNL     1      11.246   0.128  24.917  0.00  0.00    +0.210 HD
ENDBRANCH   4   8
ENDBRANCH   1   4
BRANCH   1  10
ATOM     10  C   UNL     1       8.859   0.065  22.114  0.00  0.00    +0.206 C 
BRANCH  10  11
ATOM     11  O   UNL     1       9.345  -1.267  21.962  0.00  0.00    -0.284 OA
BRANCH  11  12
ATOM     12  P   UNL     1       8.507  -2.458  22.896  0.00  0.00    +0.472 P 
ATOM     13  O   UNL     1       7.757  -3.523  23.731  0.00  0.00    -0.228 OA
BRANCH  12  14
ATOM     14  O   UNL     1       7.889  -1.183  23.707  0.00  0.00    -0.303 OA
ATOM     15  H   UNL     1       7.870  -1.349  24.662  0.00  0.00    +0.222 HD
ENDBRANCH  12  14
BRANCH  12  16
ATOM     16  O   UNL     1       9.876  -2.625  23.767  0.00  0.00    -0.303 OA
ATOM     17  H   UNL     1      10.473  -3.164  23.214  0.00  0.00    +0.222 HD
ENDBRANCH  12  16
ENDBRANCH  11  12
ENDBRANCH  10  11
ENDBRANCH   1  10
TORSDOF 9
ENDMDL
