MODEL 1
REMARK VINA RESULT:      -5.2      0.000      0.000
REMARK  Name = 
REMARK  6 active torsions:
REMARK  status: ('A' for Active; 'I' for Inactive)
REMARK    1  A    between atoms: C_1  and  N_2
REMARK    2  A    between atoms: N_2  and  C_3
REMARK    3  A    between atoms: C_8  and  O_10
REMARK    4  A    between atoms: C_11  and  O_13
REMARK    5  A    between atoms: C_14  and  C_16
REMARK    6  A    between atoms: C_16  and  O_17
REMARK                            x       y       z     vdW  Elec       q    Type
REMARK                         _______ _______ _______ _____ _____    ______ ____
ROOT
ATOM      1  C   UNL     1       7.883   4.430  23.806  0.00  0.00    +0.133 C 
ATOM      2  N   UNL     1       7.449   3.437  22.840  0.00  0.00    -0.292 N 
ATOM      3  C   UNL     1       8.280   2.453  22.386  0.00  0.00    +0.281 C 
ATOM      4  O   UNL     1       9.510   2.438  22.963  0.00  0.00    -0.460 OA
ATOM      5  C   UNL     1      10.214   1.354  22.376  0.00  0.00    +0.211 C 
ATOM      6  C   UNL     1       9.224   0.735  21.392  0.00  0.00    +0.182 C 
ATOM      7  C   UNL     1       8.965  -0.697  21.886  0.00  0.00    +0.171 C 
ATOM      8  C   UNL     1       9.333  -0.644  23.371  0.00  0.00    +0.154 C 
ATOM      9  C   UNL     1      10.564   0.265  23.391  0.00  0.00    +0.088 C 
ATOM     10  N   UNL     1       8.009   1.550  21.505  0.00  0.00    -0.227 NA
ATOM     11  C   UNL     1       6.105   3.548  22.303  0.00  0.00    +0.133 C 
ENDROOT
BRANCH   7  12
ATOM     12  O   UNL     1       9.796  -1.665  21.226  0.00  0.00    -0.387 OA
ATOM     13  H   UNL     1      10.686  -1.293  21.096  0.00  0.00    +0.210 HD
ENDBRANCH   7  12
BRANCH   8  14
ATOM     14  O   UNL     1       9.653  -1.926  23.902  0.00  0.00    -0.389 OA
ATOM     15  H   UNL     1       9.830  -1.785  24.856  0.00  0.00    +0.210 HD
ENDBRANCH   8  14
BRANCH   9  16
ATOM     16  C   UNL     1      10.885   0.763  24.793  0.00  0.00    +0.165 C 
BRANCH  16  17
ATOM     17  O   UNL     1       9.719   0.728  25.610  0.00  0.00    -0.395 OA
ATOM     18  H   UNL     1       9.513   1.651  25.868  0.00  0.00    +0.209 HD
ENDBRANCH  16  17
ENDBRANCH   9  16
TORSDOF 4
ENDMDL
MODEL 2
REMARK VINA RESULT:      -5.1      2.298      4.282
REMARK  Name = 
REMARK  6 active torsions:
REMARK  status: ('A' for Active; 'I' for Inactive)
REMARK    1  A    between atoms: C_1  and  N_2
REMARK    2  A    between atoms: N_2  and  C_3
REMARK    3  A    between atoms: C_8  and  O_10
REMARK    4  A    between atoms: C_11  and  O_13
REMARK    5  A    between atoms: C_14  and  C_16
REMARK    6  A    between atoms: C_16  and  O_17
REMARK                            x       y       z     vdW  Elec       q    Type
REMARK                         _______ _______ _______ _____ _____    ______ ____
ROOT
ATOM      1  C   UNL     1       9.132  -3.490  24.476  0.00  0.00    +0.133 C 
ATOM      2  N   UNL     1       8.247  -2.881  23.500  0.00  0.00    -0.292 N 
ATOM      3  C   UNL     1       8.019  -1.535  23.464  0.00  0.00    +0.281 C 
ATOM      4  O   UNL     1       8.741  -0.814  24.361  0.00  0.00    -0.460 OA
ATOM      5  C   UNL     1       8.380   0.545  24.165  0.00  0.00    +0.211 C 
ATOM      6  C   UNL     1       7.363   0.517  23.026  0.00  0.00    +0.182 C 
ATOM      7  C   UNL     1       7.991   1.311  21.871  0.00  0.00    +0.171 C 
ATOM      8  C   UNL     1       9.493   1.260  22.163  0.00  0.00    +0.154 C 
ATOM      9  C   UNL     1       9.555   1.399  23.686  0.00  0.00    +0.088 C 
ATOM     10  N   UNL     1       7.227  -0.899  22.667  0.00  0.00    -0.227 NA
ATOM     11  C   UNL     1       7.539  -3.755  22.581  0.00  0.00    +0.133 C 
ENDROOT
BRANCH   7  12
ATOM     12  O   UNL     1       7.560   2.681  21.846  0.00  0.00    -0.387 OA
ATOM     13  H   UNL     1       6.782   2.765  21.267  0.00  0.00    +0.210 HD
ENDBRANCH   7  12
BRANCH   8  14
ATOM     14  O   UNL     1      10.210   2.318  21.537  0.00  0.00    -0.389 OA
ATOM     15  H   UNL     1      11.136   2.005  21.457  0.00  0.00    +0.210 HD
ENDBRANCH   8  14
BRANCH   9  16
ATOM     16  C   UNL     1      10.915   1.004  24.242  0.00  0.00    +0.165 C 
BRANCH  16  17
ATOM     17  O   UNL     1      10.780   0.508  25.571  0.00  0.00    -0.395 OA
ATOM     18  H   UNL     1      10.953  -0.457  25.543  0.00  0.00    +0.209 HD
ENDBRANCH  16  17
ENDBRANCH   9  16
TORSDOF 4
ENDMDL
MODEL 3
REMARK VINA RESULT:      -5.1      2.500      4.277
REMARK  Name = 
REMARK  6 active torsions:
REMARK  status: ('A' for Active; 'I' for Inactive)
REMARK    1  A    between atoms: C_1  and  N_2
REMARK    2  A    between atoms: N_2  and  C_3
REMARK    3  A    between atoms: C_8  and  O_10
REMARK    4  A    between atoms: C_11  and  O_13
REMARK    5  A    between atoms: C_14  and  C_16
REMARK    6  A    between atoms: C_16  and  O_17
REMARK                            x       y       z     vdW  Elec       q    Type
REMARK                         _______ _______ _______ _____ _____    ______ ____
ROOT
ATOM      1  C   UNL     1       8.299  -2.250  26.260  0.00  0.00    +0.133 C 
ATOM      2  N   UNL     1       8.473  -0.810  26.201  0.00  0.00    -0.292 N 
ATOM      3  C   UNL     1       9.233  -0.209  25.238  0.00  0.00    +0.281 C 
ATOM      4  O   UNL     1       9.745  -1.056  24.308  0.00  0.00    -0.460 OA
ATOM      5  C   UNL     1      10.485  -0.255  23.400  0.00  0.00    +0.211 C 
ATOM      6  C   UNL     1      10.322   1.172  23.920  0.00  0.00    +0.182 C 
ATOM      7  C   UNL     1       9.586   1.949  22.818  0.00  0.00    +0.171 C 
ATOM      8  C   UNL     1       8.874   0.858  22.012  0.00  0.00    +0.154 C 
ATOM      9  C   UNL     1       9.899  -0.278  21.988  0.00  0.00    +0.088 C 
ATOM     10  N   UNL     1       9.483   1.052  25.117  0.00  0.00    -0.227 NA
ATOM     11  C   UNL     1       7.865  -0.004  27.244  0.00  0.00    +0.133 C 
ENDROOT
BRANCH   7  12
ATOM     12  O   UNL     1      10.484   2.665  21.955  0.00  0.00    -0.387 OA
ATOM     13  H   UNL     1      10.714   2.106  21.192  0.00  0.00    +0.210 HD
ENDBRANCH   7  12
BRANCH   8  14
ATOM     14  O   UNL     1       8.559   1.273  20.687  0.00  0.00    -0.389 OA
ATOM     15  H   UNL     1       9.267   0.907  20.116  0.00  0.00    +0.210 HD
ENDBRANCH   8  14
BRANCH   9  16
ATOM     16  C   UNL     1       9.278  -1.601  21.565  0.00  0.00    +0.165 C 
BRANCH  16  17
ATOM     17  O   UNL     1       8.042  -1.807  22.243  0.00  0.00    -0.395 OA
ATOM     18  H   UNL     1       7.402  -2.157  21.589  0.00  0.00    +0.209 HD
ENDBRANCH  16  17
ENDBRANCH   9  16
TORSDOF 4
ENDMDL
MODEL 4
REMARK VINA RESULT:      -5.1      2.837      4.912
REMARK  Name = 
REMARK  6 active torsions:
REMARK  status: ('A' for Active; 'I' for Inactive)
REMARK    1  A    between atoms: C_1  and  N_2
REMARK    2  A    between atoms: N_2  and  C_3
REMARK    3  A    between atoms: C_8  and  O_10
REMARK    4  A    between atoms: C_11  and  O_13
REMARK    5  A    between atoms: C_14  and  C_16
REMARK    6  A    between atoms: C_16  and  O_17
REMARK                            x       y       z     vdW  Elec       q    Type
REMARK                         _______ _______ _______ _____ _____    ______ ____
ROOT
ATOM      1  C   UNL     1       6.509  -3.560  21.859  0.00  0.00    +0.133 C 
ATOM      2  N   UNL     1       6.917  -3.307  23.228  0.00  0.00    -0.292 N 
ATOM      3  C   UNL     1       8.045  -2.599  23.532  0.00  0.00    +0.281 C 
ATOM      4  O   UNL     1       8.704  -2.094  22.457  0.00  0.00    -0.460 OA
ATOM      5  C   UNL     1       9.826  -1.392  22.969  0.00  0.00    +0.211 C 
ATOM      6  C   UNL     1       9.722  -1.545  24.485  0.00  0.00    +0.182 C 
ATOM      7  C   UNL     1       9.539  -0.127  25.048  0.00  0.00    +0.171 C 
ATOM      8  C   UNL     1       8.984   0.670  23.865  0.00  0.00    +0.154 C 
ATOM      9  C   UNL     1       9.762   0.107  22.673  0.00  0.00    +0.088 C 
ATOM     10  N   UNL     1       8.516  -2.351  24.708  0.00  0.00    -0.227 NA
ATOM     11  C   UNL     1       6.124  -3.888  24.296  0.00  0.00    +0.133 C 
ENDROOT
BRANCH   7  12
ATOM     12  O   UNL     1      10.778   0.460  25.475  0.00  0.00    -0.387 OA
ATOM     13  H   UNL     1      11.063   1.124  24.823  0.00  0.00    +0.210 HD
ENDBRANCH   7  12
BRANCH   8  14
ATOM     14  O   UNL     1       9.210   2.069  23.992  0.00  0.00    -0.389 OA
ATOM     15  H   UNL     1       8.323   2.477  24.083  0.00  0.00    +0.210 HD
ENDBRANCH   8  14
BRANCH   9  16
ATOM     16  C   UNL     1       9.124   0.481  21.343  0.00  0.00    +0.165 C 
BRANCH  16  17
ATOM     17  O   UNL     1       9.140   1.894  21.166  0.00  0.00    -0.395 OA
ATOM     18  H   UNL     1       9.207   2.301  22.056  0.00  0.00    +0.209 HD
ENDBRANCH  16  17
ENDBRANCH   9  16
TORSDOF 4
ENDMDL
MODEL 5
REMARK VINA RESULT:      -5.0      2.235      3.253
REMARK  Name = 
REMARK  6 active torsions:
REMARK  status: ('A' for Active; 'I' for Inactive)
REMARK    1  A    between atoms: C_1  and  N_2
REMARK    2  A    between atoms: N_2  and  C_3
REMARK    3  A    between atoms: C_8  and  O_10
REMARK    4  A    between atoms: C_11  and  O_13
REMARK    5  A    between atoms: C_14  and  C_16
REMARK    6  A    between atoms: C_16  and  O_17
REMARK                            x       y       z     vdW  Elec       q    Type
REMARK                         _______ _______ _______ _____ _____    ______ ____
ROOT
ATOM      1  C   UNL     1       8.695   3.722  24.373  0.00  0.00    +0.133 C 
ATOM      2  N   UNL     1       9.795   2.836  24.039  0.00  0.00    -0.292 N 
ATOM      3  C   UNL     1       9.768   1.502  24.329  0.00  0.00    +0.281 C 
ATOM      4  O   UNL     1       8.607   1.066  24.885  0.00  0.00    -0.460 OA
ATOM      5  C   UNL     1       8.766  -0.328  25.102  0.00  0.00    +0.211 C 
ATOM      6  C   UNL     1      10.168  -0.644  24.585  0.00  0.00    +0.182 C 
ATOM      7  C   UNL     1       9.983  -1.622  23.414  0.00  0.00    +0.171 C 
ATOM      8  C   UNL     1       8.543  -1.377  22.955  0.00  0.00    +0.154 C 
ATOM      9  C   UNL     1       7.791  -1.163  24.271  0.00  0.00    +0.088 C 
ATOM     10  N   UNL     1      10.701   0.637  24.111  0.00  0.00    -0.227 NA
ATOM     11  C   UNL     1      10.980   3.416  23.433  0.00  0.00    +0.133 C 
ENDROOT
BRANCH   7  12
ATOM     12  O   UNL     1      10.126  -2.994  23.815  0.00  0.00    -0.387 OA
ATOM     13  H   UNL     1      10.767  -3.052  24.545  0.00  0.00    +0.210 HD
ENDBRANCH   7  12
BRANCH   8  14
ATOM     14  O   UNL     1       7.999  -2.483  22.244  0.00  0.00    -0.389 OA
ATOM     15  H   UNL     1       7.666  -3.104  22.926  0.00  0.00    +0.210 HD
ENDBRANCH   8  14
BRANCH   9  16
ATOM     16  C   UNL     1       6.421  -0.538  24.053  0.00  0.00    +0.165 C 
BRANCH  16  17
ATOM     17  O   UNL     1       6.415   0.236  22.857  0.00  0.00    -0.395 OA
ATOM     18  H   UNL     1       6.601  -0.373  22.112  0.00  0.00    +0.209 HD
ENDBRANCH  16  17
ENDBRANCH   9  16
TORSDOF 4
ENDMDL
MODEL 6
REMARK VINA RESULT:      -4.9      4.662      6.051
REMARK  Name = 
REMARK  6 active torsions:
REMARK  status: ('A' for Active; 'I' for Inactive)
REMARK    1  A    between atoms: C_1  and  N_2
REMARK    2  A    between atoms: N_2  and  C_3
REMARK    3  A    between atoms: C_8  and  O_10
REMARK    4  A    between atoms: C_11  and  O_13
REMARK    5  A    between atoms: C_14  and  C_16
REMARK    6  A    between atoms: C_16  and  O_17
REMARK                            x       y       z     vdW  Elec       q    Type
REMARK                         _______ _______ _______ _____ _____    ______ ____
ROOT
ATOM      1  C   UNL     1       9.775  -1.112  24.427  0.00  0.00    +0.133 C 
ATOM      2  N   UNL     1       8.769  -1.560  23.481  0.00  0.00    -0.292 N 
ATOM      3  C   UNL     1       8.357  -2.861  23.420  0.00  0.00    +0.281 C 
ATOM      4  O   UNL     1       8.908  -3.675  24.358  0.00  0.00    -0.460 OA
ATOM      5  C   UNL     1       8.356  -4.965  24.141  0.00  0.00    +0.211 C 
ATOM      6  C   UNL     1       7.402  -4.787  22.962  0.00  0.00    +0.182 C 
ATOM      7  C   UNL     1       5.997  -5.112  23.494  0.00  0.00    +0.171 C 
ATOM      8  C   UNL     1       6.118  -4.898  25.005  0.00  0.00    +0.154 C 
ATOM      9  C   UNL     1       7.511  -5.445  25.322  0.00  0.00    +0.088 C 
ATOM     10  N   UNL     1       7.503  -3.370  22.597  0.00  0.00    -0.227 NA
ATOM     11  C   UNL     1       8.242  -0.594  22.535  0.00  0.00    +0.133 C 
ENDROOT
BRANCH   7  12
ATOM     12  O   UNL     1       5.613  -6.472  23.237  0.00  0.00    -0.387 OA
ATOM     13  H   UNL     1       5.740  -6.671  22.293  0.00  0.00    +0.210 HD
ENDBRANCH   7  12
BRANCH   8  14
ATOM     14  O   UNL     1       5.125  -5.605  25.740  0.00  0.00    -0.389 OA
ATOM     15  H   UNL     1       5.183  -5.272  26.660  0.00  0.00    +0.210 HD
ENDBRANCH   8  14
BRANCH   9  16
ATOM     16  C   UNL     1       8.002  -5.004  26.694  0.00  0.00    +0.165 C 
BRANCH  16  17
ATOM     17  O   UNL     1       7.608  -5.947  27.686  0.00  0.00    -0.395 OA
ATOM     18  H   UNL     1       8.085  -6.784  27.502  0.00  0.00    +0.209 HD
ENDBRANCH  16  17
ENDBRANCH   9  16
TORSDOF 4
ENDMDL
MODEL 7
REMARK VINA RESULT:      -4.9      4.202      5.869
REMARK  Name = 
REMARK  6 active torsions:
REMARK  status: ('A' for Active; 'I' for Inactive)
REMARK    1  A    between atoms: C_1  and  N_2
REMARK    2  A    between atoms: N_2  and  C_3
REMARK    3  A    between atoms: C_8  and  O_10
REMARK    4  A    between atoms: C_11  and  O_13
REMARK    5  A    between atoms: C_14  and  C_16
REMARK    6  A    between atoms: C_16  and  O_17
REMARK                            x       y       z     vdW  Elec       q    Type
REMARK                         _______ _______ _______ _____ _____    ______ ____
ROOT
ATOM      1  C   UNL     1       7.426  -0.019  23.271  0.00  0.00    +0.133 C 
ATOM      2  N   UNL     1       7.986  -0.441  24.542  0.00  0.00    -0.292 N 
ATOM      3  C   UNL     1       7.729  -1.671  25.078  0.00  0.00    +0.281 C 
ATOM      4  O   UNL     1       6.974  -2.484  24.294  0.00  0.00    -0.460 OA
ATOM      5  C   UNL     1       6.826  -3.702  25.008  0.00  0.00    +0.211 C 
ATOM      6  C   UNL     1       7.607  -3.492  26.302  0.00  0.00    +0.182 C 
ATOM      7  C   UNL     1       8.746  -4.523  26.290  0.00  0.00    +0.171 C 
ATOM      8  C   UNL     1       8.917  -4.863  24.806  0.00  0.00    +0.154 C 
ATOM      9  C   UNL     1       7.477  -4.884  24.288  0.00  0.00    +0.088 C 
ATOM     10  N   UNL     1       8.142  -2.129  26.212  0.00  0.00    -0.227 NA
ATOM     11  C   UNL     1       8.791   0.512  25.284  0.00  0.00    +0.133 C 
ENDROOT
BRANCH   7  12
ATOM     12  O   UNL     1       8.414  -5.718  27.014  0.00  0.00    -0.387 OA
ATOM     13  H   UNL     1       7.558  -6.060  26.700  0.00  0.00    +0.210 HD
ENDBRANCH   7  12
BRANCH   8  14
ATOM     14  O   UNL     1       9.539  -6.127  24.602  0.00  0.00    -0.389 OA
ATOM     15  H   UNL     1       8.905  -6.656  24.073  0.00  0.00    +0.210 HD
ENDBRANCH   8  14
BRANCH   9  16
ATOM     16  C   UNL     1       7.415  -4.833  22.768  0.00  0.00    +0.165 C 
BRANCH  16  17
ATOM     17  O   UNL     1       7.594  -6.137  22.222  0.00  0.00    -0.395 OA
ATOM     18  H   UNL     1       7.891  -6.029  21.294  0.00  0.00    +0.209 HD
ENDBRANCH  16  17
ENDBRANCH   9  16
TORSDOF 4
ENDMDL
MODEL 8
REMARK VINA RESULT:      -4.8      3.584      5.159
REMARK  Name = 
REMARK  6 active torsions:
REMARK  status: ('A' for Active; 'I' for Inactive)
REMARK    1  A    between atoms: C_1  and  N_2
REMARK    2  A    between atoms: N_2  and  C_3
REMARK    3  A    between atoms: C_8  and  O_10
REMARK    4  A    between atoms: C_11  and  O_13
REMARK    5  A    between atoms: C_14  and  C_16
REMARK    6  A    between atoms: C_16  and  O_17
REMARK                            x       y       z     vdW  Elec       q    Type
REMARK                         _______ _______ _______ _____ _____    ______ ____
ROOT
ATOM      1  C   UNL     1       6.413  -3.434  27.003  0.00  0.00    +0.133 C 
ATOM      2  N   UNL     1       7.415  -3.974  26.101  0.00  0.00    -0.292 N 
ATOM      3  C   UNL     1       7.790  -3.326  24.959  0.00  0.00    +0.281 C 
ATOM      4  O   UNL     1       7.207  -2.112  24.778  0.00  0.00    -0.460 OA
ATOM      5  C   UNL     1       7.723  -1.598  23.560  0.00  0.00    +0.211 C 
ATOM      6  C   UNL     1       8.694  -2.669  23.066  0.00  0.00    +0.182 C 
ATOM      7  C   UNL     1      10.083  -2.014  23.046  0.00  0.00    +0.171 C 
ATOM      8  C   UNL     1       9.955  -0.850  24.033  0.00  0.00    +0.154 C 
ATOM      9  C   UNL     1       8.543  -0.323  23.765  0.00  0.00    +0.088 C 
ATOM     10  N   UNL     1       8.637  -3.733  24.074  0.00  0.00    -0.227 NA
ATOM     11  C   UNL     1       7.978  -5.277  26.407  0.00  0.00    +0.133 C 
ENDROOT
BRANCH   7  12
ATOM     12  O   UNL     1      10.430  -1.500  21.751  0.00  0.00    -0.387 OA
ATOM     13  H   UNL     1       9.979  -2.022  21.064  0.00  0.00    +0.210 HD
ENDBRANCH   7  12
BRANCH   8  14
ATOM     14  O   UNL     1      10.919   0.171  23.804  0.00  0.00    -0.389 OA
ATOM     15  H   UNL     1      11.601   0.057  24.499  0.00  0.00    +0.210 HD
ENDBRANCH   8  14
BRANCH   9  16
ATOM     16  C   UNL     1       8.053   0.593  24.876  0.00  0.00    +0.165 C 
BRANCH  16  17
ATOM     17  O   UNL     1       8.764   0.332  26.082  0.00  0.00    -0.395 OA
ATOM     18  H   UNL     1       8.521  -0.571  26.378  0.00  0.00    +0.209 HD
ENDBRANCH  16  17
ENDBRANCH   9  16
TORSDOF 4
ENDMDL
MODEL 9
REMARK VINA RESULT:      -4.8      6.865      8.662
REMARK  Name = 
REMARK  6 active torsions:
REMARK  status: ('A' for Active; 'I' for Inactive)
REMARK    1  A    between atoms: C_1  and  N_2
REMARK    2  A    between atoms: N_2  and  C_3
REMARK    3  A    between atoms: C_8  and  O_10
REMARK    4  A    between atoms: C_11  and  O_13
REMARK    5  A    between atoms: C_14  and  C_16
REMARK    6  A    between atoms: C_16  and  O_17
REMARK                            x       y       z     vdW  Elec       q    Type
REMARK                         _______ _______ _______ _____ _____    ______ ____
ROOT
ATOM      1  C   UNL     1       8.533  -3.407  24.014  0.00  0.00    +0.133 C 
ATOM      2  N   UNL     1       8.369  -4.479  24.978  0.00  0.00    -0.292 N 
ATOM      3  C   UNL     1       7.145  -4.834  25.470  0.00  0.00    +0.281 C 
ATOM      4  O   UNL     1       6.099  -4.155  24.931  0.00  0.00    -0.460 OA
ATOM      5  C   UNL     1       4.929  -4.664  25.553  0.00  0.00    +0.211 C 
ATOM      6  C   UNL     1       5.435  -5.738  26.513  0.00  0.00    +0.182 C 
ATOM      7  C   UNL     1       4.833  -7.066  26.028  0.00  0.00    +0.171 C 
ATOM      8  C   UNL     1       4.509  -6.806  24.554  0.00  0.00    +0.154 C 
ATOM      9  C   UNL     1       3.998  -5.364  24.562  0.00  0.00    +0.088 C 
ATOM     10  N   UNL     1       6.893  -5.741  26.353  0.00  0.00    -0.227 NA
ATOM     11  C   UNL     1       9.562  -5.143  25.472  0.00  0.00    +0.133 C 
ENDROOT
BRANCH   7  12
ATOM     12  O   UNL     1       3.625  -7.410  26.725  0.00  0.00    -0.387 OA
ATOM     13  H   UNL     1       3.514  -6.818  27.491  0.00  0.00    +0.210 HD
ENDBRANCH   7  12
BRANCH   8  14
ATOM     14  O   UNL     1       3.511  -7.686  24.049  0.00  0.00    -0.389 OA
ATOM     15  H   UNL     1       3.628  -8.531  24.532  0.00  0.00    +0.210 HD
ENDBRANCH   8  14
BRANCH   9  16
ATOM     16  C   UNL     1       3.964  -4.761  23.165  0.00  0.00    +0.165 C 
BRANCH  16  17
ATOM     17  O   UNL     1       4.826  -5.486  22.293  0.00  0.00    -0.395 OA
ATOM     18  H   UNL     1       4.376  -5.553  21.424  0.00  0.00    +0.209 HD
ENDBRANCH  16  17
ENDBRANCH   9  16
TORSDOF 4
ENDMDL
