MODEL 1
REMARK VINA RESULT:      -4.3      0.000      0.000
REMARK  Name = 
REMARK  6 active torsions:
REMARK  status: ('A' for Active; 'I' for Inactive)
REMARK    1  A    between atoms: O_1  and  C_2
REMARK    2  A    between atoms: C_4  and  O_6
REMARK    3  A    between atoms: C_7  and  O_9
REMARK    4  A    between atoms: C_10  and  O_12
REMARK    5  A    between atoms: C_13  and  O_15
REMARK    6  A    between atoms: C_16  and  O_18
REMARK                            x       y       z     vdW  Elec       q    Type
REMARK                         _______ _______ _______ _____ _____    ______ ____
ROOT
ATOM      1  C   UNL     1      10.221   1.947  23.105  0.00  0.00    +0.176 C 
ATOM      2  C   UNL     1      10.572   0.461  23.315  0.00  0.00    +0.176 C 
ATOM      3  C   UNL     1       9.506  -0.446  22.654  0.00  0.00    +0.176 C 
ATOM      4  C   UNL     1       8.081  -0.137  23.164  0.00  0.00    +0.176 C 
ATOM      5  C   UNL     1       7.731   1.366  23.063  0.00  0.00    +0.176 C 
ATOM      6  C   UNL     1       8.822   2.271  23.671  0.00  0.00    +0.176 C 
ENDROOT
BRANCH   1   7
ATOM      7  O   UNL     1      10.287   2.246  21.703  0.00  0.00    -0.386 OA
ATOM      8  H   UNL     1      10.391   1.390  21.243  0.00  0.00    +0.210 HD
ENDBRANCH   1   7
BRANCH   2   9
ATOM      9  O   UNL     1      10.709   0.206  24.714  0.00  0.00    -0.386 OA
ATOM     10  H   UNL     1       9.833  -0.054  25.054  0.00  0.00    +0.210 HD
ENDBRANCH   2   9
BRANCH   3  11
ATOM     11  O   UNL     1       9.545  -0.338  21.225  0.00  0.00    -0.386 OA
ATOM     12  H   UNL     1      10.418  -0.658  20.915  0.00  0.00    +0.210 HD
ENDBRANCH   3  11
BRANCH   4  13
ATOM     13  O   UNL     1       7.966  -0.595  24.517  0.00  0.00    -0.386 OA
ATOM     14  H   UNL     1       7.895  -1.567  24.489  0.00  0.00    +0.210 HD
ENDBRANCH   4  13
BRANCH   5  15
ATOM     15  O   UNL     1       7.470   1.743  21.707  0.00  0.00    -0.386 OA
ATOM     16  H   UNL     1       6.656   2.285  21.700  0.00  0.00    +0.210 HD
ENDBRANCH   5  15
BRANCH   6  17
ATOM     17  O   UNL     1       8.816   2.178  25.098  0.00  0.00    -0.386 OA
ATOM     18  H   UNL     1       9.300   1.355  25.337  0.00  0.00    +0.210 HD
ENDBRANCH   6  17
TORSDOF 6
ENDMDL
MODEL 2
REMARK VINA RESULT:      -4.3      0.676      2.828
REMARK  Name = 
REMARK  6 active torsions:
REMARK  status: ('A' for Active; 'I' for Inactive)
REMARK    1  A    between atoms: O_1  and  C_2
REMARK    2  A    between atoms: C_4  and  O_6
REMARK    3  A    between atoms: C_7  and  O_9
REMARK    4  A    between atoms: C_10  and  O_12
REMARK    5  A    between atoms: C_13  and  O_15
REMARK    6  A    between atoms: C_16  and  O_18
REMARK                            x       y       z     vdW  Elec       q    Type
REMARK                         _______ _______ _______ _____ _____    ______ ____
ROOT
ATOM      1  C   UNL     1       7.774   1.556  22.377  0.00  0.00    +0.176 C 
ATOM      2  C   UNL     1       8.575   2.627  23.144  0.00  0.00    +0.176 C 
ATOM      3  C   UNL     1      10.093   2.336  23.055  0.00  0.00    +0.176 C 
ATOM      4  C   UNL     1      10.445   0.917  23.556  0.00  0.00    +0.176 C 
ATOM      5  C   UNL     1       9.587  -0.177  22.880  0.00  0.00    +0.176 C 
ATOM      6  C   UNL     1       8.079   0.143  22.919  0.00  0.00    +0.176 C 
ENDROOT
BRANCH   1   7
ATOM      7  O   UNL     1       8.096   1.648  20.982  0.00  0.00    -0.386 OA
ATOM      8  H   UNL     1       7.328   1.286  20.497  0.00  0.00    +0.210 HD
ENDBRANCH   1   7
BRANCH   2   9
ATOM      9  O   UNL     1       8.112   2.679  24.494  0.00  0.00    -0.386 OA
ATOM     10  H   UNL     1       7.577   1.879  24.654  0.00  0.00    +0.210 HD
ENDBRANCH   2   9
BRANCH   3  11
ATOM     11  O   UNL     1      10.578   2.513  21.718  0.00  0.00    -0.386 OA
ATOM     12  H   UNL     1      11.047   3.373  21.671  0.00  0.00    +0.210 HD
ENDBRANCH   3  11
BRANCH   4  13
ATOM     13  O   UNL     1      10.287   0.878  24.979  0.00  0.00    -0.386 OA
ATOM     14  H   UNL     1       9.331   0.919  25.166  0.00  0.00    +0.210 HD
ENDBRANCH   4  13
BRANCH   5  15
ATOM     15  O   UNL     1      10.012  -0.405  21.531  0.00  0.00    -0.386 OA
ATOM     16  H   UNL     1       9.640  -1.262  21.243  0.00  0.00    +0.210 HD
ENDBRANCH   5  15
BRANCH   6  17
ATOM     17  O   UNL     1       7.565  -0.016  24.244  0.00  0.00    -0.386 OA
ATOM     18  H   UNL     1       8.091   0.574  24.831  0.00  0.00    +0.210 HD
ENDBRANCH   6  17
TORSDOF 6
ENDMDL
MODEL 3
REMARK VINA RESULT:      -4.3      0.130      3.229
REMARK  Name = 
REMARK  6 active torsions:
REMARK  status: ('A' for Active; 'I' for Inactive)
REMARK    1  A    between atoms: O_1  and  C_2
REMARK    2  A    between atoms: C_4  and  O_6
REMARK    3  A    between atoms: C_7  and  O_9
REMARK    4  A    between atoms: C_10  and  O_12
REMARK    5  A    between atoms: C_13  and  O_15
REMARK    6  A    between atoms: C_16  and  O_18
REMARK                            x       y       z     vdW  Elec       q    Type
REMARK                         _______ _______ _______ _____ _____    ______ ____
ROOT
ATOM      1  C   UNL     1      10.515   0.354  23.206  0.00  0.00    +0.176 C 
ATOM      2  C   UNL     1      10.197   1.856  23.060  0.00  0.00    +0.176 C 
ATOM      3  C   UNL     1       8.815   2.180  23.678  0.00  0.00    +0.176 C 
ATOM      4  C   UNL     1       7.688   1.313  23.072  0.00  0.00    +0.176 C 
ATOM      5  C   UNL     1       8.020  -0.196  23.110  0.00  0.00    +0.176 C 
ATOM      6  C   UNL     1       9.420  -0.511  22.547  0.00  0.00    +0.176 C 
ENDROOT
BRANCH   1   7
ATOM      7  O   UNL     1      10.642   0.042  24.601  0.00  0.00    -0.386 OA
ATOM      8  H   UNL     1      10.111   0.706  25.082  0.00  0.00    +0.210 HD
ENDBRANCH   1   7
BRANCH   2   9
ATOM      9  O   UNL     1      10.271   2.216  21.679  0.00  0.00    -0.386 OA
ATOM     10  H   UNL     1      10.768   3.053  21.618  0.00  0.00    +0.210 HD
ENDBRANCH   2   9
BRANCH   3  11
ATOM     11  O   UNL     1       8.834   2.025  25.103  0.00  0.00    -0.386 OA
ATOM     12  H   UNL     1       8.154   1.363  25.350  0.00  0.00    +0.210 HD
ENDBRANCH   3  11
BRANCH   4  13
ATOM     13  O   UNL     1       7.446   1.746  21.728  0.00  0.00    -0.386 OA
ATOM     14  H   UNL     1       6.646   2.303  21.742  0.00  0.00    +0.210 HD
ENDBRANCH   4  13
BRANCH   5  15
ATOM     15  O   UNL     1       7.888  -0.719  24.437  0.00  0.00    -0.386 OA
ATOM     16  H   UNL     1       7.097  -1.293  24.454  0.00  0.00    +0.210 HD
ENDBRANCH   5  15
BRANCH   6  17
ATOM     17  O   UNL     1       9.437  -0.357  21.125  0.00  0.00    -0.386 OA
ATOM     18  H   UNL     1       9.381  -1.260  20.736  0.00  0.00    +0.210 HD
ENDBRANCH   6  17
TORSDOF 6
ENDMDL
MODEL 4
REMARK VINA RESULT:      -4.2      1.140      2.662
REMARK  Name = 
REMARK  6 active torsions:
REMARK  status: ('A' for Active; 'I' for Inactive)
REMARK    1  A    between atoms: O_1  and  C_2
REMARK    2  A    between atoms: C_4  and  O_6
REMARK    3  A    between atoms: C_7  and  O_9
REMARK    4  A    between atoms: C_10  and  O_12
REMARK    5  A    between atoms: C_13  and  O_15
REMARK    6  A    between atoms: C_16  and  O_18
REMARK                            x       y       z     vdW  Elec       q    Type
REMARK                         _______ _______ _______ _____ _____    ______ ____
ROOT
ATOM      1  C   UNL     1      10.233   1.478  23.520  0.00  0.00    +0.176 C 
ATOM      2  C   UNL     1       8.997   1.312  24.426  0.00  0.00    +0.176 C 
ATOM      3  C   UNL     1       8.286  -0.032  24.131  0.00  0.00    +0.176 C 
ATOM      4  C   UNL     1       7.904  -0.174  22.641  0.00  0.00    +0.176 C 
ATOM      5  C   UNL     1       9.100   0.087  21.698  0.00  0.00    +0.176 C 
ATOM      6  C   UNL     1       9.842   1.397  22.029  0.00  0.00    +0.176 C 
ENDROOT
BRANCH   1   7
ATOM      7  O   UNL     1      11.191   0.462  23.853  0.00  0.00    -0.386 OA
ATOM      8  H   UNL     1      11.983   0.641  23.310  0.00  0.00    +0.210 HD
ENDBRANCH   1   7
BRANCH   2   9
ATOM      9  O   UNL     1       8.131   2.434  24.245  0.00  0.00    -0.386 OA
ATOM     10  H   UNL     1       8.081   2.617  23.288  0.00  0.00    +0.210 HD
ENDBRANCH   2   9
BRANCH   3  11
ATOM     11  O   UNL     1       9.092  -1.146  24.535  0.00  0.00    -0.386 OA
ATOM     12  H   UNL     1      10.032  -0.926  24.359  0.00  0.00    +0.210 HD
ENDBRANCH   3  11
BRANCH   4  13
ATOM     13  O   UNL     1       6.825   0.724  22.354  0.00  0.00    -0.386 OA
ATOM     14  H   UNL     1       6.006   0.307  22.678  0.00  0.00    +0.210 HD
ENDBRANCH   4  13
BRANCH   5  15
ATOM     15  O   UNL     1      10.012  -1.017  21.706  0.00  0.00    -0.386 OA
ATOM     16  H   UNL     1       9.902  -1.488  22.556  0.00  0.00    +0.210 HD
ENDBRANCH   5  15
BRANCH   6  17
ATOM     17  O   UNL     1       9.059   2.530  21.646  0.00  0.00    -0.386 OA
ATOM     18  H   UNL     1       9.535   2.976  20.908  0.00  0.00    +0.210 HD
ENDBRANCH   6  17
TORSDOF 6
ENDMDL
MODEL 5
REMARK VINA RESULT:      -4.2      2.082      3.765
REMARK  Name = 
REMARK  6 active torsions:
REMARK  status: ('A' for Active; 'I' for Inactive)
REMARK    1  A    between atoms: O_1  and  C_2
REMARK    2  A    between atoms: C_4  and  O_6
REMARK    3  A    between atoms: C_7  and  O_9
REMARK    4  A    between atoms: C_10  and  O_12
REMARK    5  A    between atoms: C_13  and  O_15
REMARK    6  A    between atoms: C_16  and  O_18
REMARK                            x       y       z     vdW  Elec       q    Type
REMARK                         _______ _______ _______ _____ _____    ______ ____
ROOT
ATOM      1  C   UNL     1       8.762  -2.822  23.973  0.00  0.00    +0.176 C 
ATOM      2  C   UNL     1       8.251  -2.623  22.532  0.00  0.00    +0.176 C 
ATOM      3  C   UNL     1       8.906  -1.374  21.893  0.00  0.00    +0.176 C 
ATOM      4  C   UNL     1       8.683  -0.101  22.740  0.00  0.00    +0.176 C 
ATOM      5  C   UNL     1       9.090  -0.298  24.219  0.00  0.00    +0.176 C 
ATOM      6  C   UNL     1       8.483  -1.574  24.836  0.00  0.00    +0.176 C 
ENDROOT
BRANCH   1   7
ATOM      7  O   UNL     1      10.166  -3.111  23.930  0.00  0.00    -0.386 OA
ATOM      8  H   UNL     1      10.582  -2.564  24.625  0.00  0.00    +0.210 HD
ENDBRANCH   1   7
BRANCH   2   9
ATOM      9  O   UNL     1       6.825  -2.538  22.549  0.00  0.00    -0.386 OA
ATOM     10  H   UNL     1       6.578  -1.637  22.268  0.00  0.00    +0.210 HD
ENDBRANCH   2   9
BRANCH   3  11
ATOM     11  O   UNL     1      10.308  -1.575  21.678  0.00  0.00    -0.386 OA
ATOM     12  H   UNL     1      10.641  -0.847  21.111  0.00  0.00    +0.210 HD
ENDBRANCH   3  11
BRANCH   4  13
ATOM     13  O   UNL     1       7.307   0.284  22.640  0.00  0.00    -0.386 OA
ATOM     14  H   UNL     1       6.786  -0.364  23.150  0.00  0.00    +0.210 HD
ENDBRANCH   4  13
BRANCH   5  15
ATOM     15  O   UNL     1      10.515  -0.304  24.363  0.00  0.00    -0.386 OA
ATOM     16  H   UNL     1      10.860   0.511  23.948  0.00  0.00    +0.210 HD
ENDBRANCH   5  15
BRANCH   6  17
ATOM     17  O   UNL     1       7.080  -1.409  25.055  0.00  0.00    -0.386 OA
ATOM     18  H   UNL     1       6.972  -0.676  25.705  0.00  0.00    +0.210 HD
ENDBRANCH   6  17
TORSDOF 6
ENDMDL
MODEL 6
REMARK VINA RESULT:      -4.2      2.117      3.366
REMARK  Name = 
REMARK  6 active torsions:
REMARK  status: ('A' for Active; 'I' for Inactive)
REMARK    1  A    between atoms: O_1  and  C_2
REMARK    2  A    between atoms: C_4  and  O_6
REMARK    3  A    between atoms: C_7  and  O_9
REMARK    4  A    between atoms: C_10  and  O_12
REMARK    5  A    between atoms: C_13  and  O_15
REMARK    6  A    between atoms: C_16  and  O_18
REMARK                            x       y       z     vdW  Elec       q    Type
REMARK                         _______ _______ _______ _____ _____    ______ ____
ROOT
ATOM      1  C   UNL     1       8.600  -0.161  22.688  0.00  0.00    +0.176 C 
ATOM      2  C   UNL     1       8.885  -1.437  21.870  0.00  0.00    +0.176 C 
ATOM      3  C   UNL     1       8.271  -2.676  22.568  0.00  0.00    +0.176 C 
ATOM      4  C   UNL     1       8.766  -2.829  24.024  0.00  0.00    +0.176 C 
ATOM      5  C   UNL     1       8.589  -1.532  24.847  0.00  0.00    +0.176 C 
ATOM      6  C   UNL     1       9.149  -0.290  24.125  0.00  0.00    +0.176 C 
ENDROOT
BRANCH   1   7
ATOM      7  O   UNL     1       7.185   0.074  22.701  0.00  0.00    -0.386 OA
ATOM      8  H   UNL     1       6.986   0.607  21.906  0.00  0.00    +0.210 HD
ENDBRANCH   1   7
BRANCH   2   9
ATOM      9  O   UNL     1      10.295  -1.565  21.680  0.00  0.00    -0.386 OA
ATOM     10  H   UNL     1      10.653  -2.057  22.443  0.00  0.00    +0.210 HD
ENDBRANCH   2   9
BRANCH   3  11
ATOM     11  O   UNL     1       6.839  -2.629  22.544  0.00  0.00    -0.386 OA
ATOM     12  H   UNL     1       6.546  -1.860  23.077  0.00  0.00    +0.210 HD
ENDBRANCH   3  11
BRANCH   4  13
ATOM     13  O   UNL     1      10.140  -3.234  24.004  0.00  0.00    -0.386 OA
ATOM     14  H   UNL     1      10.374  -3.511  24.909  0.00  0.00    +0.210 HD
ENDBRANCH   4  13
BRANCH   5  15
ATOM     15  O   UNL     1       7.215  -1.327  25.196  0.00  0.00    -0.386 OA
ATOM     16  H   UNL     1       6.898  -2.137  25.643  0.00  0.00    +0.210 HD
ENDBRANCH   5  15
BRANCH   6  17
ATOM     17  O   UNL     1      10.579  -0.311  24.123  0.00  0.00    -0.386 OA
ATOM     18  H   UNL     1      10.857  -1.102  23.607  0.00  0.00    +0.210 HD
ENDBRANCH   6  17
TORSDOF 6
ENDMDL
MODEL 7
REMARK VINA RESULT:      -4.2      1.178      2.561
REMARK  Name = 
REMARK  6 active torsions:
REMARK  status: ('A' for Active; 'I' for Inactive)
REMARK    1  A    between atoms: O_1  and  C_2
REMARK    2  A    between atoms: C_4  and  O_6
REMARK    3  A    between atoms: C_7  and  O_9
REMARK    4  A    between atoms: C_10  and  O_12
REMARK    5  A    between atoms: C_13  and  O_15
REMARK    6  A    between atoms: C_16  and  O_18
REMARK                            x       y       z     vdW  Elec       q    Type
REMARK                         _______ _______ _______ _____ _____    ______ ____
ROOT
ATOM      1  C   UNL     1       9.813   1.158  22.416  0.00  0.00    +0.176 C 
ATOM      2  C   UNL     1       8.508   0.515  22.925  0.00  0.00    +0.176 C 
ATOM      3  C   UNL     1       7.545   1.599  23.468  0.00  0.00    +0.176 C 
ATOM      4  C   UNL     1       8.202   2.464  24.567  0.00  0.00    +0.176 C 
ATOM      5  C   UNL     1       9.566   3.044  24.126  0.00  0.00    +0.176 C 
ATOM      6  C   UNL     1      10.502   1.972  23.533  0.00  0.00    +0.176 C 
ENDROOT
BRANCH   1   7
ATOM      7  O   UNL     1       9.510   1.992  21.289  0.00  0.00    -0.386 OA
ATOM      8  H   UNL     1       8.537   1.982  21.192  0.00  0.00    +0.210 HD
ENDBRANCH   1   7
BRANCH   2   9
ATOM      9  O   UNL     1       8.826  -0.470  23.910  0.00  0.00    -0.386 OA
ATOM     10  H   UNL     1       8.079  -0.514  24.537  0.00  0.00    +0.210 HD
ENDBRANCH   2   9
BRANCH   3  11
ATOM     11  O   UNL     1       7.062   2.440  22.413  0.00  0.00    -0.386 OA
ATOM     12  H   UNL     1       6.235   2.871  22.716  0.00  0.00    +0.210 HD
ENDBRANCH   3  11
BRANCH   4  13
ATOM     13  O   UNL     1       8.347   1.672  25.752  0.00  0.00    -0.386 OA
ATOM     14  H   UNL     1       8.274   0.736  25.486  0.00  0.00    +0.210 HD
ENDBRANCH   4  13
BRANCH   5  15
ATOM     15  O   UNL     1       9.391   4.121  23.198  0.00  0.00    -0.386 OA
ATOM     16  H   UNL     1       9.744   4.932  23.615  0.00  0.00    +0.210 HD
ENDBRANCH   5  15
BRANCH   6  17
ATOM     17  O   UNL     1      10.995   1.109  24.561  0.00  0.00    -0.386 OA
ATOM     18  H   UNL     1      10.870   0.184  24.247  0.00  0.00    +0.210 HD
ENDBRANCH   6  17
TORSDOF 6
ENDMDL
MODEL 8
REMARK VINA RESULT:      -4.2      1.115      3.161
REMARK  Name = 
REMARK  6 active torsions:
REMARK  status: ('A' for Active; 'I' for Inactive)
REMARK    1  A    between atoms: O_1  and  C_2
REMARK    2  A    between atoms: C_4  and  O_6
REMARK    3  A    between atoms: C_7  and  O_9
REMARK    4  A    between atoms: C_10  and  O_12
REMARK    5  A    between atoms: C_13  and  O_15
REMARK    6  A    between atoms: C_16  and  O_18
REMARK                            x       y       z     vdW  Elec       q    Type
REMARK                         _______ _______ _______ _____ _____    ______ ____
ROOT
ATOM      1  C   UNL     1       8.087  -0.088  22.879  0.00  0.00    +0.176 C 
ATOM      2  C   UNL     1       8.343   0.178  24.376  0.00  0.00    +0.176 C 
ATOM      3  C   UNL     1       9.030   1.551  24.573  0.00  0.00    +0.176 C 
ATOM      4  C   UNL     1      10.338   1.670  23.758  0.00  0.00    +0.176 C 
ATOM      5  C   UNL     1      10.139   1.310  22.268  0.00  0.00    +0.176 C 
ATOM      6  C   UNL     1       9.403  -0.030  22.074  0.00  0.00    +0.176 C 
ENDROOT
BRANCH   1   7
ATOM      7  O   UNL     1       7.147   0.879  22.391  0.00  0.00    -0.386 OA
ATOM      8  H   UNL     1       7.670   1.655  22.108  0.00  0.00    +0.210 HD
ENDBRANCH   1   7
BRANCH   2   9
ATOM      9  O   UNL     1       9.114  -0.897  24.916  0.00  0.00    -0.386 OA
ATOM     10  H   UNL     1       8.630  -1.726  24.740  0.00  0.00    +0.210 HD
ENDBRANCH   2   9
BRANCH   3  11
ATOM     11  O   UNL     1       8.147   2.628  24.234  0.00  0.00    -0.386 OA
ATOM     12  H   UNL     1       8.689   3.385  23.926  0.00  0.00    +0.210 HD
ENDBRANCH   3  11
BRANCH   4  13
ATOM     13  O   UNL     1      11.331   0.828  24.355  0.00  0.00    -0.386 OA
ATOM     14  H   UNL     1      11.737   0.305  23.639  0.00  0.00    +0.210 HD
ENDBRANCH   4  13
BRANCH   5  15
ATOM     15  O   UNL     1       9.455   2.359  21.572  0.00  0.00    -0.386 OA
ATOM     16  H   UNL     1       8.689   1.961  21.113  0.00  0.00    +0.210 HD
ENDBRANCH   5  15
BRANCH   6  17
ATOM     17  O   UNL     1      10.255  -1.127  22.413  0.00  0.00    -0.386 OA
ATOM     18  H   UNL     1      10.582  -0.968  23.329  0.00  0.00    +0.210 HD
ENDBRANCH   6  17
TORSDOF 6
ENDMDL
MODEL 9
REMARK VINA RESULT:      -4.1      2.095      3.908
REMARK  Name = 
REMARK  6 active torsions:
REMARK  status: ('A' for Active; 'I' for Inactive)
REMARK    1  A    between atoms: O_1  and  C_2
REMARK    2  A    between atoms: C_4  and  O_6
REMARK    3  A    between atoms: C_7  and  O_9
REMARK    4  A    between atoms: C_10  and  O_12
REMARK    5  A    between atoms: C_13  and  O_15
REMARK    6  A    between atoms: C_16  and  O_18
REMARK                            x       y       z     vdW  Elec       q    Type
REMARK                         _______ _______ _______ _____ _____    ______ ____
ROOT
ATOM      1  C   UNL     1       8.841  -1.423  21.861  0.00  0.00    +0.176 C 
ATOM      2  C   UNL     1       8.583  -0.129  22.658  0.00  0.00    +0.176 C 
ATOM      3  C   UNL     1       9.192  -0.236  24.077  0.00  0.00    +0.176 C 
ATOM      4  C   UNL     1       8.671  -1.472  24.844  0.00  0.00    +0.176 C 
ATOM      5  C   UNL     1       8.821  -2.778  24.030  0.00  0.00    +0.176 C 
ATOM      6  C   UNL     1       8.265  -2.651  22.597  0.00  0.00    +0.176 C 
ENDROOT
BRANCH   1   7
ATOM      7  O   UNL     1      10.254  -1.566  21.656  0.00  0.00    -0.386 OA
ATOM      8  H   UNL     1      10.657  -1.625  22.544  0.00  0.00    +0.210 HD
ENDBRANCH   1   7
BRANCH   2   9
ATOM      9  O   UNL     1       7.178   0.127  22.690  0.00  0.00    -0.386 OA
ATOM     10  H   UNL     1       7.008   0.919  22.145  0.00  0.00    +0.210 HD
ENDBRANCH   2   9
BRANCH   3  11
ATOM     11  O   UNL     1      10.624  -0.265  24.027  0.00  0.00    -0.386 OA
ATOM     12  H   UNL     1      10.900  -0.238  23.086  0.00  0.00    +0.210 HD
ENDBRANCH   3  11
BRANCH   4  13
ATOM     13  O   UNL     1       7.300  -1.250  25.199  0.00  0.00    -0.386 OA
ATOM     14  H   UNL     1       7.180  -1.577  26.110  0.00  0.00    +0.210 HD
ENDBRANCH   4  13
BRANCH   5  15
ATOM     15  O   UNL     1      10.186  -3.210  23.997  0.00  0.00    -0.386 OA
ATOM     16  H   UNL     1      10.616  -2.901  24.820  0.00  0.00    +0.210 HD
ENDBRANCH   5  15
BRANCH   6  17
ATOM     17  O   UNL     1       6.835  -2.611  22.614  0.00  0.00    -0.386 OA
ATOM     18  H   UNL     1       6.567  -1.726  22.276  0.00  0.00    +0.210 HD
ENDBRANCH   6  17
TORSDOF 6
ENDMDL
