MODEL 1
REMARK VINA RESULT:      -7.4      0.000      0.000
REMARK  Name = 
REMARK  5 active torsions:
REMARK  status: ('A' for Active; 'I' for Inactive)
REMARK    1  A    between atoms: C_1  and  O_2
REMARK    2  A    between atoms: O_2  and  C_3
REMARK    3  A    between atoms: C_4  and  O_5
REMARK    4  A    between atoms: O_5  and  C_6
REMARK    5  A    between atoms: C_22  and  C_24
REMARK                            x       y       z     vdW  Elec       q    Type
REMARK                         _______ _______ _______ _____ _____    ______ ____
ROOT
ATOM      1  C   UNL     1       7.957   3.937  25.809  0.00  0.00    +0.164 A 
ATOM      2  C   UNL     1       7.495   2.619  25.653  0.00  0.00    +0.078 A 
ATOM      3  C   UNL     1       7.857   1.821  24.578  0.00  0.00    +0.082 A 
ATOM      4  C   UNL     1       8.680   2.356  23.599  0.00  0.00    +0.044 A 
ATOM      5  C   UNL     1       8.985   1.482  22.555  0.00  0.00    +0.129 A 
ATOM      6  N   UNL     1       8.552   0.216  22.509  0.00  0.00    -0.199 NA
ATOM      7  C   UNL     1       7.801  -0.231  23.526  0.00  0.00    +0.220 A 
ATOM      8  N   UNL     1       7.491  -1.582  23.594  0.00  0.00    -0.297 N 
ATOM      9  C   UNL     1       6.443  -1.962  24.550  0.00  0.00    +0.127 C 
ATOM     10  C   UNL     1       6.452  -3.486  24.788  0.00  0.00    +0.127 C 
ATOM     11  N   UNL     1       6.451  -4.247  23.532  0.00  0.00    -0.296 N 
ATOM     12  C   UNL     1       5.862  -5.494  23.357  0.00  0.00    +0.245 C 
ATOM     13  O   UNL     1       6.140  -6.189  22.376  0.00  0.00    -0.273 OA
ATOM     14  C   UNL     1       7.478  -3.822  22.570  0.00  0.00    +0.127 C 
ATOM     15  C   UNL     1       7.455  -2.304  22.317  0.00  0.00    +0.127 C 
ATOM     16  N   UNL     1       9.780   1.882  21.471  0.00  0.00    -0.343 N 
ATOM     17  H   UNL     1       9.911   1.063  20.881  0.00  0.00    +0.144 HD
ATOM     18  H   UNL     1      10.668   2.260  21.782  0.00  0.00    +0.144 HD
ATOM     19  C   UNL     1       9.148   3.687  23.732  0.00  0.00    +0.062 A 
ATOM     20  N   UNL     1       7.424   0.559  24.541  0.00  0.00    -0.214 NA
ATOM     21  C   UNL     1       8.822   4.469  24.846  0.00  0.00    +0.162 A 
ENDROOT
BRANCH  12  22
ATOM     22  C   UNL     1       4.751  -5.938  24.343  0.00  0.00    +0.204 C 
ATOM     23  O   UNL     1       4.478  -7.344  24.404  0.00  0.00    -0.367 OA
ATOM     24  C   UNL     1       3.059  -7.548  24.372  0.00  0.00    +0.161 C 
ATOM     25  C   UNL     1       2.409  -6.205  24.608  0.00  0.00    +0.031 C 
ATOM     26  C   UNL     1       3.420  -5.268  24.006  0.00  0.00    +0.043 C 
ENDBRANCH  12  22
BRANCH   1  28
ATOM     27  C   UNL     1       6.828   4.053  27.898  0.00  0.00    +0.277 C 
ATOM     28  O   UNL     1       7.638   4.685  26.912  0.00  0.00    -0.491 OA
ENDBRANCH   1  28
BRANCH  21  29
ATOM     29  O   UNL     1       9.432   5.694  24.819  0.00  0.00    -0.491 OA
ATOM     30  C   UNL     1      10.358   5.980  23.781  0.00  0.00    +0.277 C 
ENDBRANCH  21  29
TORSDOF 3
ENDMDL
MODEL 2
REMARK VINA RESULT:      -7.3      3.321     10.278
REMARK  Name = 
REMARK  5 active torsions:
REMARK  status: ('A' for Active; 'I' for Inactive)
REMARK    1  A    between atoms: C_1  and  O_2
REMARK    2  A    between atoms: O_2  and  C_3
REMARK    3  A    between atoms: C_4  and  O_5
REMARK    4  A    between atoms: O_5  and  C_6
REMARK    5  A    between atoms: C_22  and  C_24
REMARK                            x       y       z     vdW  Elec       q    Type
REMARK                         _______ _______ _______ _____ _____    ______ ____
ROOT
ATOM      1  C   UNL     1       1.562  -7.413  23.126  0.00  0.00    +0.164 A 
ATOM      2  C   UNL     1       2.547  -6.422  22.981  0.00  0.00    +0.078 A 
ATOM      3  C   UNL     1       3.555  -6.225  23.914  0.00  0.00    +0.082 A 
ATOM      4  C   UNL     1       3.572  -7.015  25.053  0.00  0.00    +0.044 A 
ATOM      5  C   UNL     1       4.618  -6.741  25.934  0.00  0.00    +0.129 A 
ATOM      6  N   UNL     1       5.555  -5.816  25.694  0.00  0.00    -0.199 NA
ATOM      7  C   UNL     1       5.487  -5.133  24.542  0.00  0.00    +0.220 A 
ATOM      8  N   UNL     1       6.540  -4.302  24.186  0.00  0.00    -0.297 N 
ATOM      9  C   UNL     1       6.289  -3.372  23.078  0.00  0.00    +0.127 C 
ATOM     10  C   UNL     1       7.614  -2.781  22.554  0.00  0.00    +0.127 C 
ATOM     11  N   UNL     1       8.451  -2.245  23.635  0.00  0.00    -0.296 N 
ATOM     12  C   UNL     1       9.319  -1.167  23.510  0.00  0.00    +0.245 C 
ATOM     13  O   UNL     1      10.186  -0.955  24.362  0.00  0.00    -0.273 OA
ATOM     14  C   UNL     1       8.654  -3.173  24.756  0.00  0.00    +0.127 C 
ATOM     15  C   UNL     1       7.330  -3.747  25.292  0.00  0.00    +0.127 C 
ATOM     16  N   UNL     1       4.755  -7.431  27.147  0.00  0.00    -0.343 N 
ATOM     17  H   UNL     1       5.616  -7.102  27.579  0.00  0.00    +0.144 HD
ATOM     18  H   UNL     1       4.773  -8.434  27.003  0.00  0.00    +0.144 HD
ATOM     19  C   UNL     1       2.581  -8.013  25.224  0.00  0.00    +0.062 A 
ATOM     20  N   UNL     1       4.487  -5.303  23.665  0.00  0.00    -0.214 NA
ATOM     21  C   UNL     1       1.598  -8.242  24.254  0.00  0.00    +0.162 A 
ENDROOT
BRANCH  12  22
ATOM     22  C   UNL     1       9.093  -0.159  22.353  0.00  0.00    +0.204 C 
ATOM     23  O   UNL     1      10.218   0.649  21.983  0.00  0.00    -0.367 OA
ATOM     24  C   UNL     1       9.790   2.010  21.837  0.00  0.00    +0.161 C 
ATOM     25  C   UNL     1       8.280   2.003  21.817  0.00  0.00    +0.031 C 
ATOM     26  C   UNL     1       7.969   0.818  22.689  0.00  0.00    +0.043 C 
ENDBRANCH  12  22
BRANCH   1  28
ATOM     27  C   UNL     1       1.055  -8.280  20.972  0.00  0.00    +0.277 C 
ATOM     28  O   UNL     1       0.615  -7.633  22.161  0.00  0.00    -0.491 OA
ENDBRANCH   1  28
BRANCH  21  29
ATOM     29  O   UNL     1       0.785  -9.295  24.574  0.00  0.00    -0.491 OA
ATOM     30  C   UNL     1       1.162 -10.159  25.636  0.00  0.00    +0.277 C 
ENDBRANCH  21  29
TORSDOF 3
ENDMDL
MODEL 3
REMARK VINA RESULT:      -7.3      2.010      9.377
REMARK  Name = 
REMARK  5 active torsions:
REMARK  status: ('A' for Active; 'I' for Inactive)
REMARK    1  A    between atoms: C_1  and  O_2
REMARK    2  A    between atoms: O_2  and  C_3
REMARK    3  A    between atoms: C_4  and  O_5
REMARK    4  A    between atoms: O_5  and  C_6
REMARK    5  A    between atoms: C_22  and  C_24
REMARK                            x       y       z     vdW  Elec       q    Type
REMARK                         _______ _______ _______ _____ _____    ______ ____
ROOT
ATOM      1  C   UNL     1       3.391  -5.562  25.246  0.00  0.00    +0.164 A 
ATOM      2  C   UNL     1       4.109  -4.370  25.053  0.00  0.00    +0.078 A 
ATOM      3  C   UNL     1       5.207  -4.286  24.208  0.00  0.00    +0.082 A 
ATOM      4  C   UNL     1       5.634  -5.431  23.554  0.00  0.00    +0.044 A 
ATOM      5  C   UNL     1       6.746  -5.250  22.732  0.00  0.00    +0.129 A 
ATOM      6  N   UNL     1       7.340  -4.064  22.554  0.00  0.00    -0.199 NA
ATOM      7  C   UNL     1       6.827  -3.000  23.188  0.00  0.00    +0.220 A 
ATOM      8  N   UNL     1       7.308  -1.734  22.882  0.00  0.00    -0.297 N 
ATOM      9  C   UNL     1       6.924  -0.653  23.799  0.00  0.00    +0.127 C 
ATOM     10  C   UNL     1       7.206   0.724  23.163  0.00  0.00    +0.127 C 
ATOM     11  N   UNL     1       8.569   0.821  22.626  0.00  0.00    -0.296 N 
ATOM     12  C   UNL     1       9.323   1.988  22.573  0.00  0.00    +0.245 C 
ATOM     13  O   UNL     1      10.330   2.055  21.862  0.00  0.00    -0.273 OA
ATOM     14  C   UNL     1       8.951  -0.293  21.747  0.00  0.00    +0.127 C 
ATOM     15  C   UNL     1       8.688  -1.667  22.390  0.00  0.00    +0.127 C 
ATOM     16  N   UNL     1       7.320  -6.318  22.027  0.00  0.00    -0.343 N 
ATOM     17  H   UNL     1       8.068  -5.929  21.457  0.00  0.00    +0.144 HD
ATOM     18  H   UNL     1       6.632  -6.799  21.458  0.00  0.00    +0.144 HD
ATOM     19  C   UNL     1       4.931  -6.646  23.745  0.00  0.00    +0.062 A 
ATOM     20  N   UNL     1       5.791  -3.098  24.033  0.00  0.00    -0.214 NA
ATOM     21  C   UNL     1       3.793  -6.713  24.557  0.00  0.00    +0.162 A 
ENDROOT
BRANCH  12  22
ATOM     22  C   UNL     1       8.953   3.157  23.522  0.00  0.00    +0.204 C 
ATOM     23  O   UNL     1       7.876   4.004  23.099  0.00  0.00    -0.367 OA
ATOM     24  C   UNL     1       8.257   5.375  23.284  0.00  0.00    +0.161 C 
ATOM     25  C   UNL     1       9.502   5.380  24.139  0.00  0.00    +0.031 C 
ATOM     26  C   UNL     1      10.148   4.082  23.745  0.00  0.00    +0.043 C 
ENDBRANCH  12  22
BRANCH   1  28
ATOM     27  C   UNL     1       2.468  -5.968  27.399  0.00  0.00    +0.277 C 
ATOM     28  O   UNL     1       2.272  -5.608  26.035  0.00  0.00    -0.491 OA
ENDBRANCH   1  28
BRANCH  21  29
ATOM     29  O   UNL     1       3.219  -7.955  24.549  0.00  0.00    -0.491 OA
ATOM     30  C   UNL     1       2.044  -8.168  23.781  0.00  0.00    +0.277 C 
ENDBRANCH  21  29
TORSDOF 3
ENDMDL
MODEL 4
REMARK VINA RESULT:      -7.1      1.365      1.463
REMARK  Name = 
REMARK  5 active torsions:
REMARK  status: ('A' for Active; 'I' for Inactive)
REMARK    1  A    between atoms: C_1  and  O_2
REMARK    2  A    between atoms: O_2  and  C_3
REMARK    3  A    between atoms: C_4  and  O_5
REMARK    4  A    between atoms: O_5  and  C_6
REMARK    5  A    between atoms: C_22  and  C_24
REMARK                            x       y       z     vdW  Elec       q    Type
REMARK                         _______ _______ _______ _____ _____    ______ ____
ROOT
ATOM      1  C   UNL     1       8.285   4.862  25.665  0.00  0.00    +0.164 A 
ATOM      2  C   UNL     1       7.860   3.523  25.635  0.00  0.00    +0.078 A 
ATOM      3  C   UNL     1       8.300   2.619  24.679  0.00  0.00    +0.082 A 
ATOM      4  C   UNL     1       9.168   3.062  23.693  0.00  0.00    +0.044 A 
ATOM      5  C   UNL     1       9.551   2.084  22.774  0.00  0.00    +0.129 A 
ATOM      6  N   UNL     1       9.147   0.811  22.849  0.00  0.00    -0.199 NA
ATOM      7  C   UNL     1       8.347   0.461  23.866  0.00  0.00    +0.220 A 
ATOM      8  N   UNL     1       8.061  -0.882  24.071  0.00  0.00    -0.297 N 
ATOM      9  C   UNL     1       6.967  -1.180  25.003  0.00  0.00    +0.127 C 
ATOM     10  C   UNL     1       6.993  -2.666  25.414  0.00  0.00    +0.127 C 
ATOM     11  N   UNL     1       7.080  -3.563  24.255  0.00  0.00    -0.296 N 
ATOM     12  C   UNL     1       6.528  -4.837  24.190  0.00  0.00    +0.245 C 
ATOM     13  O   UNL     1       6.877  -5.631  23.311  0.00  0.00    -0.273 OA
ATOM     14  C   UNL     1       8.153  -3.222  23.309  0.00  0.00    +0.127 C 
ATOM     15  C   UNL     1       8.114  -1.743  22.884  0.00  0.00    +0.127 C 
ATOM     16  N   UNL     1      10.400   2.381  21.698  0.00  0.00    -0.343 N 
ATOM     17  H   UNL     1      10.581   1.505  21.213  0.00  0.00    +0.144 HD
ATOM     18  H   UNL     1      11.260   2.816  22.013  0.00  0.00    +0.144 HD
ATOM     19  C   UNL     1       9.600   4.412  23.699  0.00  0.00    +0.062 A 
ATOM     20  N   UNL     1       7.895   1.350  24.762  0.00  0.00    -0.214 NA
ATOM     21  C   UNL     1       9.194   5.305  24.697  0.00  0.00    +0.162 A 
ENDROOT
BRANCH  12  22
ATOM     22  C   UNL     1       5.370  -5.197  25.157  0.00  0.00    +0.204 C 
ATOM     23  O   UNL     1       5.749  -5.634  26.468  0.00  0.00    -0.367 OA
ATOM     24  C   UNL     1       4.985  -6.798  26.813  0.00  0.00    +0.161 C 
ATOM     25  C   UNL     1       3.868  -6.914  25.803  0.00  0.00    +0.031 C 
ATOM     26  C   UNL     1       4.500  -6.312  24.579  0.00  0.00    +0.043 C 
ENDBRANCH  12  22
BRANCH   1  28
ATOM     27  C   UNL     1       6.671   6.426  26.437  0.00  0.00    +0.277 C 
ATOM     28  O   UNL     1       7.888   5.720  26.656  0.00  0.00    -0.491 OA
ENDBRANCH   1  28
BRANCH  21  29
ATOM     29  O   UNL     1       9.779   6.535  24.565  0.00  0.00    -0.491 OA
ATOM     30  C   UNL     1      11.048   6.762  25.161  0.00  0.00    +0.277 C 
ENDBRANCH  21  29
TORSDOF 3
ENDMDL
MODEL 5
REMARK VINA RESULT:      -6.9      2.813      9.305
REMARK  Name = 
REMARK  5 active torsions:
REMARK  status: ('A' for Active; 'I' for Inactive)
REMARK    1  A    between atoms: C_1  and  O_2
REMARK    2  A    between atoms: O_2  and  C_3
REMARK    3  A    between atoms: C_4  and  O_5
REMARK    4  A    between atoms: O_5  and  C_6
REMARK    5  A    between atoms: C_22  and  C_24
REMARK                            x       y       z     vdW  Elec       q    Type
REMARK                         _______ _______ _______ _____ _____    ______ ____
ROOT
ATOM      1  C   UNL     1       5.065  -4.387  27.509  0.00  0.00    +0.164 A 
ATOM      2  C   UNL     1       5.592  -3.161  27.070  0.00  0.00    +0.078 A 
ATOM      3  C   UNL     1       6.855  -3.047  26.507  0.00  0.00    +0.082 A 
ATOM      4  C   UNL     1       7.644  -4.182  26.406  0.00  0.00    +0.044 A 
ATOM      5  C   UNL     1       8.898  -3.969  25.833  0.00  0.00    +0.129 A 
ATOM      6  N   UNL     1       9.304  -2.776  25.383  0.00  0.00    -0.199 NA
ATOM      7  C   UNL     1       8.455  -1.743  25.477  0.00  0.00    +0.220 A 
ATOM      8  N   UNL     1       8.778  -0.544  24.857  0.00  0.00    -0.297 N 
ATOM      9  C   UNL     1       7.965   0.621  25.230  0.00  0.00    +0.127 C 
ATOM     10  C   UNL     1       8.177   1.774  24.229  0.00  0.00    +0.127 C 
ATOM     11  N   UNL     1       9.599   2.059  24.000  0.00  0.00    -0.296 N 
ATOM     12  C   UNL     1      10.123   3.312  23.704  0.00  0.00    +0.245 C 
ATOM     13  O   UNL     1      11.266   3.426  23.251  0.00  0.00    -0.273 OA
ATOM     14  C   UNL     1      10.406   0.874  23.672  0.00  0.00    +0.127 C 
ATOM     15  C   UNL     1      10.209  -0.270  24.683  0.00  0.00    +0.127 C 
ATOM     16  N   UNL     1       9.826  -5.011  25.690  0.00  0.00    -0.343 N 
ATOM     17  H   UNL     1      10.629  -4.627  25.196  0.00  0.00    +0.144 HD
ATOM     18  H   UNL     1       9.426  -5.798  25.192  0.00  0.00    +0.144 HD
ATOM     19  C   UNL     1       7.136  -5.427  26.854  0.00  0.00    +0.062 A 
ATOM     20  N   UNL     1       7.252  -1.854  26.057  0.00  0.00    -0.214 NA
ATOM     21  C   UNL     1       5.841  -5.544  27.372  0.00  0.00    +0.162 A 
ENDROOT
BRANCH  12  22
ATOM     22  C   UNL     1       9.299   4.571  24.078  0.00  0.00    +0.204 C 
ATOM     23  O   UNL     1       8.280   4.965  23.150  0.00  0.00    -0.367 OA
ATOM     24  C   UNL     1       8.361   6.381  22.937  0.00  0.00    +0.161 C 
ATOM     25  C   UNL     1       9.269   6.941  24.007  0.00  0.00    +0.031 C 
ATOM     26  C   UNL     1      10.205   5.789  24.246  0.00  0.00    +0.043 C 
ENDBRANCH  12  22
BRANCH   1  28
ATOM     27  C   UNL     1       2.772  -4.830  27.069  0.00  0.00    +0.277 C 
ATOM     28  O   UNL     1       3.791  -4.487  28.002  0.00  0.00    -0.491 OA
ENDBRANCH   1  28
BRANCH  21  29
ATOM     29  O   UNL     1       5.517  -6.838  27.677  0.00  0.00    -0.491 OA
ATOM     30  C   UNL     1       5.296  -7.192  29.035  0.00  0.00    +0.277 C 
ENDBRANCH  21  29
TORSDOF 3
ENDMDL
MODEL 6
REMARK VINA RESULT:      -6.7      2.884      3.084
REMARK  Name = 
REMARK  5 active torsions:
REMARK  status: ('A' for Active; 'I' for Inactive)
REMARK    1  A    between atoms: C_1  and  O_2
REMARK    2  A    between atoms: O_2  and  C_3
REMARK    3  A    between atoms: C_4  and  O_5
REMARK    4  A    between atoms: O_5  and  C_6
REMARK    5  A    between atoms: C_22  and  C_24
REMARK                            x       y       z     vdW  Elec       q    Type
REMARK                         _______ _______ _______ _____ _____    ______ ____
ROOT
ATOM      1  C   UNL     1       5.664   4.523  23.475  0.00  0.00    +0.164 A 
ATOM      2  C   UNL     1       5.694   3.235  24.034  0.00  0.00    +0.078 A 
ATOM      3  C   UNL     1       6.649   2.290  23.688  0.00  0.00    +0.082 A 
ATOM      4  C   UNL     1       7.592   2.619  22.726  0.00  0.00    +0.044 A 
ATOM      5  C   UNL     1       8.507   1.605  22.440  0.00  0.00    +0.129 A 
ATOM      6  N   UNL     1       8.506   0.420  23.062  0.00  0.00    -0.199 NA
ATOM      7  C   UNL     1       7.587   0.209  24.015  0.00  0.00    +0.220 A 
ATOM      8  N   UNL     1       7.676  -0.934  24.799  0.00  0.00    -0.297 N 
ATOM      9  C   UNL     1       6.499  -1.255  25.616  0.00  0.00    +0.127 C 
ATOM     10  C   UNL     1       6.853  -2.309  26.686  0.00  0.00    +0.127 C 
ATOM     11  N   UNL     1       7.546  -3.470  26.116  0.00  0.00    -0.296 N 
ATOM     12  C   UNL     1       7.452  -4.771  26.599  0.00  0.00    +0.245 C 
ATOM     13  O   UNL     1       8.269  -5.630  26.256  0.00  0.00    -0.273 OA
ATOM     14  C   UNL     1       8.694  -3.128  25.263  0.00  0.00    +0.127 C 
ATOM     15  C   UNL     1       8.336  -2.091  24.183  0.00  0.00    +0.127 C 
ATOM     16  N   UNL     1       9.504   1.769  21.467  0.00  0.00    -0.343 N 
ATOM     17  H   UNL     1      10.077   0.928  21.485  0.00  0.00    +0.144 HD
ATOM     18  H   UNL     1      10.058   2.599  21.640  0.00  0.00    +0.144 HD
ATOM     19  C   UNL     1       7.572   3.909  22.141  0.00  0.00    +0.062 A 
ATOM     20  N   UNL     1       6.643   1.112  24.315  0.00  0.00    -0.214 NA
ATOM     21  C   UNL     1       6.638   4.875  22.533  0.00  0.00    +0.162 A 
ENDROOT
BRANCH  12  22
ATOM     22  C   UNL     1       6.227  -5.155  27.468  0.00  0.00    +0.204 C 
ATOM     23  O   UNL     1       6.494  -5.464  28.842  0.00  0.00    -0.367 OA
ATOM     24  C   UNL     1       5.787  -6.660  29.200  0.00  0.00    +0.161 C 
ATOM     25  C   UNL     1       4.796  -6.940  28.093  0.00  0.00    +0.031 C 
ATOM     26  C   UNL     1       5.510  -6.376  26.896  0.00  0.00    +0.043 C 
ENDBRANCH  12  22
BRANCH   1  28
ATOM     27  C   UNL     1       4.960   6.044  25.161  0.00  0.00    +0.277 C 
ATOM     28  O   UNL     1       4.751   5.461  23.878  0.00  0.00    -0.491 OA
ENDBRANCH   1  28
BRANCH  21  29
ATOM     29  O   UNL     1       6.834   6.074  21.904  0.00  0.00    -0.491 OA
ATOM     30  C   UNL     1       7.528   7.107  22.589  0.00  0.00    +0.277 C 
ENDBRANCH  21  29
TORSDOF 3
ENDMDL
MODEL 7
REMARK VINA RESULT:      -6.7      1.930      2.265
REMARK  Name = 
REMARK  5 active torsions:
REMARK  status: ('A' for Active; 'I' for Inactive)
REMARK    1  A    between atoms: C_1  and  O_2
REMARK    2  A    between atoms: O_2  and  C_3
REMARK    3  A    between atoms: C_4  and  O_5
REMARK    4  A    between atoms: O_5  and  C_6
REMARK    5  A    between atoms: C_22  and  C_24
REMARK                            x       y       z     vdW  Elec       q    Type
REMARK                         _______ _______ _______ _____ _____    ______ ____
ROOT
ATOM      1  C   UNL     1       8.312   4.477  23.467  0.00  0.00    +0.164 A 
ATOM      2  C   UNL     1       7.662   3.234  23.537  0.00  0.00    +0.078 A 
ATOM      3  C   UNL     1       8.333   2.054  23.825  0.00  0.00    +0.082 A 
ATOM      4  C   UNL     1       9.705   2.097  24.018  0.00  0.00    +0.044 A 
ATOM      5  C   UNL     1      10.292   0.862  24.297  0.00  0.00    +0.129 A 
ATOM      6  N   UNL     1       9.592  -0.273  24.406  0.00  0.00    -0.199 NA
ATOM      7  C   UNL     1       8.261  -0.211  24.253  0.00  0.00    +0.220 A 
ATOM      8  N   UNL     1       7.495  -1.333  24.539  0.00  0.00    -0.297 N 
ATOM      9  C   UNL     1       6.100  -1.302  24.084  0.00  0.00    +0.127 C 
ATOM     10  C   UNL     1       5.281  -2.416  24.766  0.00  0.00    +0.127 C 
ATOM     11  N   UNL     1       5.935  -3.727  24.669  0.00  0.00    -0.296 N 
ATOM     12  C   UNL     1       5.269  -4.946  24.596  0.00  0.00    +0.245 C 
ATOM     13  O   UNL     1       5.870  -6.004  24.801  0.00  0.00    -0.273 OA
ATOM     14  C   UNL     1       7.344  -3.730  25.086  0.00  0.00    +0.127 C 
ATOM     15  C   UNL     1       8.166  -2.630  24.390  0.00  0.00    +0.127 C 
ATOM     16  N   UNL     1      11.675   0.733  24.485  0.00  0.00    -0.343 N 
ATOM     17  H   UNL     1      11.851  -0.238  24.734  0.00  0.00    +0.144 HD
ATOM     18  H   UNL     1      12.013   1.367  25.201  0.00  0.00    +0.144 HD
ATOM     19  C   UNL     1      10.381   3.340  23.940  0.00  0.00    +0.062 A 
ATOM     20  N   UNL     1       7.627   0.926  23.936  0.00  0.00    -0.214 NA
ATOM     21  C   UNL     1       9.691   4.534  23.701  0.00  0.00    +0.162 A 
ENDROOT
BRANCH  12  22
ATOM     22  C   UNL     1       3.793  -4.961  24.122  0.00  0.00    +0.204 C 
ATOM     23  O   UNL     1       2.809  -5.289  25.111  0.00  0.00    -0.367 OA
ATOM     24  C   UNL     1       1.888  -6.239  24.560  0.00  0.00    +0.161 C 
ATOM     25  C   UNL     1       2.125  -6.277  23.068  0.00  0.00    +0.031 C 
ATOM     26  C   UNL     1       3.593  -5.962  22.985  0.00  0.00    +0.043 C 
ENDBRANCH  12  22
BRANCH   1  28
ATOM     27  C   UNL     1       7.360   5.974  21.885  0.00  0.00    +0.277 C 
ATOM     28  O   UNL     1       7.621   5.639  23.244  0.00  0.00    -0.491 OA
ENDBRANCH   1  28
BRANCH  21  29
ATOM     29  O   UNL     1      10.514   5.627  23.737  0.00  0.00    -0.491 OA
ATOM     30  C   UNL     1      11.920   5.433  23.708  0.00  0.00    +0.277 C 
ENDBRANCH  21  29
TORSDOF 3
ENDMDL
MODEL 8
REMARK VINA RESULT:      -6.6      2.248      2.416
REMARK  Name = 
REMARK  5 active torsions:
REMARK  status: ('A' for Active; 'I' for Inactive)
REMARK    1  A    between atoms: C_1  and  O_2
REMARK    2  A    between atoms: O_2  and  C_3
REMARK    3  A    between atoms: C_4  and  O_5
REMARK    4  A    between atoms: O_5  and  C_6
REMARK    5  A    between atoms: C_22  and  C_24
REMARK                            x       y       z     vdW  Elec       q    Type
REMARK                         _______ _______ _______ _____ _____    ______ ____
ROOT
ATOM      1  C   UNL     1       5.548   4.329  22.897  0.00  0.00    +0.164 A 
ATOM      2  C   UNL     1       5.511   2.925  22.931  0.00  0.00    +0.078 A 
ATOM      3  C   UNL     1       6.634   2.141  22.705  0.00  0.00    +0.082 A 
ATOM      4  C   UNL     1       7.832   2.767  22.397  0.00  0.00    +0.044 A 
ATOM      5  C   UNL     1       8.902   1.898  22.181  0.00  0.00    +0.129 A 
ATOM      6  N   UNL     1       8.800   0.568  22.292  0.00  0.00    -0.199 NA
ATOM      7  C   UNL     1       7.612   0.054  22.642  0.00  0.00    +0.220 A 
ATOM      8  N   UNL     1       7.523  -1.300  22.940  0.00  0.00    -0.297 N 
ATOM      9  C   UNL     1       6.168  -1.858  23.033  0.00  0.00    +0.127 C 
ATOM     10  C   UNL     1       6.197  -3.242  23.712  0.00  0.00    +0.127 C 
ATOM     11  N   UNL     1       7.195  -4.136  23.113  0.00  0.00    -0.296 N 
ATOM     12  C   UNL     1       7.078  -5.519  23.028  0.00  0.00    +0.245 C 
ATOM     13  O   UNL     1       8.062  -6.220  22.777  0.00  0.00    -0.273 OA
ATOM     14  C   UNL     1       8.535  -3.544  22.987  0.00  0.00    +0.127 C 
ATOM     15  C   UNL     1       8.509  -2.172  22.291  0.00  0.00    +0.127 C 
ATOM     16  N   UNL     1      10.174   2.373  21.829  0.00  0.00    -0.343 N 
ATOM     17  H   UNL     1      10.791   1.565  21.788  0.00  0.00    +0.144 HD
ATOM     18  H   UNL     1      10.509   3.062  22.492  0.00  0.00    +0.144 HD
ATOM     19  C   UNL     1       7.887   4.182  22.346  0.00  0.00    +0.062 A 
ATOM     20  N   UNL     1       6.524   0.816  22.821  0.00  0.00    -0.214 NA
ATOM     21  C   UNL     1       6.764   4.968  22.628  0.00  0.00    +0.162 A 
ENDROOT
BRANCH  12  22
ATOM     22  C   UNL     1       5.666  -6.153  23.122  0.00  0.00    +0.204 C 
ATOM     23  O   UNL     1       4.616  -5.477  22.418  0.00  0.00    -0.367 OA
ATOM     24  C   UNL     1       3.469  -5.375  23.272  0.00  0.00    +0.161 C 
ATOM     25  C   UNL     1       3.705  -6.293  24.449  0.00  0.00    +0.031 C 
ATOM     26  C   UNL     1       5.203  -6.246  24.575  0.00  0.00    +0.043 C 
ENDBRANCH  12  22
BRANCH   1  28
ATOM     27  C   UNL     1       4.218   5.384  24.561  0.00  0.00    +0.277 C 
ATOM     28  O   UNL     1       4.442   5.084  23.187  0.00  0.00    -0.491 OA
ENDBRANCH   1  28
BRANCH  21  29
ATOM     29  O   UNL     1       7.044   6.307  22.596  0.00  0.00    -0.491 OA
ATOM     30  C   UNL     1       6.469   7.108  21.575  0.00  0.00    +0.277 C 
ENDBRANCH  21  29
TORSDOF 3
ENDMDL
MODEL 9
REMARK VINA RESULT:      -6.4      2.454      9.742
REMARK  Name = 
REMARK  5 active torsions:
REMARK  status: ('A' for Active; 'I' for Inactive)
REMARK    1  A    between atoms: C_1  and  O_2
REMARK    2  A    between atoms: O_2  and  C_3
REMARK    3  A    between atoms: C_4  and  O_5
REMARK    4  A    between atoms: O_5  and  C_6
REMARK    5  A    between atoms: C_22  and  C_24
REMARK                            x       y       z     vdW  Elec       q    Type
REMARK                         _______ _______ _______ _____ _____    ______ ____
ROOT
ATOM      1  C   UNL     1       1.659  -5.489  24.249  0.00  0.00    +0.164 A 
ATOM      2  C   UNL     1       2.635  -4.482  24.172  0.00  0.00    +0.078 A 
ATOM      3  C   UNL     1       3.859  -4.574  24.819  0.00  0.00    +0.082 A 
ATOM      4  C   UNL     1       4.117  -5.689  25.601  0.00  0.00    +0.044 A 
ATOM      5  C   UNL     1       5.370  -5.691  26.216  0.00  0.00    +0.129 A 
ATOM      6  N   UNL     1       6.271  -4.717  26.044  0.00  0.00    -0.199 NA
ATOM      7  C   UNL     1       5.954  -3.700  25.229  0.00  0.00    +0.220 A 
ATOM      8  N   UNL     1       6.932  -2.774  24.891  0.00  0.00    -0.297 N 
ATOM      9  C   UNL     1       6.465  -1.542  24.243  0.00  0.00    +0.127 C 
ATOM     10  C   UNL     1       7.646  -0.784  23.604  0.00  0.00    +0.127 C 
ATOM     11  N   UNL     1       8.766  -0.607  24.538  0.00  0.00    -0.296 N 
ATOM     12  C   UNL     1       9.641   0.474  24.538  0.00  0.00    +0.245 C 
ATOM     13  O   UNL     1      10.709   0.418  25.153  0.00  0.00    -0.273 OA
ATOM     14  C   UNL     1       9.189  -1.843  25.212  0.00  0.00    +0.127 C 
ATOM     15  C   UNL     1       8.013  -2.589  25.866  0.00  0.00    +0.127 C 
ATOM     16  N   UNL     1       5.769  -6.733  27.065  0.00  0.00    -0.343 N 
ATOM     17  H   UNL     1       6.731  -6.542  27.336  0.00  0.00    +0.144 HD
ATOM     18  H   UNL     1       5.684  -7.635  26.611  0.00  0.00    +0.144 HD
ATOM     19  C   UNL     1       3.141  -6.711  25.701  0.00  0.00    +0.062 A 
ATOM     20  N   UNL     1       4.754  -3.600  24.640  0.00  0.00    -0.214 NA
ATOM     21  C   UNL     1       1.930  -6.637  25.004  0.00  0.00    +0.162 A 
ENDROOT
BRANCH  12  22
ATOM     22  C   UNL     1       9.191   1.795  23.863  0.00  0.00    +0.204 C 
ATOM     23  O   UNL     1      10.230   2.616  23.315  0.00  0.00    -0.367 OA
ATOM     24  C   UNL     1      10.008   3.978  23.706  0.00  0.00    +0.161 C 
ATOM     25  C   UNL     1       8.607   4.058  24.266  0.00  0.00    +0.031 C 
ATOM     26  C   UNL     1       8.433   2.683  24.849  0.00  0.00    +0.043 C 
ENDBRANCH  12  22
BRANCH   1  28
ATOM     27  C   UNL     1       0.461  -6.022  22.267  0.00  0.00    +0.277 C 
ATOM     28  O   UNL     1       0.484  -5.406  23.551  0.00  0.00    -0.491 OA
ENDBRANCH   1  28
BRANCH  21  29
ATOM     29  O   UNL     1       1.160  -7.755  25.176  0.00  0.00    -0.491 OA
ATOM     30  C   UNL     1       1.527  -8.954  24.510  0.00  0.00    +0.277 C 
ENDBRANCH  21  29
TORSDOF 3
ENDMDL
