MODEL 1
REMARK VINA RESULT:      -7.0      0.000      0.000
REMARK  Name = 
REMARK  0 active torsions:
REMARK  status: ('A' for Active; 'I' for Inactive)
REMARK                            x       y       z     vdW  Elec       q    Type
REMARK                         _______ _______ _______ _____ _____    ______ ____
ROOT
ATOM      1 CL   UNL     1       9.852  -4.726  25.398  0.00  0.00    -0.081 Cl
ATOM      2  C   UNL     1       8.169  -4.681  25.154  0.00  0.00    +0.071 A 
ATOM      3  C   UNL     1       7.434  -3.910  24.197  0.00  0.00    +0.077 A 
ATOM      4  C   UNL     1       7.688  -2.927  23.202  0.00  0.00    +0.136 A 
ATOM      5  N   UNL     1       8.927  -2.344  22.977  0.00  0.00    -0.308 N 
ATOM      6  C   UNL     1       9.600  -1.720  24.145  0.00  0.00    +0.163 C 
ATOM      7  C   UNL     1       9.999  -0.294  23.947  0.00  0.00    +0.079 A 
ATOM      8  N   UNL     1      10.588   0.518  24.879  0.00  0.00    -0.239 NA
ATOM      9  C   UNL     1      10.776   1.661  24.252  0.00  0.00    +0.197 A 
ATOM     10  N   UNL     1      10.345   1.613  22.950  0.00  0.00    -0.348 N 
ATOM     11  H   UNL     1      10.394   2.369  22.281  0.00  0.00    +0.166 HD
ATOM     12  C   UNL     1       9.841   0.362  22.752  0.00  0.00    +0.042 A 
ATOM     13  C   UNL     1       9.222  -0.230  21.543  0.00  0.00    +0.074 C 
ATOM     14  C   UNL     1       9.229  -1.783  21.638  0.00  0.00    +0.113 C 
ATOM     15  N   UNL     1       6.642  -2.583  22.397  0.00  0.00    -0.220 NA
ATOM     16  C   UNL     1       5.425  -3.114  22.620  0.00  0.00    +0.225 A 
ATOM     17  N   UNL     1       5.065  -3.985  23.572  0.00  0.00    -0.218 NA
ATOM     18  C   UNL     1       6.117  -4.347  24.318  0.00  0.00    +0.145 A 
ATOM     19  N   UNL     1       6.037  -5.247  25.343  0.00  0.00    -0.344 N 
ATOM     20  H   UNL     1       5.180  -5.698  25.628  0.00  0.00    +0.167 HD
ATOM     21  C   UNL     1       7.280  -5.468  25.861  0.00  0.00    +0.105 A 
ENDROOT
TORSDOF 0
ENDMDL
MODEL 2
REMARK VINA RESULT:      -6.8      2.259      3.219
REMARK  Name = 
REMARK  0 active torsions:
REMARK  status: ('A' for Active; 'I' for Inactive)
REMARK                            x       y       z     vdW  Elec       q    Type
REMARK                         _______ _______ _______ _____ _____    ______ ____
ROOT
ATOM      1 CL   UNL     1       5.610  -2.825  21.819  0.00  0.00    -0.081 Cl
ATOM      2  C   UNL     1       6.655  -4.054  22.358  0.00  0.00    +0.071 A 
ATOM      3  C   UNL     1       7.688  -3.966  23.346  0.00  0.00    +0.077 A 
ATOM      4  C   UNL     1       8.293  -2.977  24.168  0.00  0.00    +0.136 A 
ATOM      5  N   UNL     1       8.004  -1.621  24.101  0.00  0.00    -0.308 N 
ATOM      6  C   UNL     1       8.126  -0.972  22.771  0.00  0.00    +0.163 C 
ATOM      7  C   UNL     1       9.016   0.228  22.740  0.00  0.00    +0.079 A 
ATOM      8  N   UNL     1       9.333   0.973  21.637  0.00  0.00    -0.239 NA
ATOM      9  C   UNL     1      10.114   1.929  22.094  0.00  0.00    +0.197 A 
ATOM     10  N   UNL     1      10.303   1.838  23.450  0.00  0.00    -0.348 N 
ATOM     11  H   UNL     1      10.858   2.465  24.015  0.00  0.00    +0.166 HD
ATOM     12  C   UNL     1       9.604   0.744  23.868  0.00  0.00    +0.042 A 
ATOM     13  C   UNL     1       9.475   0.164  25.225  0.00  0.00    +0.074 C 
ATOM     14  C   UNL     1       8.236  -0.773  25.296  0.00  0.00    +0.113 C 
ATOM     15  N   UNL     1       9.178  -3.417  25.109  0.00  0.00    -0.220 NA
ATOM     16  C   UNL     1       9.494  -4.724  25.167  0.00  0.00    +0.225 A 
ATOM     17  N   UNL     1       9.042  -5.719  24.395  0.00  0.00    -0.218 NA
ATOM     18  C   UNL     1       8.138  -5.274  23.512  0.00  0.00    +0.145 A 
ATOM     19  N   UNL     1       7.495  -6.085  22.621  0.00  0.00    -0.344 N 
ATOM     20  H   UNL     1       7.660  -7.079  22.545  0.00  0.00    +0.167 HD
ATOM     21  C   UNL     1       6.582  -5.359  21.912  0.00  0.00    +0.105 A 
ENDROOT
TORSDOF 0
ENDMDL
MODEL 3
REMARK VINA RESULT:      -6.7      2.417      2.779
REMARK  Name = 
REMARK  0 active torsions:
REMARK  status: ('A' for Active; 'I' for Inactive)
REMARK                            x       y       z     vdW  Elec       q    Type
REMARK                         _______ _______ _______ _____ _____    ______ ____
ROOT
ATOM      1 CL   UNL     1       5.211  -1.879  25.907  0.00  0.00    -0.081 Cl
ATOM      2  C   UNL     1       4.782  -3.023  24.724  0.00  0.00    +0.071 A 
ATOM      3  C   UNL     1       5.547  -3.458  23.595  0.00  0.00    +0.077 A 
ATOM      4  C   UNL     1       6.789  -3.158  22.972  0.00  0.00    +0.136 A 
ATOM      5  N   UNL     1       7.630  -2.125  23.361  0.00  0.00    -0.308 N 
ATOM      6  C   UNL     1       7.035  -0.765  23.437  0.00  0.00    +0.163 C 
ATOM      7  C   UNL     1       7.754   0.276  22.642  0.00  0.00    +0.079 A 
ATOM      8  N   UNL     1       7.386   1.587  22.506  0.00  0.00    -0.239 NA
ATOM      9  C   UNL     1       8.322   2.118  21.748  0.00  0.00    +0.197 A 
ATOM     10  N   UNL     1       9.286   1.205  21.401  0.00  0.00    -0.348 N 
ATOM     11  H   UNL     1      10.100   1.389  20.831  0.00  0.00    +0.166 HD
ATOM     12  C   UNL     1       8.922   0.020  21.969  0.00  0.00    +0.042 A 
ATOM     13  C   UNL     1       9.583  -1.305  21.903  0.00  0.00    +0.074 C 
ATOM     14  C   UNL     1       9.078  -2.217  23.057  0.00  0.00    +0.113 C 
ATOM     15  N   UNL     1       7.183  -3.981  21.958  0.00  0.00    -0.220 NA
ATOM     16  C   UNL     1       6.367  -4.969  21.545  0.00  0.00    +0.225 A 
ATOM     17  N   UNL     1       5.153  -5.286  22.011  0.00  0.00    -0.218 NA
ATOM     18  C   UNL     1       4.808  -4.498  23.038  0.00  0.00    +0.145 A 
ATOM     19  N   UNL     1       3.630  -4.624  23.718  0.00  0.00    -0.344 N 
ATOM     20  H   UNL     1       2.921  -5.308  23.493  0.00  0.00    +0.167 HD
ATOM     21  C   UNL     1       3.599  -3.735  24.754  0.00  0.00    +0.105 A 
ENDROOT
TORSDOF 0
ENDMDL
MODEL 4
REMARK VINA RESULT:      -6.6      1.779      1.935
REMARK  Name = 
REMARK  0 active torsions:
REMARK  status: ('A' for Active; 'I' for Inactive)
REMARK                            x       y       z     vdW  Elec       q    Type
REMARK                         _______ _______ _______ _____ _____    ______ ____
ROOT
ATOM      1 CL   UNL     1       8.693  -1.920  26.871  0.00  0.00    -0.081 Cl
ATOM      2  C   UNL     1       7.716  -3.019  26.015  0.00  0.00    +0.071 A 
ATOM      3  C   UNL     1       7.624  -3.202  24.598  0.00  0.00    +0.077 A 
ATOM      4  C   UNL     1       8.152  -2.622  23.413  0.00  0.00    +0.136 A 
ATOM      5  N   UNL     1       8.949  -1.486  23.387  0.00  0.00    -0.308 N 
ATOM      6  C   UNL     1       8.417  -0.275  24.063  0.00  0.00    +0.163 C 
ATOM      7  C   UNL     1       8.368   0.948  23.206  0.00  0.00    +0.079 A 
ATOM      8  N   UNL     1       7.879   2.173  23.571  0.00  0.00    -0.239 NA
ATOM      9  C   UNL     1       8.066   2.934  22.513  0.00  0.00    +0.197 A 
ATOM     10  N   UNL     1       8.667   2.252  21.485  0.00  0.00    -0.348 N 
ATOM     11  H   UNL     1       8.911   2.635  20.582  0.00  0.00    +0.166 HD
ATOM     12  C   UNL     1       8.858   0.975  21.924  0.00  0.00    +0.042 A 
ATOM     13  C   UNL     1       9.443  -0.190  21.221  0.00  0.00    +0.074 C 
ATOM     14  C   UNL     1       9.874  -1.278  22.247  0.00  0.00    +0.113 C 
ATOM     15  N   UNL     1       7.884  -3.266  22.241  0.00  0.00    -0.220 NA
ATOM     16  C   UNL     1       7.086  -4.350  22.242  0.00  0.00    +0.225 A 
ATOM     17  N   UNL     1       6.480  -4.929  23.286  0.00  0.00    -0.218 NA
ATOM     18  C   UNL     1       6.798  -4.311  24.433  0.00  0.00    +0.145 A 
ATOM     19  N   UNL     1       6.340  -4.714  25.655  0.00  0.00    -0.344 N 
ATOM     20  H   UNL     1       5.716  -5.498  25.790  0.00  0.00    +0.167 HD
ATOM     21  C   UNL     1       6.894  -3.941  26.633  0.00  0.00    +0.105 A 
ENDROOT
TORSDOF 0
ENDMDL
MODEL 5
REMARK VINA RESULT:      -6.4      2.632      3.322
REMARK  Name = 
REMARK  0 active torsions:
REMARK  status: ('A' for Active; 'I' for Inactive)
REMARK                            x       y       z     vdW  Elec       q    Type
REMARK                         _______ _______ _______ _____ _____    ______ ____
ROOT
ATOM      1 CL   UNL     1       5.697  -6.186  26.804  0.00  0.00    -0.081 Cl
ATOM      2  C   UNL     1       5.245  -6.161  25.164  0.00  0.00    +0.071 A 
ATOM      3  C   UNL     1       5.900  -5.501  24.075  0.00  0.00    +0.077 A 
ATOM      4  C   UNL     1       7.012  -4.640  23.868  0.00  0.00    +0.136 A 
ATOM      5  N   UNL     1       7.779  -4.093  24.887  0.00  0.00    -0.308 N 
ATOM      6  C   UNL     1       7.056  -3.342  25.945  0.00  0.00    +0.163 C 
ATOM      7  C   UNL     1       7.549  -1.951  26.173  0.00  0.00    +0.079 A 
ATOM      8  N   UNL     1       7.027  -1.040  27.051  0.00  0.00    -0.239 NA
ATOM      9  C   UNL     1       7.794   0.022  26.925  0.00  0.00    +0.197 A 
ATOM     10  N   UNL     1       8.798  -0.172  26.009  0.00  0.00    -0.348 N 
ATOM     11  H   UNL     1       9.507   0.502  25.755  0.00  0.00    +0.166 HD
ATOM     12  C   UNL     1       8.641  -1.435  25.521  0.00  0.00    +0.042 A 
ATOM     13  C   UNL     1       9.427  -2.158  24.494  0.00  0.00    +0.074 C 
ATOM     14  C   UNL     1       9.178  -3.690  24.602  0.00  0.00    +0.113 C 
ATOM     15  N   UNL     1       7.358  -4.385  22.573  0.00  0.00    -0.220 NA
ATOM     16  C   UNL     1       6.607  -4.880  21.571  0.00  0.00    +0.225 A 
ATOM     17  N   UNL     1       5.505  -5.634  21.660  0.00  0.00    -0.218 NA
ATOM     18  C   UNL     1       5.212  -5.914  22.938  0.00  0.00    +0.145 A 
ATOM     19  N   UNL     1       4.153  -6.690  23.313  0.00  0.00    -0.344 N 
ATOM     20  H   UNL     1       3.499  -7.101  22.661  0.00  0.00    +0.167 HD
ATOM     21  C   UNL     1       4.160  -6.856  24.667  0.00  0.00    +0.105 A 
ENDROOT
TORSDOF 0
ENDMDL
MODEL 6
REMARK VINA RESULT:      -6.3      2.464      5.861
REMARK  Name = 
REMARK  0 active torsions:
REMARK  status: ('A' for Active; 'I' for Inactive)
REMARK                            x       y       z     vdW  Elec       q    Type
REMARK                         _______ _______ _______ _____ _____    ______ ____
ROOT
ATOM      1 CL   UNL     1       9.429  -0.123  21.405  0.00  0.00    -0.081 Cl
ATOM      2  C   UNL     1       8.801   0.532  22.844  0.00  0.00    +0.071 A 
ATOM      3  C   UNL     1       8.430  -0.158  24.043  0.00  0.00    +0.077 A 
ATOM      4  C   UNL     1       8.351  -1.494  24.520  0.00  0.00    +0.136 A 
ATOM      5  N   UNL     1       8.580  -2.618  23.739  0.00  0.00    -0.308 N 
ATOM      6  C   UNL     1       7.794  -2.738  22.484  0.00  0.00    +0.163 C 
ATOM      7  C   UNL     1       7.032  -4.015  22.344  0.00  0.00    +0.079 A 
ATOM      8  N   UNL     1       6.198  -4.350  21.311  0.00  0.00    -0.239 NA
ATOM      9  C   UNL     1       5.778  -5.563  21.603  0.00  0.00    +0.197 A 
ATOM     10  N   UNL     1       6.319  -6.029  22.775  0.00  0.00    -0.348 N 
ATOM     11  H   UNL     1       6.145  -6.934  23.190  0.00  0.00    +0.166 HD
ATOM     12  C   UNL     1       7.120  -5.036  23.256  0.00  0.00    +0.042 A 
ATOM     13  C   UNL     1       7.927  -4.988  24.498  0.00  0.00    +0.074 C 
ATOM     14  C   UNL     1       9.012  -3.877  24.393  0.00  0.00    +0.113 C 
ATOM     15  N   UNL     1       8.078  -1.658  25.846  0.00  0.00    -0.220 NA
ATOM     16  C   UNL     1       7.821  -0.581  26.613  0.00  0.00    +0.225 A 
ATOM     17  N   UNL     1       7.795   0.706  26.247  0.00  0.00    -0.218 NA
ATOM     18  C   UNL     1       8.116   0.848  24.954  0.00  0.00    +0.145 A 
ATOM     19  N   UNL     1       8.194   2.059  24.327  0.00  0.00    -0.344 N 
ATOM     20  H   UNL     1       8.002   2.940  24.782  0.00  0.00    +0.167 HD
ATOM     21  C   UNL     1       8.615   1.887  23.040  0.00  0.00    +0.105 A 
ENDROOT
TORSDOF 0
ENDMDL
MODEL 7
REMARK VINA RESULT:      -6.3      2.582      5.740
REMARK  Name = 
REMARK  0 active torsions:
REMARK  status: ('A' for Active; 'I' for Inactive)
REMARK                            x       y       z     vdW  Elec       q    Type
REMARK                         _______ _______ _______ _____ _____    ______ ____
ROOT
ATOM      1 CL   UNL     1      11.404   0.751  24.481  0.00  0.00    -0.081 Cl
ATOM      2  C   UNL     1      10.199   1.298  23.412  0.00  0.00    +0.071 A 
ATOM      3  C   UNL     1       8.804   0.975  23.411  0.00  0.00    +0.077 A 
ATOM      4  C   UNL     1       7.906   0.138  24.126  0.00  0.00    +0.136 A 
ATOM      5  N   UNL     1       8.292  -0.774  25.099  0.00  0.00    -0.308 N 
ATOM      6  C   UNL     1       9.333  -1.763  24.719  0.00  0.00    +0.163 C 
ATOM      7  C   UNL     1       8.950  -3.190  24.944  0.00  0.00    +0.079 A 
ATOM      8  N   UNL     1       9.705  -4.289  24.635  0.00  0.00    -0.239 NA
ATOM      9  C   UNL     1       8.980  -5.313  25.033  0.00  0.00    +0.197 A 
ATOM     10  N   UNL     1       7.793  -4.918  25.598  0.00  0.00    -0.348 N 
ATOM     11  H   UNL     1       7.085  -5.530  25.978  0.00  0.00    +0.166 HD
ATOM     12  C   UNL     1       7.768  -3.556  25.538  0.00  0.00    +0.042 A 
ATOM     13  C   UNL     1       6.719  -2.608  25.981  0.00  0.00    +0.074 C 
ATOM     14  C   UNL     1       7.315  -1.179  26.138  0.00  0.00    +0.113 C 
ATOM     15  N   UNL     1       6.577   0.289  23.856  0.00  0.00    -0.220 NA
ATOM     16  C   UNL     1       6.186   1.145  22.893  0.00  0.00    +0.225 A 
ATOM     17  N   UNL     1       6.951   1.919  22.115  0.00  0.00    -0.218 NA
ATOM     18  C   UNL     1       8.247   1.792  22.431  0.00  0.00    +0.145 A 
ATOM     19  N   UNL     1       9.243   2.491  21.811  0.00  0.00    -0.344 N 
ATOM     20  H   UNL     1       9.086   3.146  21.058  0.00  0.00    +0.167 HD
ATOM     21  C   UNL     1      10.441   2.207  22.400  0.00  0.00    +0.105 A 
ENDROOT
TORSDOF 0
ENDMDL
MODEL 8
REMARK VINA RESULT:      -6.3      3.174      4.733
REMARK  Name = 
REMARK  0 active torsions:
REMARK  status: ('A' for Active; 'I' for Inactive)
REMARK                            x       y       z     vdW  Elec       q    Type
REMARK                         _______ _______ _______ _____ _____    ______ ____
ROOT
ATOM      1 CL   UNL     1       9.874  -0.455  21.691  0.00  0.00    -0.081 Cl
ATOM      2  C   UNL     1       9.491  -0.994  23.259  0.00  0.00    +0.071 A 
ATOM      3  C   UNL     1       8.918  -0.245  24.336  0.00  0.00    +0.077 A 
ATOM      4  C   UNL     1       8.519   1.091  24.609  0.00  0.00    +0.136 A 
ATOM      5  N   UNL     1       8.726   2.160  23.749  0.00  0.00    -0.308 N 
ATOM      6  C   UNL     1      10.117   2.389  23.280  0.00  0.00    +0.163 C 
ATOM      7  C   UNL     1      10.640   3.766  23.524  0.00  0.00    +0.079 A 
ATOM      8  N   UNL     1      11.899   4.217  23.233  0.00  0.00    -0.239 NA
ATOM      9  C   UNL     1      11.891   5.483  23.595  0.00  0.00    +0.197 A 
ATOM     10  N   UNL     1      10.673   5.870  24.095  0.00  0.00    -0.348 N 
ATOM     11  H   UNL     1      10.435   6.794  24.427  0.00  0.00    +0.166 HD
ATOM     12  C   UNL     1       9.869   4.769  24.056  0.00  0.00    +0.042 A 
ATOM     13  C   UNL     1       8.462   4.608  24.493  0.00  0.00    +0.074 C 
ATOM     14  C   UNL     1       7.836   3.343  23.838  0.00  0.00    +0.113 C 
ATOM     15  N   UNL     1       7.850   1.306  25.778  0.00  0.00    -0.220 NA
ATOM     16  C   UNL     1       7.668   0.289  26.640  0.00  0.00    +0.225 A 
ATOM     17  N   UNL     1       8.068  -0.983  26.514  0.00  0.00    -0.218 NA
ATOM     18  C   UNL     1       8.678  -1.183  25.338  0.00  0.00    +0.145 A 
ATOM     19  N   UNL     1       9.161  -2.397  24.939  0.00  0.00    -0.344 N 
ATOM     20  H   UNL     1       9.110  -3.234  25.502  0.00  0.00    +0.167 HD
ATOM     21  C   UNL     1       9.656  -2.302  23.670  0.00  0.00    +0.105 A 
ENDROOT
TORSDOF 0
ENDMDL
MODEL 9
REMARK VINA RESULT:      -6.2      2.261      3.401
REMARK  Name = 
REMARK  0 active torsions:
REMARK  status: ('A' for Active; 'I' for Inactive)
REMARK                            x       y       z     vdW  Elec       q    Type
REMARK                         _______ _______ _______ _____ _____    ______ ____
ROOT
ATOM      1 CL   UNL     1       5.491  -3.011  22.193  0.00  0.00    -0.081 Cl
ATOM      2  C   UNL     1       5.692  -4.310  23.273  0.00  0.00    +0.071 A 
ATOM      3  C   UNL     1       6.162  -4.273  24.624  0.00  0.00    +0.077 A 
ATOM      4  C   UNL     1       6.668  -3.319  25.549  0.00  0.00    +0.136 A 
ATOM      5  N   UNL     1       6.939  -1.995  25.236  0.00  0.00    -0.308 N 
ATOM      6  C   UNL     1       7.839  -1.747  24.080  0.00  0.00    +0.163 C 
ATOM      7  C   UNL     1       9.019  -0.883  24.381  0.00  0.00    +0.079 A 
ATOM      8  N   UNL     1      10.018  -0.544  23.509  0.00  0.00    -0.239 NA
ATOM      9  C   UNL     1      10.814   0.242  24.203  0.00  0.00    +0.197 A 
ATOM     10  N   UNL     1      10.361   0.434  25.484  0.00  0.00    -0.348 N 
ATOM     11  H   UNL     1      10.806   1.003  26.191  0.00  0.00    +0.166 HD
ATOM     12  C   UNL     1       9.212  -0.290  25.604  0.00  0.00    +0.042 A 
ATOM     13  C   UNL     1       8.320  -0.464  26.774  0.00  0.00    +0.074 C 
ATOM     14  C   UNL     1       6.925  -0.979  26.317  0.00  0.00    +0.113 C 
ATOM     15  N   UNL     1       6.846  -3.743  26.833  0.00  0.00    -0.220 NA
ATOM     16  C   UNL     1       6.619  -5.032  27.148  0.00  0.00    +0.225 A 
ATOM     17  N   UNL     1       6.216  -6.021  26.341  0.00  0.00    -0.218 NA
ATOM     18  C   UNL     1       5.999  -5.572  25.098  0.00  0.00    +0.145 A 
ATOM     19  N   UNL     1       5.555  -6.367  24.079  0.00  0.00    -0.344 N 
ATOM     20  H   UNL     1       5.370  -7.355  24.178  0.00  0.00    +0.167 HD
ATOM     21  C   UNL     1       5.357  -5.613  22.959  0.00  0.00    +0.105 A 
ENDROOT
TORSDOF 0
ENDMDL
