MODEL 1
REMARK VINA RESULT:      -4.8      0.000      0.000
REMARK  Name = 
REMARK  2 active torsions:
REMARK  status: ('A' for Active; 'I' for Inactive)
REMARK    1  A    between atoms: N_3  and  C_4
REMARK    2  A    between atoms: C_4  and  C_5
REMARK                            x       y       z     vdW  Elec       q    Type
REMARK                         _______ _______ _______ _____ _____    ______ ____
ROOT
ATOM      1  C   UNL     1      10.418   2.292  23.333  0.00  0.00    -0.030 A 
ATOM      2  C   UNL     1       9.969   1.909  22.061  0.00  0.00    +0.005 A 
ATOM      3  C   UNL     1       9.780   0.561  21.756  0.00  0.00    +0.000 A 
ATOM      4  C   UNL     1      10.040  -0.416  22.715  0.00  0.00    +0.000 A 
ATOM      5  C   UNL     1      10.485  -0.046  23.982  0.00  0.00    +0.000 A 
ATOM      6  C   UNL     1      10.677   1.301  24.291  0.00  0.00    +0.005 A 
ENDROOT
BRANCH   1   7
ATOM      7  C   UNL     1      10.708   3.737  23.634  0.00  0.00    +0.139 C 
BRANCH   7  10
ATOM      8  O   UNL     1      12.695   5.678  24.224  0.00  0.00    -0.280 OA
ATOM      9  C   UNL     1      12.616   5.183  23.110  0.00  0.00    +0.325 C 
ATOM     10  N   UNL     1      11.703   4.245  22.721  0.00  0.00    -0.314 N 
ATOM     11  H   UNL     1      11.717   3.896  21.771  0.00  0.00    +0.149 HD
ENDBRANCH   7  10
ENDBRANCH   1   7
TORSDOF 2
ENDMDL
MODEL 2
REMARK VINA RESULT:      -4.7      4.212      5.754
REMARK  Name = 
REMARK  2 active torsions:
REMARK  status: ('A' for Active; 'I' for Inactive)
REMARK    1  A    between atoms: N_3  and  C_4
REMARK    2  A    between atoms: C_4  and  C_5
REMARK                            x       y       z     vdW  Elec       q    Type
REMARK                         _______ _______ _______ _____ _____    ______ ____
ROOT
ATOM      1  C   UNL     1      10.154  -0.452  23.004  0.00  0.00    -0.030 A 
ATOM      2  C   UNL     1      10.598   0.260  24.127  0.00  0.00    +0.005 A 
ATOM      3  C   UNL     1      10.650   1.654  24.103  0.00  0.00    +0.000 A 
ATOM      4  C   UNL     1      10.264   2.348  22.958  0.00  0.00    +0.000 A 
ATOM      5  C   UNL     1       9.820   1.649  21.837  0.00  0.00    +0.000 A 
ATOM      6  C   UNL     1       9.767   0.255  21.857  0.00  0.00    +0.005 A 
ENDROOT
BRANCH   1   7
ATOM      7  C   UNL     1      10.182  -1.957  22.998  0.00  0.00    +0.139 C 
BRANCH   7  10
ATOM      8  O   UNL     1      10.054  -4.303  24.593  0.00  0.00    -0.280 OA
ATOM      9  C   UNL     1       9.059  -3.621  24.404  0.00  0.00    +0.325 C 
ATOM     10  N   UNL     1       9.009  -2.478  23.657  0.00  0.00    -0.314 N 
ATOM     11  H   UNL     1       8.133  -1.982  23.558  0.00  0.00    +0.149 HD
ENDBRANCH   7  10
ENDBRANCH   1   7
TORSDOF 2
ENDMDL
MODEL 3
REMARK VINA RESULT:      -4.7      4.206      5.534
REMARK  Name = 
REMARK  2 active torsions:
REMARK  status: ('A' for Active; 'I' for Inactive)
REMARK    1  A    between atoms: N_3  and  C_4
REMARK    2  A    between atoms: C_4  and  C_5
REMARK                            x       y       z     vdW  Elec       q    Type
REMARK                         _______ _______ _______ _____ _____    ______ ____
ROOT
ATOM      1  C   UNL     1      10.220  -0.454  22.991  0.00  0.00    -0.030 A 
ATOM      2  C   UNL     1       9.792   0.240  21.849  0.00  0.00    +0.005 A 
ATOM      3  C   UNL     1       9.796   1.635  21.830  0.00  0.00    +0.000 A 
ATOM      4  C   UNL     1      10.222   2.349  22.948  0.00  0.00    +0.000 A 
ATOM      5  C   UNL     1      10.651   1.669  24.086  0.00  0.00    +0.000 A 
ATOM      6  C   UNL     1      10.647   0.274  24.111  0.00  0.00    +0.005 A 
ENDROOT
BRANCH   1   7
ATOM      7  C   UNL     1      10.132  -1.955  23.045  0.00  0.00    +0.139 C 
BRANCH   7  10
ATOM      8  O   UNL     1      10.062  -4.333  24.596  0.00  0.00    -0.280 OA
ATOM      9  C   UNL     1       9.144  -3.529  24.642  0.00  0.00    +0.325 C 
ATOM     10  N   UNL     1       9.076  -2.358  23.942  0.00  0.00    -0.314 N 
ATOM     11  H   UNL     1       8.269  -1.758  24.047  0.00  0.00    +0.149 HD
ENDBRANCH   7  10
ENDBRANCH   1   7
TORSDOF 2
ENDMDL
MODEL 4
REMARK VINA RESULT:      -4.3      1.998      2.222
REMARK  Name = 
REMARK  2 active torsions:
REMARK  status: ('A' for Active; 'I' for Inactive)
REMARK    1  A    between atoms: N_3  and  C_4
REMARK    2  A    between atoms: C_4  and  C_5
REMARK                            x       y       z     vdW  Elec       q    Type
REMARK                         _______ _______ _______ _____ _____    ______ ____
ROOT
ATOM      1  C   UNL     1      10.282   1.446  23.069  0.00  0.00    -0.030 A 
ATOM      2  C   UNL     1       9.701   1.266  21.806  0.00  0.00    +0.005 A 
ATOM      3  C   UNL     1       9.399  -0.016  21.345  0.00  0.00    +0.000 A 
ATOM      4  C   UNL     1       9.677  -1.128  22.139  0.00  0.00    +0.000 A 
ATOM      5  C   UNL     1      10.253  -0.958  23.397  0.00  0.00    +0.000 A 
ATOM      6  C   UNL     1      10.557   0.322  23.861  0.00  0.00    +0.005 A 
ENDROOT
BRANCH   1   7
ATOM      7  C   UNL     1      10.689   2.820  23.529  0.00  0.00    +0.139 C 
BRANCH   7  10
ATOM      8  O   UNL     1       8.564   3.769  25.156  0.00  0.00    -0.280 OA
ATOM      9  C   UNL     1       8.706   4.176  24.013  0.00  0.00    +0.325 C 
ATOM     10  N   UNL     1       9.690   3.788  23.149  0.00  0.00    -0.314 N 
ATOM     11  H   UNL     1       9.722   4.182  22.217  0.00  0.00    +0.149 HD
ENDBRANCH   7  10
ENDBRANCH   1   7
TORSDOF 2
ENDMDL
MODEL 5
REMARK VINA RESULT:      -4.2      2.022      2.725
REMARK  Name = 
REMARK  2 active torsions:
REMARK  status: ('A' for Active; 'I' for Inactive)
REMARK    1  A    between atoms: N_3  and  C_4
REMARK    2  A    between atoms: C_4  and  C_5
REMARK                            x       y       z     vdW  Elec       q    Type
REMARK                         _______ _______ _______ _____ _____    ______ ____
ROOT
ATOM      1  C   UNL     1      10.303   1.555  23.014  0.00  0.00    -0.030 A 
ATOM      2  C   UNL     1      10.588   0.459  23.841  0.00  0.00    +0.005 A 
ATOM      3  C   UNL     1      10.270  -0.836  23.429  0.00  0.00    +0.000 A 
ATOM      4  C   UNL     1       9.662  -1.047  22.193  0.00  0.00    +0.000 A 
ATOM      5  C   UNL     1       9.376   0.037  21.364  0.00  0.00    +0.000 A 
ATOM      6  C   UNL     1       9.692   1.333  21.772  0.00  0.00    +0.005 A 
ENDROOT
BRANCH   1   7
ATOM      7  C   UNL     1      10.565   2.957  23.495  0.00  0.00    +0.139 C 
BRANCH   7  10
ATOM      8  O   UNL     1       8.496   3.843  25.227  0.00  0.00    -0.280 OA
ATOM      9  C   UNL     1       8.518   4.184  24.054  0.00  0.00    +0.325 C 
ATOM     10  N   UNL     1       9.463   3.818  23.139  0.00  0.00    -0.314 N 
ATOM     11  H   UNL     1       9.394   4.152  22.186  0.00  0.00    +0.149 HD
ENDBRANCH   7  10
ENDBRANCH   1   7
TORSDOF 2
ENDMDL
MODEL 6
REMARK VINA RESULT:      -4.1      2.263      3.073
REMARK  Name = 
REMARK  2 active torsions:
REMARK  status: ('A' for Active; 'I' for Inactive)
REMARK    1  A    between atoms: N_3  and  C_4
REMARK    2  A    between atoms: C_4  and  C_5
REMARK                            x       y       z     vdW  Elec       q    Type
REMARK                         _______ _______ _______ _____ _____    ______ ____
ROOT
ATOM      1  C   UNL     1       8.502   0.581  22.022  0.00  0.00    -0.030 A 
ATOM      2  C   UNL     1       9.439  -0.355  21.561  0.00  0.00    +0.005 A 
ATOM      3  C   UNL     1       9.308  -1.704  21.891  0.00  0.00    +0.000 A 
ATOM      4  C   UNL     1       8.246  -2.129  22.688  0.00  0.00    +0.000 A 
ATOM      5  C   UNL     1       7.310  -1.206  23.149  0.00  0.00    +0.000 A 
ATOM      6  C   UNL     1       7.437   0.144  22.822  0.00  0.00    +0.005 A 
ENDROOT
BRANCH   1   7
ATOM      7  C   UNL     1       8.692   2.047  21.740  0.00  0.00    +0.139 C 
BRANCH   7  10
ATOM      8  O   UNL     1       9.846   2.912  24.187  0.00  0.00    -0.280 OA
ATOM      9  C   UNL     1      10.522   2.824  23.173  0.00  0.00    +0.325 C 
ATOM     10  N   UNL     1      10.070   2.419  21.949  0.00  0.00    -0.314 N 
ATOM     11  H   UNL     1      10.710   2.381  21.166  0.00  0.00    +0.149 HD
ENDBRANCH   7  10
ENDBRANCH   1   7
TORSDOF 2
ENDMDL
MODEL 7
REMARK VINA RESULT:      -4.1      6.513      8.102
REMARK  Name = 
REMARK  2 active torsions:
REMARK  status: ('A' for Active; 'I' for Inactive)
REMARK    1  A    between atoms: N_3  and  C_4
REMARK    2  A    between atoms: C_4  and  C_5
REMARK                            x       y       z     vdW  Elec       q    Type
REMARK                         _______ _______ _______ _____ _____    ______ ____
ROOT
ATOM      1  C   UNL     1       7.894  -3.360  23.205  0.00  0.00    -0.030 A 
ATOM      2  C   UNL     1       8.993  -3.371  24.077  0.00  0.00    +0.005 A 
ATOM      3  C   UNL     1      10.051  -2.481  23.890  0.00  0.00    +0.000 A 
ATOM      4  C   UNL     1      10.024  -1.576  22.831  0.00  0.00    +0.000 A 
ATOM      5  C   UNL     1       8.937  -1.556  21.960  0.00  0.00    +0.000 A 
ATOM      6  C   UNL     1       7.877  -2.445  22.142  0.00  0.00    +0.005 A 
ENDROOT
BRANCH   1   7
ATOM      7  C   UNL     1       6.796  -4.377  23.352  0.00  0.00    +0.139 C 
BRANCH   7  10
ATOM      8  O   UNL     1       5.928  -5.168  20.766  0.00  0.00    -0.280 OA
ATOM      9  C   UNL     1       6.676  -5.880  21.419  0.00  0.00    +0.325 C 
ATOM     10  N   UNL     1       7.153  -5.596  22.667  0.00  0.00    -0.314 N 
ATOM     11  H   UNL     1       7.769  -6.253  23.129  0.00  0.00    +0.149 HD
ENDBRANCH   7  10
ENDBRANCH   1   7
TORSDOF 2
ENDMDL
MODEL 8
REMARK VINA RESULT:      -4.0      8.367      9.245
REMARK  Name = 
REMARK  2 active torsions:
REMARK  status: ('A' for Active; 'I' for Inactive)
REMARK    1  A    between atoms: N_3  and  C_4
REMARK    2  A    between atoms: C_4  and  C_5
REMARK                            x       y       z     vdW  Elec       q    Type
REMARK                         _______ _______ _______ _____ _____    ______ ____
ROOT
ATOM      1  C   UNL     1       7.548  -4.738  24.364  0.00  0.00    -0.030 A 
ATOM      2  C   UNL     1       6.402  -5.212  25.019  0.00  0.00    +0.005 A 
ATOM      3  C   UNL     1       6.433  -5.480  26.387  0.00  0.00    +0.000 A 
ATOM      4  C   UNL     1       7.606  -5.283  27.113  0.00  0.00    +0.000 A 
ATOM      5  C   UNL     1       8.749  -4.811  26.471  0.00  0.00    +0.000 A 
ATOM      6  C   UNL     1       8.724  -4.542  25.102  0.00  0.00    +0.005 A 
ENDROOT
BRANCH   1   7
ATOM      7  C   UNL     1       7.541  -4.534  22.873  0.00  0.00    +0.139 C 
BRANCH   7  10
ATOM      8  O   UNL     1       5.844  -4.901  20.626  0.00  0.00    -0.280 OA
ATOM      9  C   UNL     1       6.434  -5.847  21.124  0.00  0.00    +0.325 C 
ATOM     10  N   UNL     1       7.272  -5.782  22.201  0.00  0.00    -0.314 N 
ATOM     11  H   UNL     1       7.715  -6.625  22.543  0.00  0.00    +0.149 HD
ENDBRANCH   7  10
ENDBRANCH   1   7
TORSDOF 2
ENDMDL
MODEL 9
REMARK VINA RESULT:      -4.0      6.003      7.435
REMARK  Name = 
REMARK  2 active torsions:
REMARK  status: ('A' for Active; 'I' for Inactive)
REMARK    1  A    between atoms: N_3  and  C_4
REMARK    2  A    between atoms: C_4  and  C_5
REMARK                            x       y       z     vdW  Elec       q    Type
REMARK                         _______ _______ _______ _____ _____    ______ ____
ROOT
ATOM      1  C   UNL     1       6.825  -3.681  22.366  0.00  0.00    -0.030 A 
ATOM      2  C   UNL     1       7.123  -5.006  22.017  0.00  0.00    +0.005 A 
ATOM      3  C   UNL     1       6.172  -6.012  22.192  0.00  0.00    +0.000 A 
ATOM      4  C   UNL     1       4.919  -5.705  22.720  0.00  0.00    +0.000 A 
ATOM      5  C   UNL     1       4.613  -4.390  23.068  0.00  0.00    +0.000 A 
ATOM      6  C   UNL     1       5.562  -3.382  22.895  0.00  0.00    +0.005 A 
ENDROOT
BRANCH   1   7
ATOM      7  C   UNL     1       7.880  -2.612  22.261  0.00  0.00    +0.139 C 
BRANCH   7  10
ATOM      8  O   UNL     1      10.615  -1.871  22.450  0.00  0.00    -0.280 OA
ATOM      9  C   UNL     1       9.987  -2.204  23.444  0.00  0.00    +0.325 C 
ATOM     10  N   UNL     1       8.673  -2.577  23.465  0.00  0.00    -0.314 N 
ATOM     11  H   UNL     1       8.240  -2.838  24.342  0.00  0.00    +0.149 HD
ENDBRANCH   7  10
ENDBRANCH   1   7
TORSDOF 2
ENDMDL
