MODEL 1
REMARK VINA RESULT:      -7.4      0.000      0.000
REMARK  Name = 
REMARK  10 active torsions:
REMARK  status: ('A' for Active; 'I' for Inactive)
REMARK    1  A    between atoms: C_2  and  C_28
REMARK    2  A    between atoms: C_7  and  C_10
REMARK    3  A    between atoms: C_11  and  N_12
REMARK    4  A    between atoms: C_17  and  C_18
REMARK    5  A    between atoms: C_18  and  C_19
REMARK    6  A    between atoms: N_20  and  C_21
REMARK    7  A    between atoms: C_21  and  C_22
REMARK    8  A    between atoms: C_22  and  C_23
REMARK    9  A    between atoms: C_23  and  O_24
REMARK   10  A    between atoms: O_24  and  C_25
REMARK                            x       y       z     vdW  Elec       q    Type
REMARK                         _______ _______ _______ _____ _____    ______ ____
ROOT
ATOM      1  C   UNL     1       8.275  -4.731  26.174  0.00  0.00    +0.290 C 
ATOM      2  C   UNL     1       8.566  -4.809  24.665  0.00  0.00    +0.265 C 
ATOM      3  O   UNL     1       8.966  -5.834  24.109  0.00  0.00    -0.271 OA
ATOM      4  N   UNL     1       8.083  -3.685  23.993  0.00  0.00    -0.265 N 
ATOM      5  C   UNL     1       8.044  -2.441  24.694  0.00  0.00    +0.079 A 
ATOM      6  C   UNL     1       7.603  -1.245  24.111  0.00  0.00    +0.036 A 
ATOM      7  C   UNL     1       7.833   0.042  24.672  0.00  0.00    -0.011 A 
ATOM      8  C   UNL     1       8.452   0.039  25.936  0.00  0.00    +0.012 A 
ATOM      9  C   UNL     1       8.754  -1.159  26.612  0.00  0.00    +0.048 A 
ATOM     10  C   UNL     1       8.539  -2.393  25.997  0.00  0.00    +0.143 A 
ATOM     11  O   UNL     1       8.796  -3.518  26.746  0.00  0.00    -0.473 OA
ENDROOT
BRANCH   7  12
ATOM     12  C   UNL     1       7.527   1.301  23.882  0.00  0.00    +0.043 A 
ATOM     13  C   UNL     1       8.296   1.870  22.850  0.00  0.00    +0.056 A 
ATOM     14  N   UNL     1       7.917   3.004  22.188  0.00  0.00    -0.219 NA
ATOM     15  C   UNL     1       6.788   3.602  22.530  0.00  0.00    +0.214 A 
ATOM     16  N   UNL     1       6.437   4.753  21.860  0.00  0.00    -0.327 N 
ATOM     17  H   UNL     1       7.263   5.171  21.459  0.00  0.00    +0.145 HD
ATOM     18  H   UNL     1       5.870   5.340  22.456  0.00  0.00    +0.145 HD
ATOM     19  N   UNL     1       6.006   3.197  23.509  0.00  0.00    -0.199 NA
ATOM     20  C   UNL     1       6.362   2.065  24.138  0.00  0.00    +0.129 A 
BRANCH  20  21
ATOM     21  N   UNL     1       5.427   1.736  25.121  0.00  0.00    -0.343 N 
ATOM     22  H   UNL     1       4.604   2.314  24.971  0.00  0.00    +0.144 HD
ATOM     23  H   UNL     1       5.204   0.748  25.110  0.00  0.00    +0.144 HD
ENDBRANCH  20  21
BRANCH  13  24
ATOM     24  C   UNL     1       9.674   1.443  22.402  0.00  0.00    +0.053 C 
ATOM     25  C   UNL     1       9.649   0.216  21.485  0.00  0.00    +0.010 C 
ENDBRANCH  13  24
ENDBRANCH   7  12
BRANCH   1  26
ATOM     26  C   UNL     1       6.755  -4.932  26.367  0.00  0.00    +0.007 A 
ATOM     27  C   UNL     1       6.057  -4.115  27.283  0.00  0.00    +0.046 A 
ATOM     28  C   UNL     1       4.769  -4.452  27.693  0.00  0.00    +0.127 A 
ATOM     29  F   UNL     1       4.163  -3.711  28.629  0.00  0.00    -0.205 F 
ATOM     30  C   UNL     1       4.129  -5.571  27.190  0.00  0.00    +0.076 A 
ATOM     31  C   UNL     1       4.781  -6.334  26.232  0.00  0.00    +0.127 A 
ATOM     32  F   UNL     1       4.182  -7.427  25.743  0.00  0.00    -0.205 F 
ATOM     33  C   UNL     1       6.069  -6.018  25.803  0.00  0.00    +0.046 A 
ENDBRANCH   1  26
BRANCH   4  34
ATOM     34  C   UNL     1       7.596  -3.856  22.635  0.00  0.00    +0.116 C 
BRANCH  34  35
ATOM     35  C   UNL     1       6.080  -3.968  22.505  0.00  0.00    +0.047 C 
BRANCH  35  36
ATOM     36  C   UNL     1       5.690  -5.414  22.210  0.00  0.00    +0.161 C 
BRANCH  36  37
ATOM     37  O   UNL     1       4.334  -5.607  22.607  0.00  0.00    -0.383 OA
ATOM     38  C   UNL     1       3.824  -4.517  23.359  0.00  0.00    +0.193 C 
ENDBRANCH  36  37
ENDBRANCH  35  36
ENDBRANCH  34  35
ENDBRANCH   4  34
TORSDOF 8
ENDMDL
MODEL 2
REMARK VINA RESULT:      -7.2      2.264      3.535
REMARK  Name = 
REMARK  10 active torsions:
REMARK  status: ('A' for Active; 'I' for Inactive)
REMARK    1  A    between atoms: C_2  and  C_28
REMARK    2  A    between atoms: C_7  and  C_10
REMARK    3  A    between atoms: C_11  and  N_12
REMARK    4  A    between atoms: C_17  and  C_18
REMARK    5  A    between atoms: C_18  and  C_19
REMARK    6  A    between atoms: N_20  and  C_21
REMARK    7  A    between atoms: C_21  and  C_22
REMARK    8  A    between atoms: C_22  and  C_23
REMARK    9  A    between atoms: C_23  and  O_24
REMARK   10  A    between atoms: O_24  and  C_25
REMARK                            x       y       z     vdW  Elec       q    Type
REMARK                         _______ _______ _______ _____ _____    ______ ____
ROOT
ATOM      1  C   UNL     1       6.494  -3.518  26.098  0.00  0.00    +0.290 C 
ATOM      2  C   UNL     1       7.990  -3.170  26.013  0.00  0.00    +0.265 C 
ATOM      3  O   UNL     1       8.877  -3.908  26.447  0.00  0.00    -0.271 OA
ATOM      4  N   UNL     1       8.214  -2.075  25.177  0.00  0.00    -0.265 N 
ATOM      5  C   UNL     1       7.198  -1.077  25.083  0.00  0.00    +0.079 A 
ATOM      6  C   UNL     1       7.325   0.076  24.295  0.00  0.00    +0.036 A 
ATOM      7  C   UNL     1       6.480   1.214  24.413  0.00  0.00    -0.011 A 
ATOM      8  C   UNL     1       5.410   1.070  25.316  0.00  0.00    +0.012 A 
ATOM      9  C   UNL     1       5.169  -0.140  25.995  0.00  0.00    +0.048 A 
ATOM     10  C   UNL     1       6.053  -1.211  25.868  0.00  0.00    +0.143 A 
ATOM     11  O   UNL     1       5.714  -2.381  26.510  0.00  0.00    -0.473 OA
ENDROOT
BRANCH   7  12
ATOM     12  C   UNL     1       6.810   2.507  23.689  0.00  0.00    +0.043 A 
ATOM     13  C   UNL     1       8.021   3.223  23.731  0.00  0.00    +0.056 A 
ATOM     14  N   UNL     1       8.220   4.374  23.022  0.00  0.00    -0.219 NA
ATOM     15  C   UNL     1       7.239   4.846  22.272  0.00  0.00    +0.214 A 
ATOM     16  N   UNL     1       7.458   6.018  21.581  0.00  0.00    -0.327 N 
ATOM     17  H   UNL     1       8.200   6.535  22.029  0.00  0.00    +0.145 HD
ATOM     18  H   UNL     1       6.584   6.503  21.438  0.00  0.00    +0.145 HD
ATOM     19  N   UNL     1       6.045   4.297  22.187  0.00  0.00    -0.199 NA
ATOM     20  C   UNL     1       5.860   3.148  22.858  0.00  0.00    +0.129 A 
BRANCH  20  21
ATOM     21  N   UNL     1       4.569   2.660  22.647  0.00  0.00    -0.343 N 
ATOM     22  H   UNL     1       4.533   2.278  21.705  0.00  0.00    +0.144 HD
ATOM     23  H   UNL     1       4.308   1.975  23.345  0.00  0.00    +0.144 HD
ENDBRANCH  20  21
BRANCH  13  24
ATOM     24  C   UNL     1       9.208   2.951  24.624  0.00  0.00    +0.053 C 
ATOM     25  C   UNL     1      10.477   2.603  23.838  0.00  0.00    +0.010 C 
ENDBRANCH  13  24
ENDBRANCH   7  12
BRANCH   1  26
ATOM     26  C   UNL     1       6.078  -4.126  24.739  0.00  0.00    +0.007 A 
ATOM     27  C   UNL     1       4.723  -4.078  24.343  0.00  0.00    +0.046 A 
ATOM     28  C   UNL     1       4.270  -4.858  23.281  0.00  0.00    +0.127 A 
ATOM     29  F   UNL     1       2.965  -4.863  22.982  0.00  0.00    -0.205 F 
ATOM     30  C   UNL     1       5.137  -5.668  22.568  0.00  0.00    +0.076 A 
ATOM     31  C   UNL     1       6.482  -5.659  22.905  0.00  0.00    +0.127 A 
ATOM     32  F   UNL     1       7.333  -6.446  22.234  0.00  0.00    -0.205 F 
ATOM     33  C   UNL     1       6.962  -4.887  23.961  0.00  0.00    +0.046 A 
ENDBRANCH   1  26
BRANCH   4  34
ATOM     34  C   UNL     1       9.446  -2.042  24.408  0.00  0.00    +0.116 C 
BRANCH  34  35
ATOM     35  C   UNL     1       9.270  -2.222  22.903  0.00  0.00    +0.047 C 
BRANCH  35  36
ATOM     36  C   UNL     1      10.091  -1.175  22.155  0.00  0.00    +0.161 C 
BRANCH  36  37
ATOM     37  O   UNL     1       9.301  -0.660  21.085  0.00  0.00    -0.383 OA
ATOM     38  C   UNL     1       9.065   0.734  21.202  0.00  0.00    +0.193 C 
ENDBRANCH  36  37
ENDBRANCH  35  36
ENDBRANCH  34  35
ENDBRANCH   4  34
TORSDOF 8
ENDMDL
MODEL 3
REMARK VINA RESULT:      -7.1      2.308      4.131
REMARK  Name = 
REMARK  10 active torsions:
REMARK  status: ('A' for Active; 'I' for Inactive)
REMARK    1  A    between atoms: C_2  and  C_28
REMARK    2  A    between atoms: C_7  and  C_10
REMARK    3  A    between atoms: C_11  and  N_12
REMARK    4  A    between atoms: C_17  and  C_18
REMARK    5  A    between atoms: C_18  and  C_19
REMARK    6  A    between atoms: N_20  and  C_21
REMARK    7  A    between atoms: C_21  and  C_22
REMARK    8  A    between atoms: C_22  and  C_23
REMARK    9  A    between atoms: C_23  and  O_24
REMARK   10  A    between atoms: O_24  and  C_25
REMARK                            x       y       z     vdW  Elec       q    Type
REMARK                         _______ _______ _______ _____ _____    ______ ____
ROOT
ATOM      1  C   UNL     1       6.474  -4.585  22.978  0.00  0.00    +0.290 C 
ATOM      2  C   UNL     1       5.319  -3.655  23.392  0.00  0.00    +0.265 C 
ATOM      3  O   UNL     1       4.159  -4.046  23.533  0.00  0.00    -0.271 OA
ATOM      4  N   UNL     1       5.792  -2.415  23.823  0.00  0.00    -0.265 N 
ATOM      5  C   UNL     1       7.000  -1.913  23.251  0.00  0.00    +0.079 A 
ATOM      6  C   UNL     1       7.552  -0.670  23.591  0.00  0.00    +0.036 A 
ATOM      7  C   UNL     1       8.567  -0.020  22.834  0.00  0.00    -0.011 A 
ATOM      8  C   UNL     1       9.076  -0.767  21.756  0.00  0.00    +0.012 A 
ATOM      9  C   UNL     1       8.650  -2.084  21.498  0.00  0.00    +0.048 A 
ATOM     10  C   UNL     1       7.625  -2.657  22.251  0.00  0.00    +0.143 A 
ATOM     11  O   UNL     1       7.311  -3.970  21.982  0.00  0.00    -0.473 OA
ENDROOT
BRANCH   7  12
ATOM     12  C   UNL     1       8.958   1.416  23.131  0.00  0.00    +0.043 A 
ATOM     13  C   UNL     1       8.255   2.583  22.777  0.00  0.00    +0.056 A 
ATOM     14  N   UNL     1       8.690   3.834  23.111  0.00  0.00    -0.219 NA
ATOM     15  C   UNL     1       9.821   3.964  23.786  0.00  0.00    +0.214 A 
ATOM     16  N   UNL     1      10.247   5.237  24.095  0.00  0.00    -0.327 N 
ATOM     17  H   UNL     1       9.829   5.894  23.453  0.00  0.00    +0.145 HD
ATOM     18  H   UNL     1      11.254   5.254  24.176  0.00  0.00    +0.145 HD
ATOM     19  N   UNL     1      10.593   2.956  24.132  0.00  0.00    -0.199 NA
ATOM     20  C   UNL     1      10.150   1.724  23.832  0.00  0.00    +0.129 A 
BRANCH  20  21
ATOM     21  N   UNL     1      11.045   0.756  24.290  0.00  0.00    -0.343 N 
ATOM     22  H   UNL     1      10.890  -0.090  23.747  0.00  0.00    +0.144 HD
ATOM     23  H   UNL     1      12.004   1.075  24.232  0.00  0.00    +0.144 HD
ENDBRANCH  20  21
BRANCH  13  24
ATOM     24  C   UNL     1       7.035   2.676  21.891  0.00  0.00    +0.053 C 
ATOM     25  C   UNL     1       5.723   2.681  22.683  0.00  0.00    +0.010 C 
ENDBRANCH  13  24
ENDBRANCH   7  12
BRANCH   1  26
ATOM     26  C   UNL     1       7.214  -5.010  24.267  0.00  0.00    +0.007 A 
ATOM     27  C   UNL     1       6.473  -5.256  25.443  0.00  0.00    +0.046 A 
ATOM     28  C   UNL     1       7.116  -5.355  26.676  0.00  0.00    +0.127 A 
ATOM     29  F   UNL     1       6.384  -5.499  27.788  0.00  0.00    -0.205 F 
ATOM     30  C   UNL     1       8.493  -5.250  26.774  0.00  0.00    +0.076 A 
ATOM     31  C   UNL     1       9.230  -5.086  25.611  0.00  0.00    +0.127 A 
ATOM     32  F   UNL     1      10.563  -4.971  25.689  0.00  0.00    -0.205 F 
ATOM     33  C   UNL     1       8.613  -4.986  24.366  0.00  0.00    +0.046 A 
ENDBRANCH   1  26
BRANCH   4  34
ATOM     34  C   UNL     1       5.055  -1.729  24.871  0.00  0.00    +0.116 C 
BRANCH  34  35
ATOM     35  C   UNL     1       5.364  -2.200  26.289  0.00  0.00    +0.047 C 
BRANCH  35  36
ATOM     36  C   UNL     1       6.393  -1.273  26.931  0.00  0.00    +0.161 C 
BRANCH  36  37
ATOM     37  O   UNL     1       7.686  -1.854  26.776  0.00  0.00    -0.383 OA
ATOM     38  C   UNL     1       8.731  -0.903  26.904  0.00  0.00    +0.193 C 
ENDBRANCH  36  37
ENDBRANCH  35  36
ENDBRANCH  34  35
ENDBRANCH   4  34
TORSDOF 8
ENDMDL
MODEL 4
REMARK VINA RESULT:      -7.1      3.741      7.221
REMARK  Name = 
REMARK  10 active torsions:
REMARK  status: ('A' for Active; 'I' for Inactive)
REMARK    1  A    between atoms: C_2  and  C_28
REMARK    2  A    between atoms: C_7  and  C_10
REMARK    3  A    between atoms: C_11  and  N_12
REMARK    4  A    between atoms: C_17  and  C_18
REMARK    5  A    between atoms: C_18  and  C_19
REMARK    6  A    between atoms: N_20  and  C_21
REMARK    7  A    between atoms: C_21  and  C_22
REMARK    8  A    between atoms: C_22  and  C_23
REMARK    9  A    between atoms: C_23  and  O_24
REMARK   10  A    between atoms: O_24  and  C_25
REMARK                            x       y       z     vdW  Elec       q    Type
REMARK                         _______ _______ _______ _____ _____    ______ ____
ROOT
ATOM      1  C   UNL     1       9.036  -0.299  26.522  0.00  0.00    +0.290 C 
ATOM      2  C   UNL     1       7.634   0.336  26.529  0.00  0.00    +0.265 C 
ATOM      3  O   UNL     1       7.403   1.451  27.002  0.00  0.00    -0.271 OA
ATOM      4  N   UNL     1       6.745  -0.379  25.724  0.00  0.00    -0.265 N 
ATOM      5  C   UNL     1       6.939  -1.786  25.587  0.00  0.00    +0.079 A 
ATOM      6  C   UNL     1       6.094  -2.607  24.825  0.00  0.00    +0.036 A 
ATOM      7  C   UNL     1       6.078  -4.027  24.912  0.00  0.00    -0.011 A 
ATOM      8  C   UNL     1       7.064  -4.583  25.749  0.00  0.00    +0.012 A 
ATOM      9  C   UNL     1       8.028  -3.784  26.394  0.00  0.00    +0.048 A 
ATOM     10  C   UNL     1       7.971  -2.393  26.302  0.00  0.00    +0.143 A 
ATOM     11  O   UNL     1       8.985  -1.684  26.905  0.00  0.00    -0.473 OA
ENDROOT
BRANCH   7  12
ATOM     12  C   UNL     1       4.991  -4.836  24.229  0.00  0.00    +0.043 A 
ATOM     13  C   UNL     1       5.001  -5.340  22.915  0.00  0.00    +0.056 A 
ATOM     14  N   UNL     1       3.971  -6.077  22.402  0.00  0.00    -0.219 NA
ATOM     15  C   UNL     1       2.915  -6.324  23.160  0.00  0.00    +0.214 A 
ATOM     16  N   UNL     1       1.883  -7.053  22.614  0.00  0.00    -0.327 N 
ATOM     17  H   UNL     1       1.921  -6.984  21.608  0.00  0.00    +0.145 HD
ATOM     18  H   UNL     1       1.010  -6.802  23.057  0.00  0.00    +0.145 HD
ATOM     19  N   UNL     1       2.765  -5.867  24.386  0.00  0.00    -0.199 NA
ATOM     20  C   UNL     1       3.791  -5.170  24.902  0.00  0.00    +0.129 A 
BRANCH  20  21
ATOM     21  N   UNL     1       3.511  -4.785  26.214  0.00  0.00    -0.343 N 
ATOM     22  H   UNL     1       3.068  -3.871  26.179  0.00  0.00    +0.144 HD
ATOM     23  H   UNL     1       2.935  -5.469  26.691  0.00  0.00    +0.144 HD
ENDBRANCH  20  21
BRANCH  13  24
ATOM     24  C   UNL     1       6.025  -5.059  21.840  0.00  0.00    +0.053 C 
ATOM     25  C   UNL     1       7.259  -5.962  21.943  0.00  0.00    +0.010 C 
ENDBRANCH  13  24
ENDBRANCH   7  12
BRANCH   1  26
ATOM     26  C   UNL     1       9.659  -0.037  25.132  0.00  0.00    +0.007 A 
ATOM     27  C   UNL     1       9.858   1.293  24.700  0.00  0.00    +0.046 A 
ATOM     28  C   UNL     1      10.139   1.567  23.363  0.00  0.00    +0.127 A 
ATOM     29  F   UNL     1      10.236   2.840  22.960  0.00  0.00    -0.205 F 
ATOM     30  C   UNL     1      10.266   0.547  22.436  0.00  0.00    +0.076 A 
ATOM     31  C   UNL     1      10.148  -0.764  22.871  0.00  0.00    +0.127 A 
ATOM     32  F   UNL     1      10.255  -1.763  21.985  0.00  0.00    -0.205 F 
ATOM     33  C   UNL     1       9.868  -1.066  24.203  0.00  0.00    +0.046 A 
ENDBRANCH   1  26
BRANCH   4  34
ATOM     34  C   UNL     1       5.705   0.360  25.029  0.00  0.00    +0.116 C 
BRANCH  34  35
ATOM     35  C   UNL     1       6.212   1.413  24.048  0.00  0.00    +0.047 C 
BRANCH  35  36
ATOM     36  C   UNL     1       6.676   0.741  22.758  0.00  0.00    +0.161 C 
BRANCH  36  37
ATOM     37  O   UNL     1       7.035   1.755  21.822  0.00  0.00    -0.383 OA
ATOM     38  C   UNL     1       6.835   3.064  22.331  0.00  0.00    +0.193 C 
ENDBRANCH  36  37
ENDBRANCH  35  36
ENDBRANCH  34  35
ENDBRANCH   4  34
TORSDOF 8
ENDMDL
MODEL 5
REMARK VINA RESULT:      -7.0      0.803      1.635
REMARK  Name = 
REMARK  10 active torsions:
REMARK  status: ('A' for Active; 'I' for Inactive)
REMARK    1  A    between atoms: C_2  and  C_28
REMARK    2  A    between atoms: C_7  and  C_10
REMARK    3  A    between atoms: C_11  and  N_12
REMARK    4  A    between atoms: C_17  and  C_18
REMARK    5  A    between atoms: C_18  and  C_19
REMARK    6  A    between atoms: N_20  and  C_21
REMARK    7  A    between atoms: C_21  and  C_22
REMARK    8  A    between atoms: C_22  and  C_23
REMARK    9  A    between atoms: C_23  and  O_24
REMARK   10  A    between atoms: O_24  and  C_25
REMARK                            x       y       z     vdW  Elec       q    Type
REMARK                         _______ _______ _______ _____ _____    ______ ____
ROOT
ATOM      1  C   UNL     1       8.374  -4.661  25.577  0.00  0.00    +0.290 C 
ATOM      2  C   UNL     1       8.128  -4.740  24.060  0.00  0.00    +0.265 C 
ATOM      3  O   UNL     1       8.301  -5.768  23.403  0.00  0.00    -0.271 OA
ATOM      4  N   UNL     1       7.458  -3.608  23.592  0.00  0.00    -0.265 N 
ATOM      5  C   UNL     1       7.677  -2.366  24.261  0.00  0.00    +0.079 A 
ATOM      6  C   UNL     1       7.077  -1.163  23.862  0.00  0.00    +0.036 A 
ATOM      7  C   UNL     1       7.501   0.120  24.306  0.00  0.00    -0.011 A 
ATOM      8  C   UNL     1       8.516   0.107  25.282  0.00  0.00    +0.012 A 
ATOM      9  C   UNL     1       9.017  -1.096  25.816  0.00  0.00    +0.048 A 
ATOM     10  C   UNL     1       8.590  -2.326  25.315  0.00  0.00    +0.143 A 
ATOM     11  O   UNL     1       9.075  -3.456  25.933  0.00  0.00    -0.473 OA
ENDROOT
BRANCH   7  12
ATOM     12  C   UNL     1       6.957   1.384  23.667  0.00  0.00    +0.043 A 
ATOM     13  C   UNL     1       7.334   1.947  22.433  0.00  0.00    +0.056 A 
ATOM     14  N   UNL     1       6.764   3.085  21.939  0.00  0.00    -0.219 NA
ATOM     15  C   UNL     1       5.827   3.696  22.646  0.00  0.00    +0.214 A 
ATOM     16  N   UNL     1       5.281   4.853  22.134  0.00  0.00    -0.327 N 
ATOM     17  H   UNL     1       5.925   5.262  21.474  0.00  0.00    +0.145 HD
ATOM     18  H   UNL     1       4.959   5.445  22.887  0.00  0.00    +0.145 HD
ATOM     19  N   UNL     1       5.424   3.299  23.834  0.00  0.00    -0.199 NA
ATOM     20  C   UNL     1       5.960   2.161  24.306  0.00  0.00    +0.129 A 
BRANCH  20  21
ATOM     21  N   UNL     1       5.415   1.841  25.550  0.00  0.00    -0.343 N 
ATOM     22  H   UNL     1       6.175   1.821  26.224  0.00  0.00    +0.144 HD
ATOM     23  H   UNL     1       4.685   2.490  25.818  0.00  0.00    +0.144 HD
ENDBRANCH  20  21
BRANCH  13  24
ATOM     24  C   UNL     1       8.470   1.504  21.541  0.00  0.00    +0.053 C 
ATOM     25  C   UNL     1       9.848   1.833  22.125  0.00  0.00    +0.010 C 
ENDBRANCH  13  24
ENDBRANCH   7  12
BRANCH   1  26
ATOM     26  C   UNL     1       7.010  -4.844  26.281  0.00  0.00    +0.007 A 
ATOM     27  C   UNL     1       6.193  -5.943  25.935  0.00  0.00    +0.046 A 
ATOM     28  C   UNL     1       4.856  -5.981  26.326  0.00  0.00    +0.127 A 
ATOM     29  F   UNL     1       4.079  -6.988  25.911  0.00  0.00    -0.205 F 
ATOM     30  C   UNL     1       4.307  -4.965  27.090  0.00  0.00    +0.076 A 
ATOM     31  C   UNL     1       5.126  -3.923  27.496  0.00  0.00    +0.127 A 
ATOM     32  F   UNL     1       4.608  -2.926  28.226  0.00  0.00    -0.205 F 
ATOM     33  C   UNL     1       6.466  -3.862  27.120  0.00  0.00    +0.046 A 
ENDBRANCH   1  26
BRANCH   4  34
ATOM     34  C   UNL     1       6.532  -3.771  22.484  0.00  0.00    +0.116 C 
BRANCH  34  35
ATOM     35  C   UNL     1       5.124  -4.203  22.881  0.00  0.00    +0.047 C 
BRANCH  35  36
ATOM     36  C   UNL     1       4.917  -5.677  22.541  0.00  0.00    +0.161 C 
BRANCH  36  37
ATOM     37  O   UNL     1       3.534  -5.987  22.691  0.00  0.00    -0.383 OA
ATOM     38  C   UNL     1       2.834  -5.012  23.448  0.00  0.00    +0.193 C 
ENDBRANCH  36  37
ENDBRANCH  35  36
ENDBRANCH  34  35
ENDBRANCH   4  34
TORSDOF 8
ENDMDL
MODEL 6
REMARK VINA RESULT:      -6.8      3.444      7.677
REMARK  Name = 
REMARK  10 active torsions:
REMARK  status: ('A' for Active; 'I' for Inactive)
REMARK    1  A    between atoms: C_2  and  C_28
REMARK    2  A    between atoms: C_7  and  C_10
REMARK    3  A    between atoms: C_11  and  N_12
REMARK    4  A    between atoms: C_17  and  C_18
REMARK    5  A    between atoms: C_18  and  C_19
REMARK    6  A    between atoms: N_20  and  C_21
REMARK    7  A    between atoms: C_21  and  C_22
REMARK    8  A    between atoms: C_22  and  C_23
REMARK    9  A    between atoms: C_23  and  O_24
REMARK   10  A    between atoms: O_24  and  C_25
REMARK                            x       y       z     vdW  Elec       q    Type
REMARK                         _______ _______ _______ _____ _____    ______ ____
ROOT
ATOM      1  C   UNL     1       9.211  -0.236  22.177  0.00  0.00    +0.290 C 
ATOM      2  C   UNL     1       9.939  -0.315  23.531  0.00  0.00    +0.265 C 
ATOM      3  O   UNL     1      10.962   0.324  23.783  0.00  0.00    -0.271 OA
ATOM      4  N   UNL     1       9.169  -0.980  24.487  0.00  0.00    -0.265 N 
ATOM      5  C   UNL     1       8.276  -2.002  24.045  0.00  0.00    +0.079 A 
ATOM      6  C   UNL     1       7.474  -2.751  24.919  0.00  0.00    +0.036 A 
ATOM      7  C   UNL     1       6.814  -3.957  24.553  0.00  0.00    -0.011 A 
ATOM      8  C   UNL     1       6.927  -4.308  23.195  0.00  0.00    +0.012 A 
ATOM      9  C   UNL     1       7.591  -3.483  22.266  0.00  0.00    +0.048 A 
ATOM     10  C   UNL     1       8.251  -2.329  22.690  0.00  0.00    +0.143 A 
ATOM     11  O   UNL     1       8.819  -1.541  21.715  0.00  0.00    -0.473 OA
ENDROOT
BRANCH   7  12
ATOM     12  C   UNL     1       6.149  -4.830  25.601  0.00  0.00    +0.043 A 
ATOM     13  C   UNL     1       4.770  -4.997  25.822  0.00  0.00    +0.056 A 
ATOM     14  N   UNL     1       4.274  -5.827  26.788  0.00  0.00    -0.219 NA
ATOM     15  C   UNL     1       5.118  -6.496  27.557  0.00  0.00    +0.214 A 
ATOM     16  N   UNL     1       4.593  -7.312  28.535  0.00  0.00    -0.327 N 
ATOM     17  H   UNL     1       3.659  -7.004  28.761  0.00  0.00    +0.145 HD
ATOM     18  H   UNL     1       5.246  -7.394  29.302  0.00  0.00    +0.145 HD
ATOM     19  N   UNL     1       6.427  -6.388  27.483  0.00  0.00    -0.199 NA
ATOM     20  C   UNL     1       6.915  -5.598  26.512  0.00  0.00    +0.129 A 
BRANCH  20  21
ATOM     21  N   UNL     1       8.311  -5.608  26.526  0.00  0.00    -0.343 N 
ATOM     22  H   UNL     1       8.620  -6.387  25.950  0.00  0.00    +0.144 HD
ATOM     23  H   UNL     1       8.696  -4.726  26.211  0.00  0.00    +0.144 HD
ENDBRANCH  20  21
BRANCH  13  24
ATOM     24  C   UNL     1       3.644  -4.230  25.168  0.00  0.00    +0.053 C 
ATOM     25  C   UNL     1       3.209  -4.837  23.830  0.00  0.00    +0.010 C 
ENDBRANCH  13  24
ENDBRANCH   7  12
BRANCH   1  26
ATOM     26  C   UNL     1       8.047   0.769  22.333  0.00  0.00    +0.007 A 
ATOM     27  C   UNL     1       8.176   2.069  21.796  0.00  0.00    +0.046 A 
ATOM     28  C   UNL     1       7.285   3.076  22.161  0.00  0.00    +0.127 A 
ATOM     29  F   UNL     1       7.481   4.321  21.709  0.00  0.00    -0.205 F 
ATOM     30  C   UNL     1       6.236   2.822  23.028  0.00  0.00    +0.076 A 
ATOM     31  C   UNL     1       6.061   1.529  23.497  0.00  0.00    +0.127 A 
ATOM     32  F   UNL     1       5.058   1.268  24.346  0.00  0.00    -0.205 F 
ATOM     33  C   UNL     1       6.936   0.503  23.146  0.00  0.00    +0.046 A 
ENDBRANCH   1  26
BRANCH   4  34
ATOM     34  C   UNL     1       9.280  -0.554  25.871  0.00  0.00    +0.116 C 
BRANCH  34  35
ATOM     35  C   UNL     1       8.313   0.552  26.284  0.00  0.00    +0.047 C 
BRANCH  35  36
ATOM     36  C   UNL     1       7.453   0.080  27.453  0.00  0.00    +0.161 C 
BRANCH  36  37
ATOM     37  O   UNL     1       6.089   0.378  27.162  0.00  0.00    -0.383 OA
ATOM     38  C   UNL     1       5.311  -0.788  26.941  0.00  0.00    +0.193 C 
ENDBRANCH  36  37
ENDBRANCH  35  36
ENDBRANCH  34  35
ENDBRANCH   4  34
TORSDOF 8
ENDMDL
MODEL 7
REMARK VINA RESULT:      -6.7      2.062      3.325
REMARK  Name = 
REMARK  10 active torsions:
REMARK  status: ('A' for Active; 'I' for Inactive)
REMARK    1  A    between atoms: C_2  and  C_28
REMARK    2  A    between atoms: C_7  and  C_10
REMARK    3  A    between atoms: C_11  and  N_12
REMARK    4  A    between atoms: C_17  and  C_18
REMARK    5  A    between atoms: C_18  and  C_19
REMARK    6  A    between atoms: N_20  and  C_21
REMARK    7  A    between atoms: C_21  and  C_22
REMARK    8  A    between atoms: C_22  and  C_23
REMARK    9  A    between atoms: C_23  and  O_24
REMARK   10  A    between atoms: O_24  and  C_25
REMARK                            x       y       z     vdW  Elec       q    Type
REMARK                         _______ _______ _______ _____ _____    ______ ____
ROOT
ATOM      1  C   UNL     1       6.799  -3.973  26.538  0.00  0.00    +0.290 C 
ATOM      2  C   UNL     1       8.121  -3.884  25.756  0.00  0.00    +0.265 C 
ATOM      3  O   UNL     1       8.959  -4.789  25.747  0.00  0.00    -0.271 OA
ATOM      4  N   UNL     1       8.126  -2.797  24.882  0.00  0.00    -0.265 N 
ATOM      5  C   UNL     1       7.381  -1.634  25.243  0.00  0.00    +0.079 A 
ATOM      6  C   UNL     1       7.334  -0.475  24.455  0.00  0.00    +0.036 A 
ATOM      7  C   UNL     1       6.861   0.783  24.921  0.00  0.00    -0.011 A 
ATOM      8  C   UNL     1       6.325   0.772  26.222  0.00  0.00    +0.012 A 
ATOM      9  C   UNL     1       6.211  -0.416  26.969  0.00  0.00    +0.048 A 
ATOM     10  C   UNL     1       6.726  -1.615  26.475  0.00  0.00    +0.143 A 
ATOM     11  O   UNL     1       6.518  -2.745  27.233  0.00  0.00    -0.473 OA
ENDROOT
BRANCH   7  12
ATOM     12  C   UNL     1       7.046   2.040  24.091  0.00  0.00    +0.043 A 
ATOM     13  C   UNL     1       8.254   2.703  23.803  0.00  0.00    +0.056 A 
ATOM     14  N   UNL     1       8.311   3.824  23.025  0.00  0.00    -0.219 NA
ATOM     15  C   UNL     1       7.190   4.319  22.526  0.00  0.00    +0.214 A 
ATOM     16  N   UNL     1       7.272   5.461  21.760  0.00  0.00    -0.327 N 
ATOM     17  H   UNL     1       8.121   5.957  21.989  0.00  0.00    +0.145 HD
ATOM     18  H   UNL     1       6.408   5.981  21.822  0.00  0.00    +0.145 HD
ATOM     19  N   UNL     1       5.995   3.822  22.762  0.00  0.00    -0.199 NA
ATOM     20  C   UNL     1       5.941   2.700  23.500  0.00  0.00    +0.129 A 
BRANCH  20  21
ATOM     21  N   UNL     1       4.622   2.265  23.636  0.00  0.00    -0.343 N 
ATOM     22  H   UNL     1       4.285   2.008  22.712  0.00  0.00    +0.144 HD
ATOM     23  H   UNL     1       4.546   1.500  24.295  0.00  0.00    +0.144 HD
ENDBRANCH  20  21
BRANCH  13  24
ATOM     24  C   UNL     1       9.617   2.401  24.381  0.00  0.00    +0.053 C 
ATOM     25  C   UNL     1      10.761   2.970  23.535  0.00  0.00    +0.010 C 
ENDBRANCH  13  24
ENDBRANCH   7  12
BRANCH   1  26
ATOM     26  C   UNL     1       5.700  -4.417  25.547  0.00  0.00    +0.007 A 
ATOM     27  C   UNL     1       6.051  -5.207  24.430  0.00  0.00    +0.046 A 
ATOM     28  C   UNL     1       5.155  -5.380  23.377  0.00  0.00    +0.127 A 
ATOM     29  F   UNL     1       5.543  -6.058  22.290  0.00  0.00    -0.205 F 
ATOM     30  C   UNL     1       3.892  -4.814  23.413  0.00  0.00    +0.076 A 
ATOM     31  C   UNL     1       3.516  -4.102  24.542  0.00  0.00    +0.127 A 
ATOM     32  F   UNL     1       2.302  -3.538  24.589  0.00  0.00    -0.205 F 
ATOM     33  C   UNL     1       4.392  -3.916  25.610  0.00  0.00    +0.046 A 
ENDBRANCH   1  26
BRANCH   4  34
ATOM     34  C   UNL     1       8.845  -2.930  23.627  0.00  0.00    +0.116 C 
BRANCH  34  35
ATOM     35  C   UNL     1      10.179  -2.191  23.569  0.00  0.00    +0.047 C 
BRANCH  35  36
ATOM     36  C   UNL     1      10.388  -1.604  22.176  0.00  0.00    +0.161 C 
BRANCH  36  37
ATOM     37  O   UNL     1      10.165  -0.197  22.239  0.00  0.00    -0.383 OA
ATOM     38  C   UNL     1       9.199   0.246  21.299  0.00  0.00    +0.193 C 
ENDBRANCH  36  37
ENDBRANCH  35  36
ENDBRANCH  34  35
ENDBRANCH   4  34
TORSDOF 8
ENDMDL
MODEL 8
REMARK VINA RESULT:      -6.5      2.495      3.913
REMARK  Name = 
REMARK  10 active torsions:
REMARK  status: ('A' for Active; 'I' for Inactive)
REMARK    1  A    between atoms: C_2  and  C_28
REMARK    2  A    between atoms: C_7  and  C_10
REMARK    3  A    between atoms: C_11  and  N_12
REMARK    4  A    between atoms: C_17  and  C_18
REMARK    5  A    between atoms: C_18  and  C_19
REMARK    6  A    between atoms: N_20  and  C_21
REMARK    7  A    between atoms: C_21  and  C_22
REMARK    8  A    between atoms: C_22  and  C_23
REMARK    9  A    between atoms: C_23  and  O_24
REMARK   10  A    between atoms: O_24  and  C_25
REMARK                            x       y       z     vdW  Elec       q    Type
REMARK                         _______ _______ _______ _____ _____    ______ ____
ROOT
ATOM      1  C   UNL     1       7.366  -4.782  25.769  0.00  0.00    +0.290 C 
ATOM      2  C   UNL     1       8.784  -4.213  25.583  0.00  0.00    +0.265 C 
ATOM      3  O   UNL     1       9.790  -4.923  25.518  0.00  0.00    -0.271 OA
ATOM      4  N   UNL     1       8.751  -2.859  25.244  0.00  0.00    -0.265 N 
ATOM      5  C   UNL     1       7.675  -2.063  25.741  0.00  0.00    +0.079 A 
ATOM      6  C   UNL     1       7.555  -0.690  25.486  0.00  0.00    +0.036 A 
ATOM      7  C   UNL     1       6.682   0.176  26.202  0.00  0.00    -0.011 A 
ATOM      8  C   UNL     1       5.842  -0.462  27.133  0.00  0.00    +0.012 A 
ATOM      9  C   UNL     1       5.831  -1.862  27.286  0.00  0.00    +0.048 A 
ATOM     10  C   UNL     1       6.736  -2.659  26.584  0.00  0.00    +0.143 A 
ATOM     11  O   UNL     1       6.620  -4.021  26.736  0.00  0.00    -0.473 OA
ENDROOT
BRANCH   7  12
ATOM     12  C   UNL     1       6.764   1.682  26.028  0.00  0.00    +0.043 A 
ATOM     13  C   UNL     1       6.516   2.420  24.855  0.00  0.00    +0.056 A 
ATOM     14  N   UNL     1       6.601   3.783  24.812  0.00  0.00    -0.219 NA
ATOM     15  C   UNL     1       6.939   4.442  25.909  0.00  0.00    +0.214 A 
ATOM     16  N   UNL     1       7.036   5.814  25.834  0.00  0.00    -0.327 N 
ATOM     17  H   UNL     1       7.190   6.086  24.875  0.00  0.00    +0.145 HD
ATOM     18  H   UNL     1       7.699   6.151  26.518  0.00  0.00    +0.145 HD
ATOM     19  N   UNL     1       7.242   3.865  27.052  0.00  0.00    -0.199 NA
ATOM     20  C   UNL     1       7.127   2.528  27.104  0.00  0.00    +0.129 A 
BRANCH  20  21
ATOM     21  N   UNL     1       7.440   2.058  28.380  0.00  0.00    -0.343 N 
ATOM     22  H   UNL     1       8.430   1.826  28.390  0.00  0.00    +0.144 HD
ATOM     23  H   UNL     1       7.201   2.732  29.097  0.00  0.00    +0.144 HD
ENDBRANCH  20  21
BRANCH  13  24
ATOM     24  C   UNL     1       6.264   1.871  23.471  0.00  0.00    +0.053 C 
ATOM     25  C   UNL     1       5.996   2.967  22.435  0.00  0.00    +0.010 C 
ENDBRANCH  13  24
ENDBRANCH   7  12
BRANCH   1  26
ATOM     26  C   UNL     1       6.710  -4.867  24.372  0.00  0.00    +0.007 A 
ATOM     27  C   UNL     1       5.309  -4.735  24.254  0.00  0.00    +0.046 A 
ATOM     28  C   UNL     1       4.663  -5.091  23.072  0.00  0.00    +0.127 A 
ATOM     29  F   UNL     1       3.326  -5.041  23.015  0.00  0.00    -0.205 F 
ATOM     30  C   UNL     1       5.376  -5.548  21.977  0.00  0.00    +0.076 A 
ATOM     31  C   UNL     1       6.759  -5.606  22.063  0.00  0.00    +0.127 A 
ATOM     32  F   UNL     1       7.464  -6.056  21.018  0.00  0.00    -0.205 F 
ATOM     33  C   UNL     1       7.430  -5.254  23.233  0.00  0.00    +0.046 A 
ENDBRANCH   1  26
BRANCH   4  34
ATOM     34  C   UNL     1       9.785  -2.349  24.361  0.00  0.00    +0.116 C 
BRANCH  34  35
ATOM     35  C   UNL     1       9.353  -2.154  22.911  0.00  0.00    +0.047 C 
BRANCH  35  36
ATOM     36  C   UNL     1      10.279  -1.154  22.223  0.00  0.00    +0.161 C 
BRANCH  36  37
ATOM     37  O   UNL     1       9.481  -0.226  21.492  0.00  0.00    -0.383 OA
ATOM     38  C   UNL     1       9.710   1.118  21.883  0.00  0.00    +0.193 C 
ENDBRANCH  36  37
ENDBRANCH  35  36
ENDBRANCH  34  35
ENDBRANCH   4  34
TORSDOF 8
ENDMDL
MODEL 9
REMARK VINA RESULT:      -6.4      3.854      7.664
REMARK  Name = 
REMARK  10 active torsions:
REMARK  status: ('A' for Active; 'I' for Inactive)
REMARK    1  A    between atoms: C_2  and  C_28
REMARK    2  A    between atoms: C_7  and  C_10
REMARK    3  A    between atoms: C_11  and  N_12
REMARK    4  A    between atoms: C_17  and  C_18
REMARK    5  A    between atoms: C_18  and  C_19
REMARK    6  A    between atoms: N_20  and  C_21
REMARK    7  A    between atoms: C_21  and  C_22
REMARK    8  A    between atoms: C_22  and  C_23
REMARK    9  A    between atoms: C_23  and  O_24
REMARK   10  A    between atoms: O_24  and  C_25
REMARK                            x       y       z     vdW  Elec       q    Type
REMARK                         _______ _______ _______ _____ _____    ______ ____
ROOT
ATOM      1  C   UNL     1       8.744   0.170  25.581  0.00  0.00    +0.290 C 
ATOM      2  C   UNL     1       7.460   0.375  26.404  0.00  0.00    +0.265 C 
ATOM      3  O   UNL     1       7.236   1.396  27.057  0.00  0.00    -0.271 OA
ATOM      4  N   UNL     1       6.504  -0.599  26.111  0.00  0.00    -0.265 N 
ATOM      5  C   UNL     1       6.956  -1.896  25.723  0.00  0.00    +0.079 A 
ATOM      6  C   UNL     1       6.086  -2.956  25.431  0.00  0.00    +0.036 A 
ATOM      7  C   UNL     1       6.495  -4.316  25.341  0.00  0.00    -0.011 A 
ATOM      8  C   UNL     1       7.881  -4.529  25.457  0.00  0.00    +0.012 A 
ATOM      9  C   UNL     1       8.789  -3.460  25.587  0.00  0.00    +0.048 A 
ATOM     10  C   UNL     1       8.327  -2.150  25.707  0.00  0.00    +0.143 A 
ATOM     11  O   UNL     1       9.277  -1.154  25.763  0.00  0.00    -0.473 OA
ENDROOT
BRANCH   7  12
ATOM     12  C   UNL     1       5.472  -5.432  25.243  0.00  0.00    +0.043 A 
ATOM     13  C   UNL     1       5.011  -6.068  24.075  0.00  0.00    +0.056 A 
ATOM     14  N   UNL     1       4.095  -7.081  24.101  0.00  0.00    -0.219 NA
ATOM     15  C   UNL     1       3.609  -7.480  25.265  0.00  0.00    +0.214 A 
ATOM     16  N   UNL     1       2.673  -8.491  25.263  0.00  0.00    -0.327 N 
ATOM     17  H   UNL     1       2.227  -8.531  24.358  0.00  0.00    +0.145 HD
ATOM     18  H   UNL     1       2.068  -8.403  26.067  0.00  0.00    +0.145 HD
ATOM     19  N   UNL     1       3.922  -6.934  26.421  0.00  0.00    -0.199 NA
ATOM     20  C   UNL     1       4.847  -5.960  26.399  0.00  0.00    +0.129 A 
BRANCH  20  21
ATOM     21  N   UNL     1       5.108  -5.503  27.692  0.00  0.00    -0.343 N 
ATOM     22  H   UNL     1       5.247  -6.317  28.285  0.00  0.00    +0.144 HD
ATOM     23  H   UNL     1       5.904  -4.877  27.714  0.00  0.00    +0.144 HD
ENDBRANCH  20  21
BRANCH  13  24
ATOM     24  C   UNL     1       5.315  -5.679  22.647  0.00  0.00    +0.053 C 
ATOM     25  C   UNL     1       6.677  -6.194  22.168  0.00  0.00    +0.010 C 
ENDBRANCH  13  24
ENDBRANCH   7  12
BRANCH   1  26
ATOM     26  C   UNL     1       8.422   0.539  24.115  0.00  0.00    +0.007 A 
ATOM     27  C   UNL     1       8.982  -0.227  23.069  0.00  0.00    +0.046 A 
ATOM     28  C   UNL     1       8.953   0.242  21.757  0.00  0.00    +0.127 A 
ATOM     29  F   UNL     1       9.568  -0.458  20.796  0.00  0.00    -0.205 F 
ATOM     30  C   UNL     1       8.348   1.447  21.442  0.00  0.00    +0.076 A 
ATOM     31  C   UNL     1       7.730   2.164  22.455  0.00  0.00    +0.127 A 
ATOM     32  F   UNL     1       7.150   3.338  22.170  0.00  0.00    -0.205 F 
ATOM     33  C   UNL     1       7.743   1.717  23.775  0.00  0.00    +0.046 A 
ENDBRANCH   1  26
BRANCH   4  34
ATOM     34  C   UNL     1       5.102  -0.220  26.164  0.00  0.00    +0.116 C 
BRANCH  34  35
ATOM     35  C   UNL     1       4.386  -0.588  27.460  0.00  0.00    +0.047 C 
BRANCH  35  36
ATOM     36  C   UNL     1       2.886  -0.345  27.311  0.00  0.00    +0.161 C 
BRANCH  36  37
ATOM     37  O   UNL     1       2.325  -1.423  26.565  0.00  0.00    -0.383 OA
ATOM     38  C   UNL     1       2.696  -2.693  27.077  0.00  0.00    +0.193 C 
ENDBRANCH  36  37
ENDBRANCH  35  36
ENDBRANCH  34  35
ENDBRANCH   4  34
TORSDOF 8
ENDMDL
