MODEL 1
REMARK VINA RESULT:      -7.3      0.000      0.000
REMARK  Name = 
REMARK  11 active torsions:
REMARK  status: ('A' for Active; 'I' for Inactive)
REMARK    1  A    between atoms: C_1  and  O_2
REMARK    2  A    between atoms: O_2  and  C_3
REMARK    3  A    between atoms: C_6  and  C_9
REMARK    4  A    between atoms: N_18  and  C_19
REMARK    5  A    between atoms: C_19  and  C_20
REMARK    6  A    between atoms: C_20  and  N_21
REMARK    7  A    between atoms: N_21  and  C_22
REMARK    8  A    between atoms: N_21  and  C_23
REMARK    9  A    between atoms: C_26  and  O_28
REMARK   10  A    between atoms: O_28  and  C_29
REMARK   11  A    between atoms: C_29  and  C_30
REMARK                            x       y       z     vdW  Elec       q    Type
REMARK                         _______ _______ _______ _____ _____    ______ ____
ROOT
ATOM      1  C   UNL     1       7.845  -1.410  22.875  0.00  0.00    +0.131 C 
ATOM      2  C   UNL     1       8.807  -1.728  24.044  0.00  0.00    +0.279 C 
ATOM      3  C   UNL     1       9.126  -3.222  24.186  0.00  0.00    +0.262 C 
ATOM      4  O   UNL     1      10.278  -3.659  24.193  0.00  0.00    -0.271 OA
ATOM      5  N   UNL     1       8.017  -4.026  24.460  0.00  0.00    -0.266 N 
ATOM      6  C   UNL     1       7.365  -4.590  23.323  0.00  0.00    +0.050 A 
ATOM      7  C   UNL     1       6.521  -3.777  22.548  0.00  0.00    +0.030 A 
ATOM      8  C   UNL     1       5.931  -4.282  21.385  0.00  0.00    +0.016 A 
ATOM      9  C   UNL     1       6.183  -5.593  20.986  0.00  0.00    +0.001 A 
ATOM     10  C   UNL     1       7.010  -6.406  21.757  0.00  0.00    +0.002 A 
ATOM     11  C   UNL     1       7.596  -5.912  22.926  0.00  0.00    +0.024 A 
ATOM     12  S   UNL     1       6.141  -2.102  23.019  0.00  0.00    -0.111 S 
ENDROOT
BRANCH   1  16
ATOM     13  C   UNL     1       7.580   2.869  22.219  0.00  0.00    +0.120 A 
ATOM     14  C   UNL     1       8.666   2.144  21.729  0.00  0.00    +0.046 A 
ATOM     15  C   UNL     1       8.740   0.764  21.933  0.00  0.00    +0.008 A 
ATOM     16  C   UNL     1       7.726   0.091  22.627  0.00  0.00    -0.030 A 
ATOM     17  C   UNL     1       6.606   0.825  23.053  0.00  0.00    +0.008 A 
ATOM     18  C   UNL     1       6.535   2.200  22.849  0.00  0.00    +0.046 A 
BRANCH  13  20
ATOM     19  C   UNL     1       6.367   4.771  22.865  0.00  0.00    +0.277 C 
ATOM     20  O   UNL     1       7.431   4.223  22.091  0.00  0.00    -0.495 OA
ENDBRANCH  13  20
ENDBRANCH   1  16
BRANCH   2  21
ATOM     21  O   UNL     1       8.265  -1.279  25.305  0.00  0.00    -0.451 OA
BRANCH  21  22
ATOM     22  C   UNL     1       9.128  -0.638  26.133  0.00  0.00    +0.305 C 
ATOM     23  O   UNL     1       9.108  -0.676  27.353  0.00  0.00    -0.251 OA
ATOM     24  C   UNL     1      10.098   0.183  25.338  0.00  0.00    +0.136 C 
ENDBRANCH  21  22
ENDBRANCH   2  21
BRANCH   5  25
ATOM     25  C   UNL     1       8.024  -4.770  25.723  0.00  0.00    +0.129 C 
BRANCH  25  26
ATOM     26  C   UNL     1       6.573  -4.830  26.265  0.00  0.00    +0.103 C 
BRANCH  26  27
ATOM     27  N   UNL     1       6.023  -6.171  26.538  0.00  0.00    -0.307 NA
ATOM     28  C   UNL     1       4.971  -6.473  25.558  0.00  0.00    +0.104 C 
ATOM     29  C   UNL     1       5.476  -6.286  27.891  0.00  0.00    +0.104 C 
ENDBRANCH  26  27
ENDBRANCH  25  26
ENDBRANCH   5  25
TORSDOF 7
ENDMDL
MODEL 2
REMARK VINA RESULT:      -6.5      2.968      7.501
REMARK  Name = 
REMARK  11 active torsions:
REMARK  status: ('A' for Active; 'I' for Inactive)
REMARK    1  A    between atoms: C_1  and  O_2
REMARK    2  A    between atoms: O_2  and  C_3
REMARK    3  A    between atoms: C_6  and  C_9
REMARK    4  A    between atoms: N_18  and  C_19
REMARK    5  A    between atoms: C_19  and  C_20
REMARK    6  A    between atoms: C_20  and  N_21
REMARK    7  A    between atoms: N_21  and  C_22
REMARK    8  A    between atoms: N_21  and  C_23
REMARK    9  A    between atoms: C_26  and  O_28
REMARK   10  A    between atoms: O_28  and  C_29
REMARK   11  A    between atoms: C_29  and  C_30
REMARK                            x       y       z     vdW  Elec       q    Type
REMARK                         _______ _______ _______ _____ _____    ______ ____
ROOT
ATOM      1  C   UNL     1       6.143  -4.014  24.576  0.00  0.00    +0.131 C 
ATOM      2  C   UNL     1       7.375  -4.405  23.726  0.00  0.00    +0.279 C 
ATOM      3  C   UNL     1       8.656  -3.662  24.126  0.00  0.00    +0.262 C 
ATOM      4  O   UNL     1       9.698  -4.248  24.428  0.00  0.00    -0.271 OA
ATOM      5  N   UNL     1       8.593  -2.276  23.971  0.00  0.00    -0.266 N 
ATOM      6  C   UNL     1       8.178  -1.543  25.123  0.00  0.00    +0.050 A 
ATOM      7  C   UNL     1       6.814  -1.517  25.460  0.00  0.00    +0.030 A 
ATOM      8  C   UNL     1       6.390  -0.871  26.626  0.00  0.00    +0.016 A 
ATOM      9  C   UNL     1       7.319  -0.257  27.462  0.00  0.00    +0.001 A 
ATOM     10  C   UNL     1       8.671  -0.269  27.126  0.00  0.00    +0.002 A 
ATOM     11  C   UNL     1       9.102  -0.904  25.958  0.00  0.00    +0.024 A 
ATOM     12  S   UNL     1       5.577  -2.265  24.420  0.00  0.00    -0.111 S 
ENDROOT
BRANCH   1  16
ATOM     13  C   UNL     1       2.802  -6.651  23.748  0.00  0.00    +0.120 A 
ATOM     14  C   UNL     1       3.897  -7.106  24.481  0.00  0.00    +0.046 A 
ATOM     15  C   UNL     1       4.965  -6.248  24.755  0.00  0.00    +0.008 A 
ATOM     16  C   UNL     1       4.948  -4.922  24.302  0.00  0.00    -0.030 A 
ATOM     17  C   UNL     1       3.807  -4.461  23.625  0.00  0.00    +0.008 A 
ATOM     18  C   UNL     1       2.744  -5.318  23.354  0.00  0.00    +0.046 A 
BRANCH  13  20
ATOM     19  C   UNL     1       1.592  -8.618  24.170  0.00  0.00    +0.277 C 
ATOM     20  O   UNL     1       1.721  -7.420  23.409  0.00  0.00    -0.495 OA
ENDBRANCH  13  20
ENDBRANCH   1  16
BRANCH   2  21
ATOM     21  O   UNL     1       7.146  -4.150  22.323  0.00  0.00    -0.451 OA
BRANCH  21  22
ATOM     22  C   UNL     1       6.766  -5.216  21.575  0.00  0.00    +0.305 C 
ATOM     23  O   UNL     1       5.960  -5.194  20.659  0.00  0.00    -0.251 OA
ATOM     24  C   UNL     1       7.441  -6.461  22.064  0.00  0.00    +0.136 C 
ENDBRANCH  21  22
ENDBRANCH   2  21
BRANCH   5  25
ATOM     25  C   UNL     1       9.538  -1.662  23.034  0.00  0.00    +0.129 C 
BRANCH  25  26
ATOM     26  C   UNL     1       8.743  -0.761  22.055  0.00  0.00    +0.103 C 
BRANCH  26  27
ATOM     27  N   UNL     1       9.309   0.572  21.774  0.00  0.00    -0.307 NA
ATOM     28  C   UNL     1      10.170   0.980  22.892  0.00  0.00    +0.104 C 
ATOM     29  C   UNL     1       8.273   1.585  21.563  0.00  0.00    +0.104 C 
ENDBRANCH  26  27
ENDBRANCH  25  26
ENDBRANCH   5  25
TORSDOF 7
ENDMDL
MODEL 3
REMARK VINA RESULT:      -6.5      1.827      2.421
REMARK  Name = 
REMARK  11 active torsions:
REMARK  status: ('A' for Active; 'I' for Inactive)
REMARK    1  A    between atoms: C_1  and  O_2
REMARK    2  A    between atoms: O_2  and  C_3
REMARK    3  A    between atoms: C_6  and  C_9
REMARK    4  A    between atoms: N_18  and  C_19
REMARK    5  A    between atoms: C_19  and  C_20
REMARK    6  A    between atoms: C_20  and  N_21
REMARK    7  A    between atoms: N_21  and  C_22
REMARK    8  A    between atoms: N_21  and  C_23
REMARK    9  A    between atoms: C_26  and  O_28
REMARK   10  A    between atoms: O_28  and  C_29
REMARK   11  A    between atoms: C_29  and  C_30
REMARK                            x       y       z     vdW  Elec       q    Type
REMARK                         _______ _______ _______ _____ _____    ______ ____
ROOT
ATOM      1  C   UNL     1       7.069   0.004  22.992  0.00  0.00    +0.131 C 
ATOM      2  C   UNL     1       8.609  -0.122  23.079  0.00  0.00    +0.279 C 
ATOM      3  C   UNL     1       9.121  -1.548  22.834  0.00  0.00    +0.262 C 
ATOM      4  O   UNL     1       9.964  -1.812  21.974  0.00  0.00    -0.271 OA
ATOM      5  N   UNL     1       8.673  -2.492  23.760  0.00  0.00    -0.266 N 
ATOM      6  C   UNL     1       7.481  -3.190  23.404  0.00  0.00    +0.050 A 
ATOM      7  C   UNL     1       6.242  -2.541  23.541  0.00  0.00    +0.030 A 
ATOM      8  C   UNL     1       5.067  -3.175  23.127  0.00  0.00    +0.016 A 
ATOM      9  C   UNL     1       5.118  -4.450  22.570  0.00  0.00    +0.001 A 
ATOM     10  C   UNL     1       6.343  -5.103  22.443  0.00  0.00    +0.002 A 
ATOM     11  C   UNL     1       7.522  -4.480  22.863  0.00  0.00    +0.024 A 
ATOM     12  S   UNL     1       6.109  -0.920  24.267  0.00  0.00    -0.111 S 
ENDROOT
BRANCH   1  16
ATOM     13  C   UNL     1       5.861   4.168  23.089  0.00  0.00    +0.120 A 
ATOM     14  C   UNL     1       6.696   3.697  22.076  0.00  0.00    +0.046 A 
ATOM     15  C   UNL     1       7.072   2.352  22.044  0.00  0.00    +0.008 A 
ATOM     16  C   UNL     1       6.614   1.460  23.022  0.00  0.00    -0.030 A 
ATOM     17  C   UNL     1       5.719   1.936  23.995  0.00  0.00    +0.008 A 
ATOM     18  C   UNL     1       5.346   3.277  24.025  0.00  0.00    +0.046 A 
BRANCH  13  20
ATOM     19  C   UNL     1       4.045   5.650  23.212  0.00  0.00    +0.277 C 
ATOM     20  O   UNL     1       5.459   5.469  23.220  0.00  0.00    -0.495 OA
ENDBRANCH  13  20
ENDBRANCH   1  16
BRANCH   2  21
ATOM     21  O   UNL     1       9.096   0.296  24.373  0.00  0.00    -0.451 OA
BRANCH  21  22
ATOM     22  C   UNL     1      10.317   0.887  24.390  0.00  0.00    +0.305 C 
ATOM     23  O   UNL     1      11.324   0.432  24.908  0.00  0.00    -0.251 OA
ATOM     24  C   UNL     1      10.255   2.226  23.720  0.00  0.00    +0.136 C 
ENDBRANCH  21  22
ENDBRANCH   2  21
BRANCH   5  25
ATOM     25  C   UNL     1       9.688  -3.173  24.568  0.00  0.00    +0.129 C 
BRANCH  25  26
ATOM     26  C   UNL     1       9.155  -3.303  26.018  0.00  0.00    +0.103 C 
BRANCH  26  27
ATOM     27  N   UNL     1       8.969  -4.672  26.534  0.00  0.00    -0.307 NA
ATOM     28  C   UNL     1       9.527  -5.634  25.573  0.00  0.00    +0.104 C 
ATOM     29  C   UNL     1       7.561  -4.990  26.778  0.00  0.00    +0.104 C 
ENDBRANCH  26  27
ENDBRANCH  25  26
ENDBRANCH   5  25
TORSDOF 7
ENDMDL
MODEL 4
REMARK VINA RESULT:      -6.3      2.515      4.137
REMARK  Name = 
REMARK  11 active torsions:
REMARK  status: ('A' for Active; 'I' for Inactive)
REMARK    1  A    between atoms: C_1  and  O_2
REMARK    2  A    between atoms: O_2  and  C_3
REMARK    3  A    between atoms: C_6  and  C_9
REMARK    4  A    between atoms: N_18  and  C_19
REMARK    5  A    between atoms: C_19  and  C_20
REMARK    6  A    between atoms: C_20  and  N_21
REMARK    7  A    between atoms: N_21  and  C_22
REMARK    8  A    between atoms: N_21  and  C_23
REMARK    9  A    between atoms: C_26  and  O_28
REMARK   10  A    between atoms: O_28  and  C_29
REMARK   11  A    between atoms: C_29  and  C_30
REMARK                            x       y       z     vdW  Elec       q    Type
REMARK                         _______ _______ _______ _____ _____    ______ ____
ROOT
ATOM      1  C   UNL     1       8.474  -0.043  24.582  0.00  0.00    +0.131 C 
ATOM      2  C   UNL     1       6.944   0.087  24.777  0.00  0.00    +0.279 C 
ATOM      3  C   UNL     1       6.276  -1.205  25.264  0.00  0.00    +0.262 C 
ATOM      4  O   UNL     1       5.581  -1.252  26.280  0.00  0.00    -0.271 OA
ATOM      5  N   UNL     1       6.392  -2.283  24.384  0.00  0.00    -0.266 N 
ATOM      6  C   UNL     1       7.509  -3.144  24.603  0.00  0.00    +0.050 A 
ATOM      7  C   UNL     1       8.784  -2.728  24.182  0.00  0.00    +0.030 A 
ATOM      8  C   UNL     1       9.905  -3.517  24.453  0.00  0.00    +0.016 A 
ATOM      9  C   UNL     1       9.766  -4.716  25.149  0.00  0.00    +0.001 A 
ATOM     10  C   UNL     1       8.502  -5.138  25.558  0.00  0.00    +0.002 A 
ATOM     11  C   UNL     1       7.375  -4.360  25.282  0.00  0.00    +0.024 A 
ATOM     12  S   UNL     1       9.023  -1.218  23.269  0.00  0.00    -0.111 S 
ENDROOT
BRANCH   1  16
ATOM     13  C   UNL     1      10.266   3.823  23.782  0.00  0.00    +0.120 A 
ATOM     14  C   UNL     1       9.215   3.705  24.691  0.00  0.00    +0.046 A 
ATOM     15  C   UNL     1       8.650   2.456  24.953  0.00  0.00    +0.008 A 
ATOM     16  C   UNL     1       9.132   1.306  24.312  0.00  0.00    -0.030 A 
ATOM     17  C   UNL     1      10.235   1.433  23.452  0.00  0.00    +0.008 A 
ATOM     18  C   UNL     1      10.797   2.681  23.192  0.00  0.00    +0.046 A 
BRANCH  13  20
ATOM     19  C   UNL     1      12.277   4.913  23.257  0.00  0.00    +0.277 C 
ATOM     20  O   UNL     1      10.867   5.005  23.441  0.00  0.00    -0.495 OA
ENDBRANCH  13  20
ENDBRANCH   1  16
BRANCH   2  21
ATOM     21  O   UNL     1       6.290   0.476  23.549  0.00  0.00    -0.451 OA
BRANCH  21  22
ATOM     22  C   UNL     1       5.583   1.633  23.589  0.00  0.00    +0.305 C 
ATOM     23  O   UNL     1       4.679   1.891  24.367  0.00  0.00    -0.251 OA
ATOM     24  C   UNL     1       6.031   2.554  22.494  0.00  0.00    +0.136 C 
ENDBRANCH  21  22
ENDBRANCH   2  21
BRANCH   5  25
ATOM     25  C   UNL     1       5.150  -2.845  23.845  0.00  0.00    +0.129 C 
BRANCH  25  26
ATOM     26  C   UNL     1       5.392  -3.240  22.365  0.00  0.00    +0.103 C 
BRANCH  26  27
ATOM     27  N   UNL     1       5.141  -4.648  22.006  0.00  0.00    -0.307 NA
ATOM     28  C   UNL     1       4.490  -5.328  23.134  0.00  0.00    +0.104 C 
ATOM     29  C   UNL     1       6.369  -5.361  21.651  0.00  0.00    +0.104 C 
ENDBRANCH  26  27
ENDBRANCH  25  26
ENDBRANCH   5  25
TORSDOF 7
ENDMDL
MODEL 5
REMARK VINA RESULT:      -6.2      2.499      3.708
REMARK  Name = 
REMARK  11 active torsions:
REMARK  status: ('A' for Active; 'I' for Inactive)
REMARK    1  A    between atoms: C_1  and  O_2
REMARK    2  A    between atoms: O_2  and  C_3
REMARK    3  A    between atoms: C_6  and  C_9
REMARK    4  A    between atoms: N_18  and  C_19
REMARK    5  A    between atoms: C_19  and  C_20
REMARK    6  A    between atoms: C_20  and  N_21
REMARK    7  A    between atoms: N_21  and  C_22
REMARK    8  A    between atoms: N_21  and  C_23
REMARK    9  A    between atoms: C_26  and  O_28
REMARK   10  A    between atoms: O_28  and  C_29
REMARK   11  A    between atoms: C_29  and  C_30
REMARK                            x       y       z     vdW  Elec       q    Type
REMARK                         _______ _______ _______ _____ _____    ______ ____
ROOT
ATOM      1  C   UNL     1       6.492  -0.701  23.815  0.00  0.00    +0.131 C 
ATOM      2  C   UNL     1       6.900  -1.693  22.701  0.00  0.00    +0.279 C 
ATOM      3  C   UNL     1       5.956  -2.897  22.577  0.00  0.00    +0.262 C 
ATOM      4  O   UNL     1       5.402  -3.202  21.519  0.00  0.00    -0.271 OA
ATOM      5  N   UNL     1       5.897  -3.705  23.715  0.00  0.00    -0.266 N 
ATOM      6  C   UNL     1       4.867  -3.386  24.648  0.00  0.00    +0.050 A 
ATOM      7  C   UNL     1       5.037  -2.283  25.502  0.00  0.00    +0.030 A 
ATOM      8  C   UNL     1       4.010  -1.902  26.371  0.00  0.00    +0.016 A 
ATOM      9  C   UNL     1       2.811  -2.610  26.391  0.00  0.00    +0.001 A 
ATOM     10  C   UNL     1       2.642  -3.712  25.554  0.00  0.00    +0.002 A 
ATOM     11  C   UNL     1       3.666  -4.105  24.689  0.00  0.00    +0.024 A 
ATOM     12  S   UNL     1       6.555  -1.352  25.540  0.00  0.00    -0.111 S 
ENDROOT
BRANCH   1  16
ATOM     13  C   UNL     1       8.794   2.973  23.752  0.00  0.00    +0.120 A 
ATOM     14  C   UNL     1       8.980   2.040  24.771  0.00  0.00    +0.046 A 
ATOM     15  C   UNL     1       8.243   0.853  24.780  0.00  0.00    +0.008 A 
ATOM     16  C   UNL     1       7.315   0.583  23.766  0.00  0.00    -0.030 A 
ATOM     17  C   UNL     1       7.191   1.501  22.710  0.00  0.00    +0.008 A 
ATOM     18  C   UNL     1       7.926   2.684  22.704  0.00  0.00    +0.046 A 
BRANCH  13  20
ATOM     19  C   UNL     1       8.595   5.292  23.447  0.00  0.00    +0.277 C 
ATOM     20  O   UNL     1       9.448   4.173  23.670  0.00  0.00    -0.495 OA
ENDBRANCH  13  20
ENDBRANCH   1  16
BRANCH   2  21
ATOM     21  O   UNL     1       8.231  -2.208  22.918  0.00  0.00    -0.451 OA
BRANCH  21  22
ATOM     22  C   UNL     1       9.227  -1.605  22.221  0.00  0.00    +0.305 C 
ATOM     23  O   UNL     1       9.109  -1.060  21.136  0.00  0.00    -0.251 OA
ATOM     24  C   UNL     1      10.529  -1.745  22.949  0.00  0.00    +0.136 C 
ENDBRANCH  21  22
ENDBRANCH   2  21
BRANCH   5  25
ATOM     25  C   UNL     1       6.325  -5.099  23.569  0.00  0.00    +0.129 C 
BRANCH  25  26
ATOM     26  C   UNL     1       7.833  -5.189  23.918  0.00  0.00    +0.103 C 
BRANCH  26  27
ATOM     27  N   UNL     1       8.231  -4.725  25.260  0.00  0.00    -0.307 NA
ATOM     28  C   UNL     1       9.673  -4.940  25.441  0.00  0.00    +0.104 C 
ATOM     29  C   UNL     1       7.499  -5.410  26.327  0.00  0.00    +0.104 C 
ENDBRANCH  26  27
ENDBRANCH  25  26
ENDBRANCH   5  25
TORSDOF 7
ENDMDL
MODEL 6
REMARK VINA RESULT:      -6.1      1.761      2.218
REMARK  Name = 
REMARK  11 active torsions:
REMARK  status: ('A' for Active; 'I' for Inactive)
REMARK    1  A    between atoms: C_1  and  O_2
REMARK    2  A    between atoms: O_2  and  C_3
REMARK    3  A    between atoms: C_6  and  C_9
REMARK    4  A    between atoms: N_18  and  C_19
REMARK    5  A    between atoms: C_19  and  C_20
REMARK    6  A    between atoms: C_20  and  N_21
REMARK    7  A    between atoms: N_21  and  C_22
REMARK    8  A    between atoms: N_21  and  C_23
REMARK    9  A    between atoms: C_26  and  O_28
REMARK   10  A    between atoms: O_28  and  C_29
REMARK   11  A    between atoms: C_29  and  C_30
REMARK                            x       y       z     vdW  Elec       q    Type
REMARK                         _______ _______ _______ _____ _____    ______ ____
ROOT
ATOM      1  C   UNL     1       8.163  -1.791  23.888  0.00  0.00    +0.131 C 
ATOM      2  C   UNL     1       8.340  -2.332  25.327  0.00  0.00    +0.279 C 
ATOM      3  C   UNL     1       8.045  -3.832  25.458  0.00  0.00    +0.262 C 
ATOM      4  O   UNL     1       8.857  -4.630  25.931  0.00  0.00    -0.271 OA
ATOM      5  N   UNL     1       6.734  -4.194  25.142  0.00  0.00    -0.266 N 
ATOM      6  C   UNL     1       6.508  -4.583  23.789  0.00  0.00    +0.050 A 
ATOM      7  C   UNL     1       6.418  -3.589  22.799  0.00  0.00    +0.030 A 
ATOM      8  C   UNL     1       6.274  -3.946  21.455  0.00  0.00    +0.016 A 
ATOM      9  C   UNL     1       6.226  -5.290  21.089  0.00  0.00    +0.001 A 
ATOM     10  C   UNL     1       6.302  -6.278  22.068  0.00  0.00    +0.002 A 
ATOM     11  C   UNL     1       6.437  -5.930  23.415  0.00  0.00    +0.024 A 
ATOM     12  S   UNL     1       6.450  -1.856  23.206  0.00  0.00    -0.111 S 
ENDROOT
BRANCH   1  16
ATOM     13  C   UNL     1       9.633   2.277  23.585  0.00  0.00    +0.120 A 
ATOM     14  C   UNL     1      10.503   1.233  23.893  0.00  0.00    +0.046 A 
ATOM     15  C   UNL     1      10.026  -0.077  23.978  0.00  0.00    +0.008 A 
ATOM     16  C   UNL     1       8.672  -0.359  23.751  0.00  0.00    -0.030 A 
ATOM     17  C   UNL     1       7.823   0.695  23.374  0.00  0.00    +0.008 A 
ATOM     18  C   UNL     1       8.301   2.000  23.290  0.00  0.00    +0.046 A 
BRANCH  13  20
ATOM     19  C   UNL     1      11.405   3.806  23.400  0.00  0.00    +0.277 C 
ATOM     20  O   UNL     1       9.999   3.594  23.503  0.00  0.00    -0.495 OA
ENDBRANCH  13  20
ENDBRANCH   1  16
BRANCH   2  21
ATOM     21  O   UNL     1       7.479  -1.639  26.257  0.00  0.00    -0.451 OA
BRANCH  21  22
ATOM     22  C   UNL     1       8.065  -0.674  27.009  0.00  0.00    +0.305 C 
ATOM     23  O   UNL     1       9.217  -0.683  27.411  0.00  0.00    -0.251 OA
ATOM     24  C   UNL     1       7.075   0.404  27.333  0.00  0.00    +0.136 C 
ENDBRANCH  21  22
ENDBRANCH   2  21
BRANCH   5  25
ATOM     25  C   UNL     1       5.933  -4.806  26.206  0.00  0.00    +0.129 C 
BRANCH  25  26
ATOM     26  C   UNL     1       4.624  -3.991  26.366  0.00  0.00    +0.103 C 
BRANCH  26  27
ATOM     27  N   UNL     1       3.377  -4.650  25.934  0.00  0.00    -0.307 NA
ATOM     28  C   UNL     1       3.579  -6.105  25.914  0.00  0.00    +0.104 C 
ATOM     29  C   UNL     1       2.937  -4.201  24.612  0.00  0.00    +0.104 C 
ENDBRANCH  26  27
ENDBRANCH  25  26
ENDBRANCH   5  25
TORSDOF 7
ENDMDL
MODEL 7
REMARK VINA RESULT:      -6.0      2.726      7.175
REMARK  Name = 
REMARK  11 active torsions:
REMARK  status: ('A' for Active; 'I' for Inactive)
REMARK    1  A    between atoms: C_1  and  O_2
REMARK    2  A    between atoms: O_2  and  C_3
REMARK    3  A    between atoms: C_6  and  C_9
REMARK    4  A    between atoms: N_18  and  C_19
REMARK    5  A    between atoms: C_19  and  C_20
REMARK    6  A    between atoms: C_20  and  N_21
REMARK    7  A    between atoms: N_21  and  C_22
REMARK    8  A    between atoms: N_21  and  C_23
REMARK    9  A    between atoms: C_26  and  O_28
REMARK   10  A    between atoms: O_28  and  C_29
REMARK   11  A    between atoms: C_29  and  C_30
REMARK                            x       y       z     vdW  Elec       q    Type
REMARK                         _______ _______ _______ _____ _____    ______ ____
ROOT
ATOM      1  C   UNL     1       6.542  -2.275  25.333  0.00  0.00    +0.131 C 
ATOM      2  C   UNL     1       7.971  -2.421  25.908  0.00  0.00    +0.279 C 
ATOM      3  C   UNL     1       8.593  -1.089  26.349  0.00  0.00    +0.262 C 
ATOM      4  O   UNL     1       9.034  -0.906  27.486  0.00  0.00    -0.271 OA
ATOM      5  N   UNL     1       8.759  -0.159  25.321  0.00  0.00    -0.266 N 
ATOM      6  C   UNL     1       7.683   0.759  25.138  0.00  0.00    +0.050 A 
ATOM      7  C   UNL     1       6.516   0.323  24.486  0.00  0.00    +0.030 A 
ATOM      8  C   UNL     1       5.418   1.179  24.362  0.00  0.00    +0.016 A 
ATOM      9  C   UNL     1       5.472   2.467  24.890  0.00  0.00    +0.001 A 
ATOM     10  C   UNL     1       6.631   2.909  25.526  0.00  0.00    +0.002 A 
ATOM     11  C   UNL     1       7.737   2.062  25.646  0.00  0.00    +0.024 A 
ATOM     12  S   UNL     1       6.395  -1.304  23.771  0.00  0.00    -0.111 S 
ENDROOT
BRANCH   1  16
ATOM     13  C   UNL     1       4.705  -6.161  24.761  0.00  0.00    +0.120 A 
ATOM     14  C   UNL     1       4.671  -5.539  26.008  0.00  0.00    +0.046 A 
ATOM     15  C   UNL     1       5.254  -4.282  26.184  0.00  0.00    +0.008 A 
ATOM     16  C   UNL     1       5.875  -3.629  25.111  0.00  0.00    -0.030 A 
ATOM     17  C   UNL     1       5.840  -4.238  23.846  0.00  0.00    +0.008 A 
ATOM     18  C   UNL     1       5.258  -5.491  23.674  0.00  0.00    +0.046 A 
BRANCH  13  20
ATOM     19  C   UNL     1       2.887  -7.619  25.044  0.00  0.00    +0.277 C 
ATOM     20  O   UNL     1       4.184  -7.399  24.496  0.00  0.00    -0.495 OA
ENDBRANCH  13  20
ENDBRANCH   1  16
BRANCH   2  21
ATOM     21  O   UNL     1       8.865  -3.018  24.944  0.00  0.00    -0.451 OA
BRANCH  21  22
ATOM     22  C   UNL     1       9.497  -4.152  25.336  0.00  0.00    +0.305 C 
ATOM     23  O   UNL     1      10.388  -4.721  24.724  0.00  0.00    -0.251 OA
ATOM     24  C   UNL     1       8.911  -4.657  26.619  0.00  0.00    +0.136 C 
ENDBRANCH  21  22
ENDBRANCH   2  21
BRANCH   5  25
ATOM     25  C   UNL     1      10.127   0.272  25.022  0.00  0.00    +0.129 C 
BRANCH  25  26
ATOM     26  C   UNL     1      10.455  -0.116  23.557  0.00  0.00    +0.103 C 
BRANCH  26  27
ATOM     27  N   UNL     1       9.590   0.460  22.510  0.00  0.00    -0.307 NA
ATOM     28  C   UNL     1       9.482  -0.488  21.393  0.00  0.00    +0.104 C 
ATOM     29  C   UNL     1      10.093   1.742  22.014  0.00  0.00    +0.104 C 
ENDBRANCH  26  27
ENDBRANCH  25  26
ENDBRANCH   5  25
TORSDOF 7
ENDMDL
MODEL 8
REMARK VINA RESULT:      -6.0      2.622      4.063
REMARK  Name = 
REMARK  11 active torsions:
REMARK  status: ('A' for Active; 'I' for Inactive)
REMARK    1  A    between atoms: C_1  and  O_2
REMARK    2  A    between atoms: O_2  and  C_3
REMARK    3  A    between atoms: C_6  and  C_9
REMARK    4  A    between atoms: N_18  and  C_19
REMARK    5  A    between atoms: C_19  and  C_20
REMARK    6  A    between atoms: C_20  and  N_21
REMARK    7  A    between atoms: N_21  and  C_22
REMARK    8  A    between atoms: N_21  and  C_23
REMARK    9  A    between atoms: C_26  and  O_28
REMARK   10  A    between atoms: O_28  and  C_29
REMARK   11  A    between atoms: C_29  and  C_30
REMARK                            x       y       z     vdW  Elec       q    Type
REMARK                         _______ _______ _______ _____ _____    ______ ____
ROOT
ATOM      1  C   UNL     1       6.464   0.903  24.028  0.00  0.00    +0.131 C 
ATOM      2  C   UNL     1       7.124  -0.157  23.114  0.00  0.00    +0.279 C 
ATOM      3  C   UNL     1       6.508  -1.556  23.254  0.00  0.00    +0.262 C 
ATOM      4  O   UNL     1       6.065  -2.187  22.292  0.00  0.00    -0.271 OA
ATOM      5  N   UNL     1       6.629  -2.116  24.528  0.00  0.00    -0.266 N 
ATOM      6  C   UNL     1       5.535  -1.884  25.413  0.00  0.00    +0.050 A 
ATOM      7  C   UNL     1       5.413  -0.628  26.032  0.00  0.00    +0.030 A 
ATOM      8  C   UNL     1       4.309  -0.349  26.844  0.00  0.00    +0.016 A 
ATOM      9  C   UNL     1       3.321  -1.311  27.036  0.00  0.00    +0.001 A 
ATOM     10  C   UNL     1       3.443  -2.561  26.433  0.00  0.00    +0.002 A 
ATOM     11  C   UNL     1       4.548  -2.852  25.629  0.00  0.00    +0.024 A 
ATOM     12  S   UNL     1       6.655   0.634  25.843  0.00  0.00    -0.111 S 
ENDROOT
BRANCH   1  16
ATOM     13  C   UNL     1       7.878   4.881  23.039  0.00  0.00    +0.120 A 
ATOM     14  C   UNL     1       6.982   4.220  22.200  0.00  0.00    +0.046 A 
ATOM     15  C   UNL     1       6.522   2.943  22.529  0.00  0.00    +0.008 A 
ATOM     16  C   UNL     1       6.948   2.313  23.707  0.00  0.00    -0.030 A 
ATOM     17  C   UNL     1       7.795   3.021  24.575  0.00  0.00    +0.008 A 
ATOM     18  C   UNL     1       8.254   4.294  24.243  0.00  0.00    +0.046 A 
BRANCH  13  20
ATOM     19  C   UNL     1       9.403   6.531  23.720  0.00  0.00    +0.277 C 
ATOM     20  O   UNL     1       8.404   6.120  22.790  0.00  0.00    -0.495 OA
ENDBRANCH  13  20
ENDBRANCH   1  16
BRANCH   2  21
ATOM     21  O   UNL     1       8.537  -0.278  23.386  0.00  0.00    -0.451 OA
BRANCH  21  22
ATOM     22  C   UNL     1       9.347  -0.387  22.303  0.00  0.00    +0.305 C 
ATOM     23  O   UNL     1       9.691  -1.430  21.771  0.00  0.00    -0.251 OA
ATOM     24  C   UNL     1       9.818   0.968  21.868  0.00  0.00    +0.136 C 
ENDBRANCH  21  22
ENDBRANCH   2  21
BRANCH   5  25
ATOM     25  C   UNL     1       7.389  -3.365  24.641  0.00  0.00    +0.129 C 
BRANCH  25  26
ATOM     26  C   UNL     1       8.506  -3.165  25.697  0.00  0.00    +0.103 C 
BRANCH  26  27
ATOM     27  N   UNL     1       8.899  -4.353  26.477  0.00  0.00    -0.307 NA
ATOM     28  C   UNL     1       9.829  -5.170  25.684  0.00  0.00    +0.104 C 
ATOM     29  C   UNL     1       7.749  -5.169  26.870  0.00  0.00    +0.104 C 
ENDBRANCH  26  27
ENDBRANCH  25  26
ENDBRANCH   5  25
TORSDOF 7
ENDMDL
MODEL 9
REMARK VINA RESULT:      -5.9      3.536      7.317
REMARK  Name = 
REMARK  11 active torsions:
REMARK  status: ('A' for Active; 'I' for Inactive)
REMARK    1  A    between atoms: C_1  and  O_2
REMARK    2  A    between atoms: O_2  and  C_3
REMARK    3  A    between atoms: C_6  and  C_9
REMARK    4  A    between atoms: N_18  and  C_19
REMARK    5  A    between atoms: C_19  and  C_20
REMARK    6  A    between atoms: C_20  and  N_21
REMARK    7  A    between atoms: N_21  and  C_22
REMARK    8  A    between atoms: N_21  and  C_23
REMARK    9  A    between atoms: C_26  and  O_28
REMARK   10  A    between atoms: O_28  and  C_29
REMARK   11  A    between atoms: C_29  and  C_30
REMARK                            x       y       z     vdW  Elec       q    Type
REMARK                         _______ _______ _______ _____ _____    ______ ____
ROOT
ATOM      1  C   UNL     1       7.701  -0.251  23.916  0.00  0.00    +0.131 C 
ATOM      2  C   UNL     1       6.387   0.289  24.528  0.00  0.00    +0.279 C 
ATOM      3  C   UNL     1       6.356   1.817  24.664  0.00  0.00    +0.262 C 
ATOM      4  O   UNL     1       5.460   2.510  24.178  0.00  0.00    -0.271 OA
ATOM      5  N   UNL     1       7.338   2.342  25.508  0.00  0.00    -0.266 N 
ATOM      6  C   UNL     1       8.555   2.732  24.874  0.00  0.00    +0.050 A 
ATOM      7  C   UNL     1       9.478   1.740  24.501  0.00  0.00    +0.030 A 
ATOM      8  C   UNL     1      10.643   2.088  23.810  0.00  0.00    +0.016 A 
ATOM      9  C   UNL     1      10.891   3.418  23.482  0.00  0.00    +0.001 A 
ATOM     10  C   UNL     1       9.984   4.407  23.860  0.00  0.00    +0.002 A 
ATOM     11  C   UNL     1       8.822   4.069  24.559  0.00  0.00    +0.024 A 
ATOM     12  S   UNL     1       9.229   0.025  24.913  0.00  0.00    -0.111 S 
ENDROOT
BRANCH   1  16
ATOM     13  C   UNL     1       7.532  -4.481  22.974  0.00  0.00    +0.120 A 
ATOM     14  C   UNL     1       8.385  -4.012  23.972  0.00  0.00    +0.046 A 
ATOM     15  C   UNL     1       8.427  -2.650  24.279  0.00  0.00    +0.008 A 
ATOM     16  C   UNL     1       7.611  -1.740  23.594  0.00  0.00    -0.030 A 
ATOM     17  C   UNL     1       6.708  -2.237  22.640  0.00  0.00    +0.008 A 
ATOM     18  C   UNL     1       6.668  -3.596  22.336  0.00  0.00    +0.046 A 
BRANCH  13  20
ATOM     19  C   UNL     1       6.556  -6.014  21.488  0.00  0.00    +0.277 C 
ATOM     20  O   UNL     1       7.438  -5.790  22.585  0.00  0.00    -0.495 OA
ENDBRANCH  13  20
ENDBRANCH   1  16
BRANCH   2  21
ATOM     21  O   UNL     1       6.152  -0.267  25.840  0.00  0.00    -0.451 OA
BRANCH  21  22
ATOM     22  C   UNL     1       4.895  -0.717  26.083  0.00  0.00    +0.305 C 
ATOM     23  O   UNL     1       3.945  -0.030  26.423  0.00  0.00    -0.251 OA
ATOM     24  C   UNL     1       4.837  -2.206  25.928  0.00  0.00    +0.136 C 
ENDBRANCH  21  22
ENDBRANCH   2  21
BRANCH   5  25
ATOM     25  C   UNL     1       6.881   3.074  26.692  0.00  0.00    +0.129 C 
BRANCH  25  26
ATOM     26  C   UNL     1       7.043   2.155  27.930  0.00  0.00    +0.103 C 
BRANCH  26  27
ATOM     27  N   UNL     1       7.381   2.815  29.205  0.00  0.00    -0.307 NA
ATOM     28  C   UNL     1       7.653   1.793  30.225  0.00  0.00    +0.104 C 
ATOM     29  C   UNL     1       6.313   3.700  29.675  0.00  0.00    +0.104 C 
ENDBRANCH  26  27
ENDBRANCH  25  26
ENDBRANCH   5  25
TORSDOF 7
ENDMDL
