MODEL 1
REMARK VINA RESULT:      -7.5      0.000      0.000
REMARK  Name = 
REMARK  14 active torsions:
REMARK  status: ('A' for Active; 'I' for Inactive)
REMARK    1  A    between atoms: C_5  and  C_6
REMARK    2  A    between atoms: C_6  and  S_7
REMARK    3  A    between atoms: S_7  and  C_8
REMARK    4  A    between atoms: N_12  and  C_13
REMARK    5  A    between atoms: CA_14  and  C_43
REMARK    6  A    between atoms: CA_18  and  N_20
REMARK    7  A    between atoms: C_21  and  CA_23
REMARK    8  A    between atoms: CA_23  and  N_25
REMARK    9  A    between atoms: CA_23  and  C_36
REMARK   10  A    between atoms: C_26  and  C_28
REMARK   11  A    between atoms: C_29  and  O_30
REMARK   12  A    between atoms: C_32  and  C_33
REMARK   13  A    between atoms: C_39  and  O_40
REMARK   14  A    between atoms: C_43  and  O_44
REMARK                            x       y       z     vdW  Elec       q    Type
REMARK                         _______ _______ _______ _____ _____    ______ ____
ROOT
ATOM      1  N   UNL     1       7.438  -3.325  26.101  0.00  0.00    -0.300 N 
ATOM      2  H   UNL     1       6.797  -2.915  25.427  0.00  0.00    +0.150 HD
ATOM      3  C   UNL     1       8.660  -3.749  25.607  0.00  0.00    +0.239 C 
ATOM      4  O   UNL     1       9.407  -4.474  26.258  0.00  0.00    -0.273 OA
ENDROOT
BRANCH   1   6
ATOM      5  C   UNL     1       5.351  -3.390  27.602  0.00  0.00    +0.169 C 
ATOM      6  CA  UNL     1       6.822  -3.869  27.347  0.00  0.00    +0.191 C 
ATOM      7  C   UNL     1       6.148  -5.289  27.210  0.00  0.00    +0.244 C 
ATOM      8  O   UNL     1       6.453  -6.447  27.045  0.00  0.00    -0.273 OA
ATOM      9  N   UNL     1       4.918  -4.727  27.240  0.00  0.00    -0.249 N 
ATOM     10  CA  UNL     1       3.621  -5.087  26.963  0.00  0.00    +0.123 C 
ATOM     11  C   UNL     1       2.675  -4.117  26.775  0.00  0.00    -0.021 C 
ATOM     12  C   UNL     1       2.989  -2.626  26.728  0.00  0.00    +0.104 C 
ATOM     13  S   UNL     1       4.714  -2.228  26.362  0.00  0.00    -0.131 S 
BRANCH  10  14
ATOM     14  C   UNL     1       3.253  -6.551  26.797  0.00  0.00    +0.351 C 
ATOM     15  OXT UNL     1       2.552  -7.169  27.585  0.00  0.00    -0.244 OA
BRANCH  14  16
ATOM     16  O   UNL     1       3.807  -7.192  25.751  0.00  0.00    -0.476 OA
ATOM     17  H   UNL     1       4.728  -6.935  25.525  0.00  0.00    +0.295 HD
ENDBRANCH  14  16
ENDBRANCH  10  14
BRANCH  11  18
ATOM     18  C   UNL     1       1.201  -4.350  26.443  0.00  0.00    +0.111 C 
BRANCH  18  19
ATOM     19  S   UNL     1       0.727  -4.107  24.713  0.00  0.00    -0.080 S 
BRANCH  19  20
ATOM     20  C   UNL     1       1.732  -5.188  23.837  0.00  0.00    +0.209 A 
ATOM     21  N   UNL     1       1.482  -6.529  23.736  0.00  0.00    -0.223 N 
ATOM     22  C   UNL     1       0.443  -7.317  24.336  0.00  0.00    +0.177 C 
ATOM     23  N   UNL     1       2.409  -7.094  22.944  0.00  0.00    -0.043 NA
ATOM     24  N   UNL     1       3.216  -6.102  22.588  0.00  0.00    -0.022 NA
ATOM     25  N   UNL     1       2.810  -4.911  23.142  0.00  0.00    -0.102 NA
ENDBRANCH  19  20
ENDBRANCH  18  19
ENDBRANCH  11  18
ENDBRANCH   1   6
BRANCH   3  26
ATOM     26  CA  UNL     1       8.893  -3.375  24.111  0.00  0.00    +0.190 C 
BRANCH  26  27
ATOM     27  C   UNL     1       7.943  -4.151  23.192  0.00  0.00    -0.018 A 
ATOM     28  C   UNL     1       7.008  -3.474  22.383  0.00  0.00    +0.009 A 
ATOM     29  C   UNL     1       6.171  -4.170  21.510  0.00  0.00    +0.046 A 
ATOM     30  C   UNL     1       6.231  -5.553  21.457  0.00  0.00    +0.117 A 
ATOM     31  C   UNL     1       7.099  -6.256  22.285  0.00  0.00    +0.046 A 
ATOM     32  C   UNL     1       7.945  -5.557  23.154  0.00  0.00    +0.009 A 
BRANCH  30  33
ATOM     33  O   UNL     1       5.408  -6.190  20.577  0.00  0.00    -0.507 OA
ATOM     34  H   UNL     1       5.191  -7.069  20.929  0.00  0.00    +0.292 HD
ENDBRANCH  30  33
ENDBRANCH  26  27
BRANCH  26  35
ATOM     35  N   UNL     1       8.687  -1.919  23.988  0.00  0.00    -0.296 N 
ATOM     36  H   UNL     1       7.833  -1.531  24.361  0.00  0.00    +0.150 HD
ATOM     37  C   UNL     1       9.552  -1.120  23.275  0.00  0.00    +0.250 C 
ATOM     38  O   UNL     1      10.505  -1.556  22.632  0.00  0.00    -0.270 OA
BRANCH  37  39
ATOM     39  C   UNL     1       9.292   0.338  23.239  0.00  0.00    +0.096 A 
ATOM     40  C   UNL     1       8.826   0.979  22.103  0.00  0.00    +0.127 A 
ATOM     41  N   UNL     1       8.537   2.305  22.038  0.00  0.00    -0.259 NA
ATOM     42  C   UNL     1       8.710   3.043  23.161  0.00  0.00    +0.042 A 
ATOM     43  C   UNL     1       8.277   4.478  23.102  0.00  0.00    +0.066 C 
ATOM     44  C   UNL     1       9.184   2.491  24.345  0.00  0.00    +0.069 A 
ATOM     45  C   UNL     1       9.453   1.127  24.381  0.00  0.00    +0.132 A 
BRANCH  45  46
ATOM     46  O   UNL     1       9.853   0.619  25.590  0.00  0.00    -0.506 OA
ATOM     47  H   UNL     1       9.207  -0.075  25.856  0.00  0.00    +0.292 HD
ENDBRANCH  45  46
ENDBRANCH  37  39
ENDBRANCH  26  35
ENDBRANCH   3  26
TORSDOF 12
ENDMDL
MODEL 2
REMARK VINA RESULT:      -7.4      3.414      7.145
REMARK  Name = 
REMARK  14 active torsions:
REMARK  status: ('A' for Active; 'I' for Inactive)
REMARK    1  A    between atoms: C_5  and  C_6
REMARK    2  A    between atoms: C_6  and  S_7
REMARK    3  A    between atoms: S_7  and  C_8
REMARK    4  A    between atoms: N_12  and  C_13
REMARK    5  A    between atoms: CA_14  and  C_43
REMARK    6  A    between atoms: CA_18  and  N_20
REMARK    7  A    between atoms: C_21  and  CA_23
REMARK    8  A    between atoms: CA_23  and  N_25
REMARK    9  A    between atoms: CA_23  and  C_36
REMARK   10  A    between atoms: C_26  and  C_28
REMARK   11  A    between atoms: C_29  and  O_30
REMARK   12  A    between atoms: C_32  and  C_33
REMARK   13  A    between atoms: C_39  and  O_40
REMARK   14  A    between atoms: C_43  and  O_44
REMARK                            x       y       z     vdW  Elec       q    Type
REMARK                         _______ _______ _______ _____ _____    ______ ____
ROOT
ATOM      1  N   UNL     1       9.629   0.789  24.629  0.00  0.00    -0.300 N 
ATOM      2  H   UNL     1       8.856   0.693  25.282  0.00  0.00    +0.150 HD
ATOM      3  C   UNL     1       9.891   2.070  24.170  0.00  0.00    +0.239 C 
ATOM      4  O   UNL     1      10.623   2.277  23.207  0.00  0.00    -0.273 OA
ENDROOT
BRANCH   1   6
ATOM      5  C   UNL     1       9.661  -1.782  24.622  0.00  0.00    +0.169 C 
ATOM      6  CA  UNL     1      10.019  -0.445  23.886  0.00  0.00    +0.191 C 
ATOM      7  C   UNL     1       8.973  -0.958  22.822  0.00  0.00    +0.244 C 
ATOM      8  O   UNL     1       8.518  -0.646  21.746  0.00  0.00    -0.273 OA
ATOM      9  N   UNL     1       8.604  -1.966  23.644  0.00  0.00    -0.249 N 
ATOM     10  CA  UNL     1       7.583  -2.879  23.750  0.00  0.00    +0.123 C 
ATOM     11  C   UNL     1       7.367  -3.518  24.940  0.00  0.00    -0.021 C 
ATOM     12  C   UNL     1       8.121  -3.192  26.225  0.00  0.00    +0.104 C 
ATOM     13  S   UNL     1       8.895  -1.559  26.253  0.00  0.00    -0.131 S 
BRANCH  10  14
ATOM     14  C   UNL     1       6.654  -3.126  22.575  0.00  0.00    +0.351 C 
ATOM     15  OXT UNL     1       6.751  -4.084  21.822  0.00  0.00    -0.244 OA
BRANCH  14  16
ATOM     16  O   UNL     1       5.728  -2.178  22.334  0.00  0.00    -0.476 OA
ATOM     17  H   UNL     1       5.672  -1.452  22.993  0.00  0.00    +0.295 HD
ENDBRANCH  14  16
ENDBRANCH  10  14
BRANCH  11  18
ATOM     18  C   UNL     1       6.267  -4.540  25.226  0.00  0.00    +0.111 C 
BRANCH  18  19
ATOM     19  S   UNL     1       5.304  -4.272  26.735  0.00  0.00    -0.080 S 
BRANCH  19  20
ATOM     20  C   UNL     1       5.708  -5.600  27.744  0.00  0.00    +0.209 A 
ATOM     21  N   UNL     1       4.805  -6.555  28.122  0.00  0.00    -0.223 N 
ATOM     22  C   UNL     1       3.399  -6.649  27.850  0.00  0.00    +0.177 C 
ATOM     23  N   UNL     1       5.431  -7.488  28.860  0.00  0.00    -0.043 NA
ATOM     24  N   UNL     1       6.693  -7.085  28.936  0.00  0.00    -0.022 NA
ATOM     25  N   UNL     1       6.878  -5.908  28.251  0.00  0.00    -0.102 NA
ENDBRANCH  19  20
ENDBRANCH  18  19
ENDBRANCH  11  18
ENDBRANCH   1   6
BRANCH   3  26
ATOM     26  CA  UNL     1       9.033   3.170  24.868  0.00  0.00    +0.190 C 
BRANCH  26  27
ATOM     27  C   UNL     1       8.486   4.175  23.848  0.00  0.00    -0.018 A 
ATOM     28  C   UNL     1       7.473   3.804  22.942  0.00  0.00    +0.009 A 
ATOM     29  C   UNL     1       6.937   4.726  22.041  0.00  0.00    +0.046 A 
ATOM     30  C   UNL     1       7.429   6.021  22.009  0.00  0.00    +0.117 A 
ATOM     31  C   UNL     1       8.469   6.403  22.848  0.00  0.00    +0.046 A 
ATOM     32  C   UNL     1       9.000   5.481  23.757  0.00  0.00    +0.009 A 
BRANCH  30  33
ATOM     33  O   UNL     1       6.864   6.892  21.126  0.00  0.00    -0.507 OA
ATOM     34  H   UNL     1       5.898   6.822  21.189  0.00  0.00    +0.292 HD
ENDBRANCH  30  33
ENDBRANCH  26  27
BRANCH  26  35
ATOM     35  N   UNL     1       7.940   2.484  25.583  0.00  0.00    -0.296 N 
ATOM     36  H   UNL     1       7.602   1.612  25.202  0.00  0.00    +0.150 HD
ATOM     37  C   UNL     1       7.299   3.060  26.656  0.00  0.00    +0.250 C 
ATOM     38  O   UNL     1       7.529   4.202  27.051  0.00  0.00    -0.270 OA
BRANCH  37  39
ATOM     39  C   UNL     1       6.241   2.282  27.342  0.00  0.00    +0.096 A 
ATOM     40  C   UNL     1       4.895   2.457  27.063  0.00  0.00    +0.127 A 
ATOM     41  N   UNL     1       3.896   1.739  27.638  0.00  0.00    -0.259 NA
ATOM     42  C   UNL     1       4.243   0.785  28.537  0.00  0.00    +0.042 A 
ATOM     43  C   UNL     1       3.137  -0.074  29.073  0.00  0.00    +0.066 C 
ATOM     44  C   UNL     1       5.565   0.545  28.889  0.00  0.00    +0.069 A 
ATOM     45  C   UNL     1       6.564   1.287  28.268  0.00  0.00    +0.132 A 
BRANCH  45  46
ATOM     46  O   UNL     1       7.855   0.965  28.600  0.00  0.00    -0.506 OA
ATOM     47  H   UNL     1       8.255   1.744  29.051  0.00  0.00    +0.292 HD
ENDBRANCH  45  46
ENDBRANCH  37  39
ENDBRANCH  26  35
ENDBRANCH   3  26
TORSDOF 12
ENDMDL
MODEL 3
REMARK VINA RESULT:      -7.3      1.726      2.095
REMARK  Name = 
REMARK  14 active torsions:
REMARK  status: ('A' for Active; 'I' for Inactive)
REMARK    1  A    between atoms: C_5  and  C_6
REMARK    2  A    between atoms: C_6  and  S_7
REMARK    3  A    between atoms: S_7  and  C_8
REMARK    4  A    between atoms: N_12  and  C_13
REMARK    5  A    between atoms: CA_14  and  C_43
REMARK    6  A    between atoms: CA_18  and  N_20
REMARK    7  A    between atoms: C_21  and  CA_23
REMARK    8  A    between atoms: CA_23  and  N_25
REMARK    9  A    between atoms: CA_23  and  C_36
REMARK   10  A    between atoms: C_26  and  C_28
REMARK   11  A    between atoms: C_29  and  O_30
REMARK   12  A    between atoms: C_32  and  C_33
REMARK   13  A    between atoms: C_39  and  O_40
REMARK   14  A    between atoms: C_43  and  O_44
REMARK                            x       y       z     vdW  Elec       q    Type
REMARK                         _______ _______ _______ _____ _____    ______ ____
ROOT
ATOM      1  N   UNL     1       7.494  -2.543  25.402  0.00  0.00    -0.300 N 
ATOM      2  H   UNL     1       6.603  -2.513  24.914  0.00  0.00    +0.150 HD
ATOM      3  C   UNL     1       8.629  -2.549  24.609  0.00  0.00    +0.239 C 
ATOM      4  O   UNL     1       9.735  -2.830  25.060  0.00  0.00    -0.273 OA
ENDROOT
BRANCH   1   6
ATOM      5  C   UNL     1       6.051  -3.029  27.474  0.00  0.00    +0.169 C 
ATOM      6  CA  UNL     1       7.463  -3.078  26.795  0.00  0.00    +0.191 C 
ATOM      7  C   UNL     1       7.273  -4.639  26.921  0.00  0.00    +0.244 C 
ATOM      8  O   UNL     1       7.877  -5.665  26.710  0.00  0.00    -0.273 OA
ATOM      9  N   UNL     1       5.989  -4.469  27.309  0.00  0.00    -0.249 N 
ATOM     10  CA  UNL     1       4.855  -5.231  27.457  0.00  0.00    +0.123 C 
ATOM     11  C   UNL     1       3.634  -4.620  27.536  0.00  0.00    -0.021 C 
ATOM     12  C   UNL     1       3.424  -3.121  27.344  0.00  0.00    +0.104 C 
ATOM     13  S   UNL     1       4.751  -2.281  26.451  0.00  0.00    -0.131 S 
BRANCH  10  14
ATOM     14  C   UNL     1       4.949  -6.747  27.463  0.00  0.00    +0.351 C 
ATOM     15  OXT UNL     1       5.296  -7.402  28.434  0.00  0.00    -0.244 OA
BRANCH  14  16
ATOM     16  O   UNL     1       4.698  -7.366  26.294  0.00  0.00    -0.476 OA
ATOM     17  H   UNL     1       5.479  -7.721  25.817  0.00  0.00    +0.295 HD
ENDBRANCH  14  16
ENDBRANCH  10  14
BRANCH  11  18
ATOM     18  C   UNL     1       2.284  -5.321  27.682  0.00  0.00    +0.111 C 
BRANCH  18  19
ATOM     19  S   UNL     1       1.259  -5.391  26.192  0.00  0.00    -0.080 S 
BRANCH  19  20
ATOM     20  C   UNL     1       1.816  -6.779  25.351  0.00  0.00    +0.209 A 
ATOM     21  N   UNL     1       2.402  -6.722  24.117  0.00  0.00    -0.223 N 
ATOM     22  C   UNL     1       2.623  -5.595  23.256  0.00  0.00    +0.177 C 
ATOM     23  N   UNL     1       2.780  -7.958  23.749  0.00  0.00    -0.043 NA
ATOM     24  N   UNL     1       2.408  -8.749  24.747  0.00  0.00    -0.022 NA
ATOM     25  N   UNL     1       1.801  -8.029  25.749  0.00  0.00    -0.102 NA
ENDBRANCH  19  20
ENDBRANCH  18  19
ENDBRANCH  11  18
ENDBRANCH   1   6
BRANCH   3  26
ATOM     26  CA  UNL     1       8.331  -2.351  23.090  0.00  0.00    +0.190 C 
BRANCH  26  27
ATOM     27  C   UNL     1       7.488  -3.505  22.537  0.00  0.00    -0.018 A 
ATOM     28  C   UNL     1       6.351  -3.253  21.745  0.00  0.00    +0.009 A 
ATOM     29  C   UNL     1       5.604  -4.299  21.199  0.00  0.00    +0.046 A 
ATOM     30  C   UNL     1       5.962  -5.610  21.466  0.00  0.00    +0.117 A 
ATOM     31  C   UNL     1       7.042  -5.895  22.293  0.00  0.00    +0.046 A 
ATOM     32  C   UNL     1       7.796  -4.846  22.832  0.00  0.00    +0.009 A 
BRANCH  30  33
ATOM     33  O   UNL     1       5.216  -6.599  20.898  0.00  0.00    -0.507 OA
ATOM     34  H   UNL     1       5.024  -6.360  19.977  0.00  0.00    +0.292 HD
ENDBRANCH  30  33
ENDBRANCH  26  27
BRANCH  26  35
ATOM     35  N   UNL     1       7.630  -1.060  22.947  0.00  0.00    -0.296 N 
ATOM     36  H   UNL     1       6.653  -1.080  22.695  0.00  0.00    +0.150 HD
ATOM     37  C   UNL     1       8.298   0.141  23.020  0.00  0.00    +0.250 C 
ATOM     38  O   UNL     1       9.519   0.233  23.131  0.00  0.00    -0.270 OA
BRANCH  37  39
ATOM     39  C   UNL     1       7.509   1.390  22.909  0.00  0.00    +0.096 A 
ATOM     40  C   UNL     1       6.309   1.569  23.577  0.00  0.00    +0.127 A 
ATOM     41  N   UNL     1       5.574   2.711  23.536  0.00  0.00    -0.259 NA
ATOM     42  C   UNL     1       6.054   3.742  22.798  0.00  0.00    +0.042 A 
ATOM     43  C   UNL     1       5.289   5.031  22.858  0.00  0.00    +0.066 C 
ATOM     44  C   UNL     1       7.242   3.652  22.084  0.00  0.00    +0.069 A 
ATOM     45  C   UNL     1       7.977   2.475  22.163  0.00  0.00    +0.132 A 
BRANCH  45  46
ATOM     46  O   UNL     1       9.175   2.462  21.496  0.00  0.00    -0.506 OA
ATOM     47  H   UNL     1       9.856   2.089  22.102  0.00  0.00    +0.292 HD
ENDBRANCH  45  46
ENDBRANCH  37  39
ENDBRANCH  26  35
ENDBRANCH   3  26
TORSDOF 12
ENDMDL
MODEL 4
REMARK VINA RESULT:      -7.1      3.227      6.676
REMARK  Name = 
REMARK  14 active torsions:
REMARK  status: ('A' for Active; 'I' for Inactive)
REMARK    1  A    between atoms: C_5  and  C_6
REMARK    2  A    between atoms: C_6  and  S_7
REMARK    3  A    between atoms: S_7  and  C_8
REMARK    4  A    between atoms: N_12  and  C_13
REMARK    5  A    between atoms: CA_14  and  C_43
REMARK    6  A    between atoms: CA_18  and  N_20
REMARK    7  A    between atoms: C_21  and  CA_23
REMARK    8  A    between atoms: CA_23  and  N_25
REMARK    9  A    between atoms: CA_23  and  C_36
REMARK   10  A    between atoms: C_26  and  C_28
REMARK   11  A    between atoms: C_29  and  O_30
REMARK   12  A    between atoms: C_32  and  C_33
REMARK   13  A    between atoms: C_39  and  O_40
REMARK   14  A    between atoms: C_43  and  O_44
REMARK                            x       y       z     vdW  Elec       q    Type
REMARK                         _______ _______ _______ _____ _____    ______ ____
ROOT
ATOM      1  N   UNL     1       8.954  -1.095  24.656  0.00  0.00    -0.300 N 
ATOM      2  H   UNL     1       8.326  -1.188  25.450  0.00  0.00    +0.150 HD
ATOM      3  C   UNL     1       9.048   0.167  24.092  0.00  0.00    +0.239 C 
ATOM      4  O   UNL     1       9.569   0.351  22.996  0.00  0.00    -0.273 OA
ENDROOT
BRANCH   1   6
ATOM      5  C   UNL     1       8.941  -3.666  24.704  0.00  0.00    +0.169 C 
ATOM      6  CA  UNL     1       9.268  -2.351  23.914  0.00  0.00    +0.191 C 
ATOM      7  C   UNL     1       8.140  -2.866  22.939  0.00  0.00    +0.244 C 
ATOM      8  O   UNL     1       7.614  -2.568  21.892  0.00  0.00    -0.273 OA
ATOM      9  N   UNL     1       7.814  -3.850  23.808  0.00  0.00    -0.249 N 
ATOM     10  CA  UNL     1       6.787  -4.741  24.007  0.00  0.00    +0.123 C 
ATOM     11  C   UNL     1       6.647  -5.351  25.223  0.00  0.00    -0.021 C 
ATOM     12  C   UNL     1       7.498  -5.013  26.443  0.00  0.00    +0.104 C 
ATOM     13  S   UNL     1       8.299  -3.395  26.380  0.00  0.00    -0.131 S 
BRANCH  10  14
ATOM     14  C   UNL     1       5.772  -4.996  22.907  0.00  0.00    +0.351 C 
ATOM     15  OXT UNL     1       5.780  -5.985  22.190  0.00  0.00    -0.244 OA
BRANCH  14  16
ATOM     16  O   UNL     1       4.869  -4.020  22.689  0.00  0.00    -0.476 OA
ATOM     17  H   UNL     1       3.925  -4.289  22.723  0.00  0.00    +0.295 HD
ENDBRANCH  14  16
ENDBRANCH  10  14
BRANCH  11  18
ATOM     18  C   UNL     1       5.553  -6.347  25.610  0.00  0.00    +0.111 C 
BRANCH  18  19
ATOM     19  S   UNL     1       4.440  -5.829  26.939  0.00  0.00    -0.080 S 
BRANCH  19  20
ATOM     20  C   UNL     1       5.276  -6.234  28.382  0.00  0.00    +0.209 A 
ATOM     21  N   UNL     1       5.236  -5.465  29.512  0.00  0.00    -0.223 N 
ATOM     22  C   UNL     1       4.596  -4.202  29.742  0.00  0.00    +0.177 C 
ATOM     23  N   UNL     1       5.940  -6.070  30.485  0.00  0.00    -0.043 NA
ATOM     24  N   UNL     1       6.410  -7.184  29.935  0.00  0.00    -0.022 NA
ATOM     25  N   UNL     1       6.009  -7.295  28.624  0.00  0.00    -0.102 NA
ENDBRANCH  19  20
ENDBRANCH  18  19
ENDBRANCH  11  18
ENDBRANCH   1   6
BRANCH   3  26
ATOM     26  CA  UNL     1       8.275   1.265  24.886  0.00  0.00    +0.190 C 
BRANCH  26  27
ATOM     27  C   UNL     1       8.002   2.493  24.011  0.00  0.00    -0.018 A 
ATOM     28  C   UNL     1       8.758   3.672  24.165  0.00  0.00    +0.009 A 
ATOM     29  C   UNL     1       8.546   4.779  23.341  0.00  0.00    +0.046 A 
ATOM     30  C   UNL     1       7.553   4.736  22.376  0.00  0.00    +0.117 A 
ATOM     31  C   UNL     1       6.748   3.611  22.238  0.00  0.00    +0.046 A 
ATOM     32  C   UNL     1       6.967   2.498  23.058  0.00  0.00    +0.009 A 
BRANCH  30  33
ATOM     33  O   UNL     1       7.393   5.832  21.583  0.00  0.00    -0.507 OA
ATOM     34  H   UNL     1       8.011   6.523  21.871  0.00  0.00    +0.292 HD
ENDBRANCH  30  33
ENDBRANCH  26  27
BRANCH  26  35
ATOM     35  N   UNL     1       7.017   0.656  25.361  0.00  0.00    -0.296 N 
ATOM     36  H   UNL     1       6.195   0.762  24.784  0.00  0.00    +0.150 HD
ATOM     37  C   UNL     1       6.914   0.075  26.605  0.00  0.00    +0.250 C 
ATOM     38  O   UNL     1       7.821   0.084  27.435  0.00  0.00    -0.270 OA
BRANCH  37  39
ATOM     39  C   UNL     1       5.626  -0.551  26.983  0.00  0.00    +0.096 A 
ATOM     40  C   UNL     1       5.004  -0.290  28.193  0.00  0.00    +0.127 A 
ATOM     41  N   UNL     1       3.805  -0.810  28.564  0.00  0.00    -0.259 NA
ATOM     42  C   UNL     1       3.176  -1.629  27.686  0.00  0.00    +0.042 A 
ATOM     43  C   UNL     1       1.803  -2.100  28.064  0.00  0.00    +0.066 C 
ATOM     44  C   UNL     1       3.726  -1.958  26.453  0.00  0.00    +0.069 A 
ATOM     45  C   UNL     1       4.947  -1.394  26.099  0.00  0.00    +0.132 A 
BRANCH  45  46
ATOM     46  O   UNL     1       5.414  -1.695  24.846  0.00  0.00    -0.506 OA
ATOM     47  H   UNL     1       5.055  -1.025  24.219  0.00  0.00    +0.292 HD
ENDBRANCH  45  46
ENDBRANCH  37  39
ENDBRANCH  26  35
ENDBRANCH   3  26
TORSDOF 12
ENDMDL
MODEL 5
REMARK VINA RESULT:      -7.0      2.550      6.040
REMARK  Name = 
REMARK  14 active torsions:
REMARK  status: ('A' for Active; 'I' for Inactive)
REMARK    1  A    between atoms: C_5  and  C_6
REMARK    2  A    between atoms: C_6  and  S_7
REMARK    3  A    between atoms: S_7  and  C_8
REMARK    4  A    between atoms: N_12  and  C_13
REMARK    5  A    between atoms: CA_14  and  C_43
REMARK    6  A    between atoms: CA_18  and  N_20
REMARK    7  A    between atoms: C_21  and  CA_23
REMARK    8  A    between atoms: CA_23  and  N_25
REMARK    9  A    between atoms: CA_23  and  C_36
REMARK   10  A    between atoms: C_26  and  C_28
REMARK   11  A    between atoms: C_29  and  O_30
REMARK   12  A    between atoms: C_32  and  C_33
REMARK   13  A    between atoms: C_39  and  O_40
REMARK   14  A    between atoms: C_43  and  O_44
REMARK                            x       y       z     vdW  Elec       q    Type
REMARK                         _______ _______ _______ _____ _____    ______ ____
ROOT
ATOM      1  N   UNL     1       8.887  -1.278  24.871  0.00  0.00    -0.300 N 
ATOM      2  H   UNL     1       8.095  -1.349  25.504  0.00  0.00    +0.150 HD
ATOM      3  C   UNL     1       9.218  -0.004  24.441  0.00  0.00    +0.239 C 
ATOM      4  O   UNL     1       9.982   0.185  23.499  0.00  0.00    -0.273 OA
ENDROOT
BRANCH   1   6
ATOM      5  C   UNL     1       8.769  -3.846  24.803  0.00  0.00    +0.169 C 
ATOM      6  CA  UNL     1       9.240  -2.517  24.118  0.00  0.00    +0.191 C 
ATOM      7  C   UNL     1       8.218  -2.943  22.993  0.00  0.00    +0.244 C 
ATOM      8  O   UNL     1       7.835  -2.581  21.905  0.00  0.00    -0.273 OA
ATOM      9  N   UNL     1       7.752  -3.945  23.773  0.00  0.00    -0.249 N 
ATOM     10  CA  UNL     1       6.675  -4.797  23.808  0.00  0.00    +0.123 C 
ATOM     11  C   UNL     1       6.365  -5.448  24.971  0.00  0.00    -0.021 C 
ATOM     12  C   UNL     1       7.074  -5.196  26.297  0.00  0.00    +0.104 C 
ATOM     13  S   UNL     1       7.940  -3.613  26.402  0.00  0.00    -0.131 S 
BRANCH  10  14
ATOM     14  C   UNL     1       5.791  -4.963  22.585  0.00  0.00    +0.351 C 
ATOM     15  OXT UNL     1       5.879  -5.899  21.804  0.00  0.00    -0.244 OA
BRANCH  14  16
ATOM     16  O   UNL     1       4.920  -3.966  22.336  0.00  0.00    -0.476 OA
ATOM     17  H   UNL     1       4.066  -4.008  22.820  0.00  0.00    +0.295 HD
ENDBRANCH  14  16
ENDBRANCH  10  14
BRANCH  11  18
ATOM     18  C   UNL     1       5.194  -6.409  25.179  0.00  0.00    +0.111 C 
BRANCH  18  19
ATOM     19  S   UNL     1       3.593  -5.646  25.538  0.00  0.00    -0.080 S 
BRANCH  19  20
ATOM     20  C   UNL     1       2.621  -6.026  24.175  0.00  0.00    +0.209 A 
ATOM     21  N   UNL     1       2.016  -7.240  24.002  0.00  0.00    -0.223 N 
ATOM     22  C   UNL     1       2.083  -8.424  24.811  0.00  0.00    +0.177 C 
ATOM     23  N   UNL     1       1.283  -7.213  22.876  0.00  0.00    -0.043 NA
ATOM     24  N   UNL     1       1.463  -5.998  22.371  0.00  0.00    -0.022 NA
ATOM     25  N   UNL     1       2.299  -5.252  23.167  0.00  0.00    -0.102 NA
ENDBRANCH  19  20
ENDBRANCH  18  19
ENDBRANCH  11  18
ENDBRANCH   1   6
BRANCH   3  26
ATOM     26  CA  UNL     1       8.394   1.124  25.136  0.00  0.00    +0.190 C 
BRANCH  26  27
ATOM     27  C   UNL     1       8.198   2.323  24.202  0.00  0.00    -0.018 A 
ATOM     28  C   UNL     1       7.295   2.257  23.123  0.00  0.00    +0.009 A 
ATOM     29  C   UNL     1       7.078   3.361  22.295  0.00  0.00    +0.046 A 
ATOM     30  C   UNL     1       7.784   4.532  22.513  0.00  0.00    +0.117 A 
ATOM     31  C   UNL     1       8.727   4.612  23.532  0.00  0.00    +0.046 A 
ATOM     32  C   UNL     1       8.938   3.508  24.367  0.00  0.00    +0.009 A 
BRANCH  30  33
ATOM     33  O   UNL     1       7.527   5.590  21.693  0.00  0.00    -0.507 OA
ATOM     34  H   UNL     1       7.457   5.270  20.779  0.00  0.00    +0.292 HD
ENDBRANCH  30  33
ENDBRANCH  26  27
BRANCH  26  35
ATOM     35  N   UNL     1       7.099   0.537  25.532  0.00  0.00    -0.296 N 
ATOM     36  H   UNL     1       6.331   0.608  24.880  0.00  0.00    +0.150 HD
ATOM     37  C   UNL     1       6.886   0.026  26.792  0.00  0.00    +0.250 C 
ATOM     38  O   UNL     1       7.718   0.084  27.697  0.00  0.00    -0.270 OA
BRANCH  37  39
ATOM     39  C   UNL     1       5.570  -0.584  27.090  0.00  0.00    +0.096 A 
ATOM     40  C   UNL     1       4.905  -0.362  28.286  0.00  0.00    +0.127 A 
ATOM     41  N   UNL     1       3.680  -0.866  28.584  0.00  0.00    -0.259 NA
ATOM     42  C   UNL     1       3.069  -1.630  27.646  0.00  0.00    +0.042 A 
ATOM     43  C   UNL     1       1.670  -2.082  27.948  0.00  0.00    +0.066 C 
ATOM     44  C   UNL     1       3.661  -1.918  26.423  0.00  0.00    +0.069 A 
ATOM     45  C   UNL     1       4.908  -1.369  26.143  0.00  0.00    +0.132 A 
BRANCH  45  46
ATOM     46  O   UNL     1       5.418  -1.627  24.897  0.00  0.00    -0.506 OA
ATOM     47  H   UNL     1       5.701  -0.770  24.502  0.00  0.00    +0.292 HD
ENDBRANCH  45  46
ENDBRANCH  37  39
ENDBRANCH  26  35
ENDBRANCH   3  26
TORSDOF 12
ENDMDL
MODEL 6
REMARK VINA RESULT:      -6.9      2.971      6.371
REMARK  Name = 
REMARK  14 active torsions:
REMARK  status: ('A' for Active; 'I' for Inactive)
REMARK    1  A    between atoms: C_5  and  C_6
REMARK    2  A    between atoms: C_6  and  S_7
REMARK    3  A    between atoms: S_7  and  C_8
REMARK    4  A    between atoms: N_12  and  C_13
REMARK    5  A    between atoms: CA_14  and  C_43
REMARK    6  A    between atoms: CA_18  and  N_20
REMARK    7  A    between atoms: C_21  and  CA_23
REMARK    8  A    between atoms: CA_23  and  N_25
REMARK    9  A    between atoms: CA_23  and  C_36
REMARK   10  A    between atoms: C_26  and  C_28
REMARK   11  A    between atoms: C_29  and  O_30
REMARK   12  A    between atoms: C_32  and  C_33
REMARK   13  A    between atoms: C_39  and  O_40
REMARK   14  A    between atoms: C_43  and  O_44
REMARK                            x       y       z     vdW  Elec       q    Type
REMARK                         _______ _______ _______ _____ _____    ______ ____
ROOT
ATOM      1  N   UNL     1       8.959  -1.649  23.980  0.00  0.00    -0.300 N 
ATOM      2  H   UNL     1       9.009  -1.860  24.974  0.00  0.00    +0.150 HD
ATOM      3  C   UNL     1       8.863  -0.310  23.641  0.00  0.00    +0.239 C 
ATOM      4  O   UNL     1       8.549   0.052  22.511  0.00  0.00    -0.273 OA
ENDROOT
BRANCH   1   6
ATOM      5  C   UNL     1       8.253  -4.118  23.837  0.00  0.00    +0.169 C 
ATOM      6  CA  UNL     1       8.490  -2.756  23.096  0.00  0.00    +0.191 C 
ATOM      7  C   UNL     1       6.933  -2.820  22.853  0.00  0.00    +0.244 C 
ATOM      8  O   UNL     1       6.059  -2.209  22.283  0.00  0.00    -0.273 OA
ATOM      9  N   UNL     1       6.829  -3.883  23.684  0.00  0.00    -0.249 N 
ATOM     10  CA  UNL     1       5.841  -4.576  24.341  0.00  0.00    +0.123 C 
ATOM     11  C   UNL     1       6.169  -5.390  25.389  0.00  0.00    -0.021 C 
ATOM     12  C   UNL     1       7.573  -5.493  25.975  0.00  0.00    +0.104 C 
ATOM     13  S   UNL     1       8.649  -4.088  25.608  0.00  0.00    -0.131 S 
BRANCH  10  14
ATOM     14  C   UNL     1       4.386  -4.386  23.950  0.00  0.00    +0.351 C 
ATOM     15  OXT UNL     1       3.852  -4.964  23.016  0.00  0.00    -0.244 OA
BRANCH  14  16
ATOM     16  O   UNL     1       3.694  -3.466  24.650  0.00  0.00    -0.476 OA
ATOM     17  H   UNL     1       4.177  -3.031  25.387  0.00  0.00    +0.295 HD
ENDBRANCH  14  16
ENDBRANCH  10  14
BRANCH  11  18
ATOM     18  C   UNL     1       5.191  -6.210  26.231  0.00  0.00    +0.111 C 
BRANCH  18  19
ATOM     19  S   UNL     1       4.884  -5.603  27.908  0.00  0.00    -0.080 S 
BRANCH  19  20
ATOM     20  C   UNL     1       3.425  -4.708  27.781  0.00  0.00    +0.209 A 
ATOM     21  N   UNL     1       3.115  -3.661  28.604  0.00  0.00    -0.223 N 
ATOM     22  C   UNL     1       3.834  -3.130  29.726  0.00  0.00    +0.177 C 
ATOM     23  N   UNL     1       1.940  -3.130  28.221  0.00  0.00    -0.043 NA
ATOM     24  N   UNL     1       1.545  -3.865  27.189  0.00  0.00    -0.022 NA
ATOM     25  N   UNL     1       2.457  -4.854  26.908  0.00  0.00    -0.102 NA
ENDBRANCH  19  20
ENDBRANCH  18  19
ENDBRANCH  11  18
ENDBRANCH   1   6
BRANCH   3  26
ATOM     26  CA  UNL     1       9.004   0.655  24.859  0.00  0.00    +0.190 C 
BRANCH  26  27
ATOM     27  C   UNL     1       9.448   2.051  24.411  0.00  0.00    -0.018 A 
ATOM     28  C   UNL     1       8.629   3.176  24.634  0.00  0.00    +0.009 A 
ATOM     29  C   UNL     1       9.047   4.457  24.270  0.00  0.00    +0.046 A 
ATOM     30  C   UNL     1      10.272   4.629  23.647  0.00  0.00    +0.117 A 
ATOM     31  C   UNL     1      11.079   3.534  23.357  0.00  0.00    +0.046 A 
ATOM     32  C   UNL     1      10.664   2.251  23.731  0.00  0.00    +0.009 A 
BRANCH  30  33
ATOM     33  O   UNL     1      10.647   5.899  23.326  0.00  0.00    -0.507 OA
ATOM     34  H   UNL     1      10.338   6.101  22.428  0.00  0.00    +0.292 HD
ENDBRANCH  30  33
ENDBRANCH  26  27
BRANCH  26  35
ATOM     35  N   UNL     1       7.692   0.702  25.533  0.00  0.00    -0.296 N 
ATOM     36  H   UNL     1       7.001   1.345  25.175  0.00  0.00    +0.150 HD
ATOM     37  C   UNL     1       7.444  -0.000  26.691  0.00  0.00    +0.250 C 
ATOM     38  O   UNL     1       8.301  -0.649  27.288  0.00  0.00    -0.270 OA
BRANCH  37  39
ATOM     39  C   UNL     1       6.085   0.070  27.277  0.00  0.00    +0.096 A 
ATOM     40  C   UNL     1       5.845   0.628  28.523  0.00  0.00    +0.127 A 
ATOM     41  N   UNL     1       4.612   0.749  29.080  0.00  0.00    -0.259 NA
ATOM     42  C   UNL     1       3.551   0.300  28.365  0.00  0.00    +0.042 A 
ATOM     43  C   UNL     1       2.190   0.548  28.947  0.00  0.00    +0.066 C 
ATOM     44  C   UNL     1       3.694  -0.284  27.113  0.00  0.00    +0.069 A 
ATOM     45  C   UNL     1       4.969  -0.375  26.565  0.00  0.00    +0.132 A 
BRANCH  45  46
ATOM     46  O   UNL     1       5.049  -0.897  25.299  0.00  0.00    -0.506 OA
ATOM     47  H   UNL     1       5.580  -0.277  24.748  0.00  0.00    +0.292 HD
ENDBRANCH  45  46
ENDBRANCH  37  39
ENDBRANCH  26  35
ENDBRANCH   3  26
TORSDOF 12
ENDMDL
MODEL 7
REMARK VINA RESULT:      -6.8      3.866      7.847
REMARK  Name = 
REMARK  14 active torsions:
REMARK  status: ('A' for Active; 'I' for Inactive)
REMARK    1  A    between atoms: C_5  and  C_6
REMARK    2  A    between atoms: C_6  and  S_7
REMARK    3  A    between atoms: S_7  and  C_8
REMARK    4  A    between atoms: N_12  and  C_13
REMARK    5  A    between atoms: CA_14  and  C_43
REMARK    6  A    between atoms: CA_18  and  N_20
REMARK    7  A    between atoms: C_21  and  CA_23
REMARK    8  A    between atoms: CA_23  and  N_25
REMARK    9  A    between atoms: CA_23  and  C_36
REMARK   10  A    between atoms: C_26  and  C_28
REMARK   11  A    between atoms: C_29  and  O_30
REMARK   12  A    between atoms: C_32  and  C_33
REMARK   13  A    between atoms: C_39  and  O_40
REMARK   14  A    between atoms: C_43  and  O_44
REMARK                            x       y       z     vdW  Elec       q    Type
REMARK                         _______ _______ _______ _____ _____    ______ ____
ROOT
ATOM      1  N   UNL     1       7.695   2.114  25.477  0.00  0.00    -0.300 N 
ATOM      2  H   UNL     1       8.002   2.312  24.528  0.00  0.00    +0.150 HD
ATOM      3  C   UNL     1       7.309   3.204  26.239  0.00  0.00    +0.239 C 
ATOM      4  O   UNL     1       7.160   3.126  27.455  0.00  0.00    -0.273 OA
ENDROOT
BRANCH   1   6
ATOM      5  C   UNL     1       7.384  -0.437  25.575  0.00  0.00    +0.169 C 
ATOM      6  CA  UNL     1       8.171   0.827  26.066  0.00  0.00    +0.191 C 
ATOM      7  C   UNL     1       9.382   0.144  25.322  0.00  0.00    +0.244 C 
ATOM      8  O   UNL     1      10.565   0.310  25.131  0.00  0.00    -0.273 OA
ATOM      9  N   UNL     1       8.554  -0.785  24.791  0.00  0.00    -0.249 N 
ATOM     10  CA  UNL     1       8.584  -1.734  23.798  0.00  0.00    +0.123 C 
ATOM     11  C   UNL     1       7.411  -2.248  23.318  0.00  0.00    -0.021 C 
ATOM     12  C   UNL     1       6.033  -1.742  23.732  0.00  0.00    +0.104 C 
ATOM     13  S   UNL     1       6.019  -0.077  24.434  0.00  0.00    -0.131 S 
BRANCH  10  14
ATOM     14  C   UNL     1       9.907  -2.160  23.187  0.00  0.00    +0.351 C 
ATOM     15  OXT UNL     1      10.368  -1.682  22.161  0.00  0.00    -0.244 OA
BRANCH  14  16
ATOM     16  O   UNL     1      10.548  -3.176  23.797  0.00  0.00    -0.476 OA
ATOM     17  H   UNL     1      11.414  -3.434  23.411  0.00  0.00    +0.295 HD
ENDBRANCH  14  16
ENDBRANCH  10  14
BRANCH  11  18
ATOM     18  C   UNL     1       7.272  -3.290  22.209  0.00  0.00    +0.111 C 
BRANCH  18  19
ATOM     19  S   UNL     1       6.814  -4.959  22.738  0.00  0.00    -0.080 S 
BRANCH  19  20
ATOM     20  C   UNL     1       7.687  -5.202  24.195  0.00  0.00    +0.209 A 
ATOM     21  N   UNL     1       7.096  -5.225  25.428  0.00  0.00    -0.223 N 
ATOM     22  C   UNL     1       5.725  -5.008  25.793  0.00  0.00    +0.177 C 
ATOM     23  N   UNL     1       8.027  -5.490  26.361  0.00  0.00    -0.043 NA
ATOM     24  N   UNL     1       9.167  -5.608  25.692  0.00  0.00    -0.022 NA
ATOM     25  N   UNL     1       8.971  -5.424  24.344  0.00  0.00    -0.102 NA
ENDBRANCH  19  20
ENDBRANCH  18  19
ENDBRANCH  11  18
ENDBRANCH   1   6
BRANCH   3  26
ATOM     26  CA  UNL     1       7.271   4.542  25.439  0.00  0.00    +0.190 C 
BRANCH  26  27
ATOM     27  C   UNL     1       8.645   4.873  24.845  0.00  0.00    -0.018 A 
ATOM     28  C   UNL     1       9.233   6.137  25.047  0.00  0.00    +0.009 A 
ATOM     29  C   UNL     1      10.504   6.430  24.548  0.00  0.00    +0.046 A 
ATOM     30  C   UNL     1      11.189   5.477  23.811  0.00  0.00    +0.117 A 
ATOM     31  C   UNL     1      10.612   4.241  23.542  0.00  0.00    +0.046 A 
ATOM     32  C   UNL     1       9.342   3.945  24.050  0.00  0.00    +0.009 A 
BRANCH  30  33
ATOM     33  O   UNL     1      12.433   5.799  23.359  0.00  0.00    -0.507 OA
ATOM     34  H   UNL     1      13.047   5.814  24.111  0.00  0.00    +0.292 HD
ENDBRANCH  30  33
ENDBRANCH  26  27
BRANCH  26  35
ATOM     35  N   UNL     1       6.254   4.389  24.380  0.00  0.00    -0.296 N 
ATOM     36  H   UNL     1       6.492   3.829  23.575  0.00  0.00    +0.150 HD
ATOM     37  C   UNL     1       5.066   5.085  24.407  0.00  0.00    +0.250 C 
ATOM     38  O   UNL     1       4.794   5.930  25.257  0.00  0.00    -0.270 OA
BRANCH  37  39
ATOM     39  C   UNL     1       4.083   4.838  23.327  0.00  0.00    +0.096 A 
ATOM     40  C   UNL     1       3.632   5.848  22.492  0.00  0.00    +0.127 A 
ATOM     41  N   UNL     1       2.763   5.659  21.465  0.00  0.00    -0.259 NA
ATOM     42  C   UNL     1       2.318   4.398  21.241  0.00  0.00    +0.042 A 
ATOM     43  C   UNL     1       1.452   4.191  20.033  0.00  0.00    +0.066 C 
ATOM     44  C   UNL     1       2.706   3.324  22.031  0.00  0.00    +0.069 A 
ATOM     45  C   UNL     1       3.610   3.550  23.063  0.00  0.00    +0.132 A 
BRANCH  45  46
ATOM     46  O   UNL     1       4.013   2.446  23.770  0.00  0.00    -0.506 OA
ATOM     47  H   UNL     1       4.920   2.619  24.111  0.00  0.00    +0.292 HD
ENDBRANCH  45  46
ENDBRANCH  37  39
ENDBRANCH  26  35
ENDBRANCH   3  26
TORSDOF 12
ENDMDL
MODEL 8
REMARK VINA RESULT:      -6.7      3.179      9.457
REMARK  Name = 
REMARK  14 active torsions:
REMARK  status: ('A' for Active; 'I' for Inactive)
REMARK    1  A    between atoms: C_5  and  C_6
REMARK    2  A    between atoms: C_6  and  S_7
REMARK    3  A    between atoms: S_7  and  C_8
REMARK    4  A    between atoms: N_12  and  C_13
REMARK    5  A    between atoms: CA_14  and  C_43
REMARK    6  A    between atoms: CA_18  and  N_20
REMARK    7  A    between atoms: C_21  and  CA_23
REMARK    8  A    between atoms: CA_23  and  N_25
REMARK    9  A    between atoms: CA_23  and  C_36
REMARK   10  A    between atoms: C_26  and  C_28
REMARK   11  A    between atoms: C_29  and  O_30
REMARK   12  A    between atoms: C_32  and  C_33
REMARK   13  A    between atoms: C_39  and  O_40
REMARK   14  A    between atoms: C_43  and  O_44
REMARK                            x       y       z     vdW  Elec       q    Type
REMARK                         _______ _______ _______ _____ _____    ______ ____
ROOT
ATOM      1  N   UNL     1       8.608  -1.490  23.914  0.00  0.00    -0.300 N 
ATOM      2  H   UNL     1       7.941  -0.933  24.442  0.00  0.00    +0.150 HD
ATOM      3  C   UNL     1       9.022  -2.674  24.503  0.00  0.00    +0.239 C 
ATOM      4  O   UNL     1       9.993  -3.299  24.088  0.00  0.00    -0.273 OA
ENDROOT
BRANCH   1   6
ATOM      5  C   UNL     1       8.621   0.377  22.145  0.00  0.00    +0.169 C 
ATOM      6  CA  UNL     1       9.407  -0.760  22.886  0.00  0.00    +0.191 C 
ATOM      7  C   UNL     1      10.279   0.438  23.427  0.00  0.00    +0.244 C 
ATOM      8  O   UNL     1      11.262   0.637  24.103  0.00  0.00    -0.273 OA
ATOM      9  N   UNL     1       9.406   1.331  22.906  0.00  0.00    -0.249 N 
ATOM     10  CA  UNL     1       9.129   2.672  23.012  0.00  0.00    +0.123 C 
ATOM     11  C   UNL     1       7.921   3.149  22.585  0.00  0.00    -0.021 C 
ATOM     12  C   UNL     1       6.782   2.258  22.101  0.00  0.00    +0.104 C 
ATOM     13  S   UNL     1       6.884   0.539  22.646  0.00  0.00    -0.131 S 
BRANCH  10  14
ATOM     14  C   UNL     1      10.131   3.610  23.663  0.00  0.00    +0.351 C 
ATOM     15  OXT UNL     1       9.886   4.290  24.648  0.00  0.00    -0.244 OA
BRANCH  14  16
ATOM     16  O   UNL     1      11.324   3.730  23.049  0.00  0.00    -0.476 OA
ATOM     17  H   UNL     1      11.347   4.313  22.259  0.00  0.00    +0.295 HD
ENDBRANCH  14  16
ENDBRANCH  10  14
BRANCH  11  18
ATOM     18  C   UNL     1       7.453   4.604  22.651  0.00  0.00    +0.111 C 
BRANCH  18  19
ATOM     19  S   UNL     1       6.064   4.943  23.760  0.00  0.00    -0.080 S 
BRANCH  19  20
ATOM     20  C   UNL     1       6.718   4.764  25.336  0.00  0.00    +0.209 A 
ATOM     21  N   UNL     1       7.353   5.775  26.003  0.00  0.00    -0.223 N 
ATOM     22  C   UNL     1       7.664   7.108  25.570  0.00  0.00    +0.177 C 
ATOM     23  N   UNL     1       7.702   5.347  27.228  0.00  0.00    -0.043 NA
ATOM     24  N   UNL     1       7.293   4.085  27.287  0.00  0.00    -0.022 NA
ATOM     25  N   UNL     1       6.685   3.708  26.113  0.00  0.00    -0.102 NA
ENDBRANCH  19  20
ENDBRANCH  18  19
ENDBRANCH  11  18
ENDBRANCH   1   6
BRANCH   3  26
ATOM     26  CA  UNL     1       8.262  -3.014  25.822  0.00  0.00    +0.190 C 
BRANCH  26  27
ATOM     27  C   UNL     1       7.808  -1.741  26.544  0.00  0.00    -0.018 A 
ATOM     28  C   UNL     1       6.439  -1.432  26.668  0.00  0.00    +0.009 A 
ATOM     29  C   UNL     1       6.015  -0.298  27.363  0.00  0.00    +0.046 A 
ATOM     30  C   UNL     1       6.953   0.560  27.914  0.00  0.00    +0.117 A 
ATOM     31  C   UNL     1       8.312   0.317  27.759  0.00  0.00    +0.046 A 
ATOM     32  C   UNL     1       8.737  -0.825  27.069  0.00  0.00    +0.009 A 
BRANCH  30  33
ATOM     33  O   UNL     1       6.494   1.645  28.600  0.00  0.00    -0.507 OA
ATOM     34  H   UNL     1       7.220   2.015  29.127  0.00  0.00    +0.292 HD
ENDBRANCH  30  33
ENDBRANCH  26  27
BRANCH  26  35
ATOM     35  N   UNL     1       7.111  -3.862  25.456  0.00  0.00    -0.296 N 
ATOM     36  H   UNL     1       6.383  -3.450  24.891  0.00  0.00    +0.150 HD
ATOM     37  C   UNL     1       6.950  -5.130  25.967  0.00  0.00    +0.250 C 
ATOM     38  O   UNL     1       7.697  -5.621  26.812  0.00  0.00    -0.270 OA
BRANCH  37  39
ATOM     39  C   UNL     1       5.788  -5.928  25.513  0.00  0.00    +0.096 A 
ATOM     40  C   UNL     1       4.949  -6.584  26.399  0.00  0.00    +0.127 A 
ATOM     41  N   UNL     1       3.850  -7.292  26.030  0.00  0.00    -0.259 NA
ATOM     42  C   UNL     1       3.556  -7.353  24.708  0.00  0.00    +0.042 A 
ATOM     43  C   UNL     1       2.278  -8.041  24.330  0.00  0.00    +0.066 C 
ATOM     44  C   UNL     1       4.345  -6.738  23.743  0.00  0.00    +0.069 A 
ATOM     45  C   UNL     1       5.452  -6.006  24.159  0.00  0.00    +0.132 A 
BRANCH  45  46
ATOM     46  O   UNL     1       6.158  -5.362  23.175  0.00  0.00    -0.506 OA
ATOM     47  H   UNL     1       6.940  -5.918  22.950  0.00  0.00    +0.292 HD
ENDBRANCH  45  46
ENDBRANCH  37  39
ENDBRANCH  26  35
ENDBRANCH   3  26
TORSDOF 12
ENDMDL
MODEL 9
REMARK VINA RESULT:      -6.7      3.340      6.863
REMARK  Name = 
REMARK  14 active torsions:
REMARK  status: ('A' for Active; 'I' for Inactive)
REMARK    1  A    between atoms: C_5  and  C_6
REMARK    2  A    between atoms: C_6  and  S_7
REMARK    3  A    between atoms: S_7  and  C_8
REMARK    4  A    between atoms: N_12  and  C_13
REMARK    5  A    between atoms: CA_14  and  C_43
REMARK    6  A    between atoms: CA_18  and  N_20
REMARK    7  A    between atoms: C_21  and  CA_23
REMARK    8  A    between atoms: CA_23  and  N_25
REMARK    9  A    between atoms: CA_23  and  C_36
REMARK   10  A    between atoms: C_26  and  C_28
REMARK   11  A    between atoms: C_29  and  O_30
REMARK   12  A    between atoms: C_32  and  C_33
REMARK   13  A    between atoms: C_39  and  O_40
REMARK   14  A    between atoms: C_43  and  O_44
REMARK                            x       y       z     vdW  Elec       q    Type
REMARK                         _______ _______ _______ _____ _____    ______ ____
ROOT
ATOM      1  N   UNL     1       9.619  -0.249  24.351  0.00  0.00    -0.300 N 
ATOM      2  H   UNL     1       9.313  -0.114  25.311  0.00  0.00    +0.150 HD
ATOM      3  C   UNL     1       9.443   0.824  23.494  0.00  0.00    +0.239 C 
ATOM      4  O   UNL     1       9.539   0.705  22.276  0.00  0.00    -0.273 OA
ENDROOT
BRANCH   1   6
ATOM      5  C   UNL     1       9.103  -2.714  24.872  0.00  0.00    +0.169 C 
ATOM      6  CA  UNL     1       9.722  -1.663  23.886  0.00  0.00    +0.191 C 
ATOM      7  C   UNL     1       8.570  -2.150  22.925  0.00  0.00    +0.244 C 
ATOM      8  O   UNL     1       8.170  -1.975  21.797  0.00  0.00    -0.273 OA
ATOM      9  N   UNL     1       8.012  -2.866  23.927  0.00  0.00    -0.249 N 
ATOM     10  CA  UNL     1       6.822  -3.499  24.193  0.00  0.00    +0.123 C 
ATOM     11  C   UNL     1       6.500  -3.820  25.483  0.00  0.00    -0.021 C 
ATOM     12  C   UNL     1       7.332  -3.406  26.692  0.00  0.00    +0.104 C 
ATOM     13  S   UNL     1       8.436  -2.004  26.404  0.00  0.00    -0.131 S 
BRANCH  10  14
ATOM     14  C   UNL     1       5.838  -3.780  23.071  0.00  0.00    +0.351 C 
ATOM     15  OXT UNL     1       5.596  -4.898  22.643  0.00  0.00    -0.244 OA
BRANCH  14  16
ATOM     16  O   UNL     1       5.273  -2.705  22.489  0.00  0.00    -0.476 OA
ATOM     17  H   UNL     1       5.892  -2.023  22.147  0.00  0.00    +0.295 HD
ENDBRANCH  14  16
ENDBRANCH  10  14
BRANCH  11  18
ATOM     18  C   UNL     1       5.214  -4.505  25.946  0.00  0.00    +0.111 C 
BRANCH  18  19
ATOM     19  S   UNL     1       5.319  -6.290  26.225  0.00  0.00    -0.080 S 
BRANCH  19  20
ATOM     20  C   UNL     1       5.561  -6.446  27.917  0.00  0.00    +0.209 A 
ATOM     21  N   UNL     1       4.547  -6.706  28.798  0.00  0.00    -0.223 N 
ATOM     22  C   UNL     1       3.138  -6.840  28.563  0.00  0.00    +0.177 C 
ATOM     23  N   UNL     1       5.057  -6.826  30.036  0.00  0.00    -0.043 NA
ATOM     24  N   UNL     1       6.361  -6.623  29.898  0.00  0.00    -0.022 NA
ATOM     25  N   UNL     1       6.687  -6.379  28.585  0.00  0.00    -0.102 NA
ENDBRANCH  19  20
ENDBRANCH  18  19
ENDBRANCH  11  18
ENDBRANCH   1   6
BRANCH   3  26
ATOM     26  CA  UNL     1       8.937   2.116  24.206  0.00  0.00    +0.190 C 
BRANCH  26  27
ATOM     27  C   UNL     1       9.902   3.286  23.983  0.00  0.00    -0.018 A 
ATOM     28  C   UNL     1      11.226   3.058  23.561  0.00  0.00    +0.009 A 
ATOM     29  C   UNL     1      12.097   4.121  23.311  0.00  0.00    +0.046 A 
ATOM     30  C   UNL     1      11.668   5.422  23.514  0.00  0.00    +0.117 A 
ATOM     31  C   UNL     1      10.387   5.680  23.988  0.00  0.00    +0.046 A 
ATOM     32  C   UNL     1       9.512   4.615  24.229  0.00  0.00    +0.009 A 
BRANCH  30  33
ATOM     33  O   UNL     1      12.546   6.429  23.240  0.00  0.00    -0.507 OA
ATOM     34  H   UNL     1      12.643   6.985  24.030  0.00  0.00    +0.292 HD
ENDBRANCH  30  33
ENDBRANCH  26  27
BRANCH  26  35
ATOM     35  N   UNL     1       7.597   2.417  23.665  0.00  0.00    -0.296 N 
ATOM     36  H   UNL     1       7.509   2.541  22.667  0.00  0.00    +0.150 HD
ATOM     37  C   UNL     1       6.518   2.657  24.486  0.00  0.00    +0.250 C 
ATOM     38  O   UNL     1       6.598   2.713  25.712  0.00  0.00    -0.270 OA
BRANCH  37  39
ATOM     39  C   UNL     1       5.201   2.908  23.858  0.00  0.00    +0.096 A 
ATOM     40  C   UNL     1       4.007   2.630  24.506  0.00  0.00    +0.127 A 
ATOM     41  N   UNL     1       2.779   2.881  23.985  0.00  0.00    -0.259 NA
ATOM     42  C   UNL     1       2.721   3.447  22.754  0.00  0.00    +0.042 A 
ATOM     43  C   UNL     1       1.360   3.822  22.245  0.00  0.00    +0.066 C 
ATOM     44  C   UNL     1       3.862   3.751  22.023  0.00  0.00    +0.069 A 
ATOM     45  C   UNL     1       5.104   3.497  22.595  0.00  0.00    +0.132 A 
BRANCH  45  46
ATOM     46  O   UNL     1       6.199   3.877  21.862  0.00  0.00    -0.506 OA
ATOM     47  H   UNL     1       5.945   3.869  20.911  0.00  0.00    +0.292 HD
ENDBRANCH  45  46
ENDBRANCH  37  39
ENDBRANCH  26  35
ENDBRANCH   3  26
TORSDOF 12
ENDMDL
