MODEL 1
REMARK VINA RESULT:      -7.4      0.000      0.000
REMARK  Name = 
REMARK  11 active torsions:
REMARK  status: ('A' for Active; 'I' for Inactive)
REMARK    1  A    between atoms: C_1  and  C_2
REMARK    2  A    between atoms: C_2  and  C_3
REMARK    3  A    between atoms: C_3  and  C_4
REMARK    4  A    between atoms: C_9  and  C_13
REMARK    5  A    between atoms: C_11  and  C_12
REMARK    6  A    between atoms: N_21  and  C_22
REMARK    7  A    between atoms: N_23  and  C_24
REMARK    8  A    between atoms: C_24  and  C_25
REMARK    9  A    between atoms: C_28  and  C_31
REMARK   10  A    between atoms: C_36  and  C_37
REMARK   11  A    between atoms: C_37  and  O_38
REMARK                            x       y       z     vdW  Elec       q    Type
REMARK                         _______ _______ _______ _____ _____    ______ ____
ROOT
ATOM      1  C   UNL     1       8.055  -2.945  24.964  0.00  0.00    +0.111 A 
ATOM      2  N   UNL     1       7.975  -1.823  24.155  0.00  0.00    -0.323 N 
ATOM      3  C   UNL     1       6.993  -0.989  24.683  0.00  0.00    +0.070 A 
ATOM      4  C   UNL     1       6.499   0.299  24.371  0.00  0.00    +0.039 A 
ATOM      5  C   UNL     1       5.445   0.828  25.160  0.00  0.00    +0.020 A 
ATOM      6  C   UNL     1       4.882   0.020  26.159  0.00  0.00    +0.017 A 
ATOM      7  C   UNL     1       5.400  -1.240  26.503  0.00  0.00    -0.022 A 
ATOM      8  C   UNL     1       4.809  -2.041  27.622  0.00  0.00    +0.046 C 
ATOM      9  C   UNL     1       6.480  -1.721  25.748  0.00  0.00    +0.092 A 
ATOM     10  N   UNL     1       7.151  -2.894  25.917  0.00  0.00    -0.232 NA
ENDROOT
BRANCH   5  11
ATOM     11  C   UNL     1       4.934   2.202  24.905  0.00  0.00    +0.142 A 
ATOM     12  N   UNL     1       4.870   3.256  25.814  0.00  0.00    -0.327 N 
ATOM     13  C   UNL     1       5.354   3.281  27.175  0.00  0.00    +0.151 C 
ATOM     14  C   UNL     1       4.305   4.350  25.189  0.00  0.00    +0.069 A 
ATOM     15  C   UNL     1       4.074   3.914  23.892  0.00  0.00    +0.090 A 
ATOM     16  C   UNL     1       3.486   4.797  22.968  0.00  0.00    +0.030 A 
ATOM     17  C   UNL     1       3.175   6.100  23.376  0.00  0.00    +0.002 A 
ATOM     18  C   UNL     1       3.431   6.520  24.682  0.00  0.00    +0.002 A 
ATOM     19  C   UNL     1       4.000   5.651  25.616  0.00  0.00    +0.028 A 
ATOM     20  N   UNL     1       4.473   2.608  23.733  0.00  0.00    -0.228 NA
ENDBRANCH   5  11
BRANCH   1  21
ATOM     21  C   UNL     1       9.027  -4.078  24.854  0.00  0.00    +0.074 C 
BRANCH  21  23
ATOM     22  C   UNL     1       7.568  -5.220  23.115  0.00  0.00    +0.004 C 
ATOM     23  C   UNL     1       8.309  -5.368  24.435  0.00  0.00    +0.004 C 
ENDBRANCH  21  23
ENDBRANCH   1  21
BRANCH   2  24
ATOM     24  C   UNL     1       8.730  -1.594  22.922  0.00  0.00    +0.158 C 
BRANCH  24  25
ATOM     25  C   UNL     1       9.600  -0.354  22.918  0.00  0.00    -0.028 A 
ATOM     26  C   UNL     1       9.475   0.569  21.869  0.00  0.00    +0.006 A 
ATOM     27  C   UNL     1      10.026   1.858  21.972  0.00  0.00    +0.009 A 
ATOM     28  C   UNL     1      10.638   2.285  23.159  0.00  0.00    -0.017 A 
ATOM     29  C   UNL     1      10.938   1.284  24.099  0.00  0.00    +0.009 A 
ATOM     30  C   UNL     1      10.448  -0.019  23.971  0.00  0.00    +0.006 A 
BRANCH  28  31
ATOM     31  C   UNL     1      10.842   3.724  23.502  0.00  0.00    -0.004 A 
ATOM     32  C   UNL     1       9.858   4.558  24.094  0.00  0.00    +0.067 A 
ATOM     33  C   UNL     1      10.149   5.897  24.433  0.00  0.00    +0.015 A 
ATOM     34  C   UNL     1      11.428   6.414  24.268  0.00  0.00    +0.001 A 
ATOM     35  C   UNL     1      12.422   5.609  23.736  0.00  0.00    +0.001 A 
ATOM     36  C   UNL     1      12.125   4.300  23.337  0.00  0.00    +0.009 A 
BRANCH  32  37
ATOM     37  C   UNL     1       8.481   4.146  24.466  0.00  0.00    +0.337 C 
ATOM     38  O   UNL     1       8.252   3.359  25.373  0.00  0.00    -0.245 OA
BRANCH  37  39
ATOM     39  O   UNL     1       7.508   4.603  23.648  0.00  0.00    -0.477 OA
ATOM     40  H   UNL     1       6.685   4.076  23.654  0.00  0.00    +0.295 HD
ENDBRANCH  37  39
ENDBRANCH  32  37
ENDBRANCH  28  31
ENDBRANCH  24  25
ENDBRANCH   2  24
TORSDOF 8
ENDMDL
MODEL 2
REMARK VINA RESULT:      -7.4      1.587      2.270
REMARK  Name = 
REMARK  11 active torsions:
REMARK  status: ('A' for Active; 'I' for Inactive)
REMARK    1  A    between atoms: C_1  and  C_2
REMARK    2  A    between atoms: C_2  and  C_3
REMARK    3  A    between atoms: C_3  and  C_4
REMARK    4  A    between atoms: C_9  and  C_13
REMARK    5  A    between atoms: C_11  and  C_12
REMARK    6  A    between atoms: N_21  and  C_22
REMARK    7  A    between atoms: N_23  and  C_24
REMARK    8  A    between atoms: C_24  and  C_25
REMARK    9  A    between atoms: C_28  and  C_31
REMARK   10  A    between atoms: C_36  and  C_37
REMARK   11  A    between atoms: C_37  and  O_38
REMARK                            x       y       z     vdW  Elec       q    Type
REMARK                         _______ _______ _______ _____ _____    ______ ____
ROOT
ATOM      1  C   UNL     1       7.678  -2.993  24.174  0.00  0.00    +0.111 A 
ATOM      2  N   UNL     1       7.943  -1.724  23.682  0.00  0.00    -0.323 N 
ATOM      3  C   UNL     1       7.050  -0.842  24.286  0.00  0.00    +0.070 A 
ATOM      4  C   UNL     1       6.858   0.559  24.264  0.00  0.00    +0.039 A 
ATOM      5  C   UNL     1       5.797   1.108  25.029  0.00  0.00    +0.020 A 
ATOM      6  C   UNL     1       4.934   0.234  25.706  0.00  0.00    +0.017 A 
ATOM      7  C   UNL     1       5.149  -1.153  25.770  0.00  0.00    -0.022 A 
ATOM      8  C   UNL     1       4.240  -2.043  26.560  0.00  0.00    +0.046 C 
ATOM      9  C   UNL     1       6.238  -1.670  25.053  0.00  0.00    +0.092 A 
ATOM     10  N   UNL     1       6.647  -2.967  24.990  0.00  0.00    -0.232 NA
ENDROOT
BRANCH   5  11
ATOM     11  C   UNL     1       5.594   2.581  25.082  0.00  0.00    +0.142 A 
ATOM     12  N   UNL     1       5.307   3.428  24.013  0.00  0.00    -0.327 N 
ATOM     13  C   UNL     1       5.063   3.064  22.636  0.00  0.00    +0.151 C 
ATOM     14  C   UNL     1       5.226   4.724  24.481  0.00  0.00    +0.069 A 
ATOM     15  C   UNL     1       5.440   4.603  25.847  0.00  0.00    +0.090 A 
ATOM     16  C   UNL     1       5.431   5.760  26.646  0.00  0.00    +0.030 A 
ATOM     17  C   UNL     1       5.179   7.000  26.045  0.00  0.00    +0.002 A 
ATOM     18  C   UNL     1       4.951   7.095  24.672  0.00  0.00    +0.002 A 
ATOM     19  C   UNL     1       4.972   5.957  23.862  0.00  0.00    +0.028 A 
ATOM     20  N   UNL     1       5.652   3.290  26.197  0.00  0.00    -0.228 NA
ENDBRANCH   5  11
BRANCH   1  21
ATOM     21  C   UNL     1       8.434  -4.253  23.891  0.00  0.00    +0.074 C 
BRANCH  21  23
ATOM     22  C   UNL     1       7.014  -4.986  21.915  0.00  0.00    +0.004 C 
ATOM     23  C   UNL     1       7.501  -5.327  23.316  0.00  0.00    +0.004 C 
ENDBRANCH  21  23
ENDBRANCH   1  21
BRANCH   2  24
ATOM     24  C   UNL     1       8.927  -1.387  22.654  0.00  0.00    +0.158 C 
BRANCH  24  25
ATOM     25  C   UNL     1       9.557  -0.016  22.787  0.00  0.00    -0.028 A 
ATOM     26  C   UNL     1       9.204   0.993  21.878  0.00  0.00    +0.006 A 
ATOM     27  C   UNL     1       9.518   2.339  22.136  0.00  0.00    +0.009 A 
ATOM     28  C   UNL     1      10.115   2.718  23.347  0.00  0.00    -0.017 A 
ATOM     29  C   UNL     1      10.646   1.679  24.131  0.00  0.00    +0.009 A 
ATOM     30  C   UNL     1      10.393   0.335  23.845  0.00  0.00    +0.006 A 
BRANCH  28  31
ATOM     31  C   UNL     1      10.076   4.115  23.875  0.00  0.00    -0.004 A 
ATOM     32  C   UNL     1      11.129   5.057  23.738  0.00  0.00    +0.067 A 
ATOM     33  C   UNL     1      10.991   6.375  24.224  0.00  0.00    +0.015 A 
ATOM     34  C   UNL     1       9.795   6.811  24.780  0.00  0.00    +0.001 A 
ATOM     35  C   UNL     1       8.733   5.927  24.883  0.00  0.00    +0.001 A 
ATOM     36  C   UNL     1       8.883   4.599  24.464  0.00  0.00    +0.009 A 
BRANCH  32  37
ATOM     37  C   UNL     1      12.426   4.817  23.058  0.00  0.00    +0.337 C 
ATOM     38  O   UNL     1      13.423   4.440  23.657  0.00  0.00    -0.245 OA
BRANCH  37  39
ATOM     39  O   UNL     1      12.461   5.169  21.754  0.00  0.00    -0.477 OA
ATOM     40  H   UNL     1      11.629   5.017  21.265  0.00  0.00    +0.295 HD
ENDBRANCH  37  39
ENDBRANCH  32  37
ENDBRANCH  28  31
ENDBRANCH  24  25
ENDBRANCH   2  24
TORSDOF 8
ENDMDL
MODEL 3
REMARK VINA RESULT:      -7.2      3.037      6.235
REMARK  Name = 
REMARK  11 active torsions:
REMARK  status: ('A' for Active; 'I' for Inactive)
REMARK    1  A    between atoms: C_1  and  C_2
REMARK    2  A    between atoms: C_2  and  C_3
REMARK    3  A    between atoms: C_3  and  C_4
REMARK    4  A    between atoms: C_9  and  C_13
REMARK    5  A    between atoms: C_11  and  C_12
REMARK    6  A    between atoms: N_21  and  C_22
REMARK    7  A    between atoms: N_23  and  C_24
REMARK    8  A    between atoms: C_24  and  C_25
REMARK    9  A    between atoms: C_28  and  C_31
REMARK   10  A    between atoms: C_36  and  C_37
REMARK   11  A    between atoms: C_37  and  O_38
REMARK                            x       y       z     vdW  Elec       q    Type
REMARK                         _______ _______ _______ _____ _____    ______ ____
ROOT
ATOM      1  C   UNL     1       9.533  -1.458  23.336  0.00  0.00    +0.111 A 
ATOM      2  N   UNL     1       8.219  -1.449  22.895  0.00  0.00    -0.323 N 
ATOM      3  C   UNL     1       7.598  -2.591  23.395  0.00  0.00    +0.070 A 
ATOM      4  C   UNL     1       6.282  -3.109  23.365  0.00  0.00    +0.039 A 
ATOM      5  C   UNL     1       6.031  -4.352  24.001  0.00  0.00    +0.020 A 
ATOM      6  C   UNL     1       7.111  -5.054  24.556  0.00  0.00    +0.017 A 
ATOM      7  C   UNL     1       8.409  -4.522  24.630  0.00  0.00    -0.022 A 
ATOM      8  C   UNL     1       9.519  -5.278  25.293  0.00  0.00    +0.046 C 
ATOM      9  C   UNL     1       8.625  -3.265  24.046  0.00  0.00    +0.092 A 
ATOM     10  N   UNL     1       9.785  -2.553  24.019  0.00  0.00    -0.232 NA
ENDROOT
BRANCH   5  11
ATOM     11  C   UNL     1       4.651  -4.906  24.045  0.00  0.00    +0.142 A 
ATOM     12  N   UNL     1       3.837  -5.044  25.168  0.00  0.00    -0.327 N 
ATOM     13  C   UNL     1       4.112  -4.612  26.519  0.00  0.00    +0.151 C 
ATOM     14  C   UNL     1       2.645  -5.628  24.786  0.00  0.00    +0.069 A 
ATOM     15  C   UNL     1       2.776  -5.794  23.414  0.00  0.00    +0.090 A 
ATOM     16  C   UNL     1       1.722  -6.382  22.692  0.00  0.00    +0.030 A 
ATOM     17  C   UNL     1       0.558  -6.759  23.374  0.00  0.00    +0.002 A 
ATOM     18  C   UNL     1       0.443  -6.567  24.751  0.00  0.00    +0.002 A 
ATOM     19  C   UNL     1       1.487  -5.999  25.486  0.00  0.00    +0.028 A 
ATOM     20  N   UNL     1       3.999  -5.339  22.978  0.00  0.00    -0.228 NA
ENDBRANCH   5  11
BRANCH   1  21
ATOM     21  C   UNL     1      10.566  -0.395  23.133  0.00  0.00    +0.074 C 
BRANCH  21  23
ATOM     22  C   UNL     1      10.992   1.923  24.083  0.00  0.00    +0.004 C 
ATOM     23  C   UNL     1      10.721   0.459  24.398  0.00  0.00    +0.004 C 
ENDBRANCH  21  23
ENDBRANCH   1  21
BRANCH   2  24
ATOM     24  C   UNL     1       7.617  -0.461  21.999  0.00  0.00    +0.158 C 
BRANCH  24  25
ATOM     25  C   UNL     1       7.441   0.923  22.588  0.00  0.00    -0.028 A 
ATOM     26  C   UNL     1       7.232   1.060  23.969  0.00  0.00    +0.006 A 
ATOM     27  C   UNL     1       7.365   2.309  24.599  0.00  0.00    +0.009 A 
ATOM     28  C   UNL     1       7.796   3.434  23.880  0.00  0.00    -0.017 A 
ATOM     29  C   UNL     1       7.786   3.317  22.479  0.00  0.00    +0.009 A 
ATOM     30  C   UNL     1       7.589   2.090  21.841  0.00  0.00    +0.006 A 
BRANCH  28  31
ATOM     31  C   UNL     1       8.375   4.647  24.531  0.00  0.00    -0.004 A 
ATOM     32  C   UNL     1       7.962   5.161  25.788  0.00  0.00    +0.067 A 
ATOM     33  C   UNL     1       8.598   6.286  26.356  0.00  0.00    +0.015 A 
ATOM     34  C   UNL     1       9.694   6.876  25.739  0.00  0.00    +0.001 A 
ATOM     35  C   UNL     1      10.149   6.366  24.533  0.00  0.00    +0.001 A 
ATOM     36  C   UNL     1       9.484   5.291  23.931  0.00  0.00    +0.009 A 
BRANCH  32  37
ATOM     37  C   UNL     1       6.902   4.587  26.655  0.00  0.00    +0.337 C 
ATOM     38  O   UNL     1       5.716   4.839  26.498  0.00  0.00    -0.245 OA
BRANCH  37  39
ATOM     39  O   UNL     1       7.352   3.873  27.710  0.00  0.00    -0.477 OA
ATOM     40  H   UNL     1       6.880   4.038  28.549  0.00  0.00    +0.295 HD
ENDBRANCH  37  39
ENDBRANCH  32  37
ENDBRANCH  28  31
ENDBRANCH  24  25
ENDBRANCH   2  24
TORSDOF 8
ENDMDL
MODEL 4
REMARK VINA RESULT:      -7.2      2.628      6.387
REMARK  Name = 
REMARK  11 active torsions:
REMARK  status: ('A' for Active; 'I' for Inactive)
REMARK    1  A    between atoms: C_1  and  C_2
REMARK    2  A    between atoms: C_2  and  C_3
REMARK    3  A    between atoms: C_3  and  C_4
REMARK    4  A    between atoms: C_9  and  C_13
REMARK    5  A    between atoms: C_11  and  C_12
REMARK    6  A    between atoms: N_21  and  C_22
REMARK    7  A    between atoms: N_23  and  C_24
REMARK    8  A    between atoms: C_24  and  C_25
REMARK    9  A    between atoms: C_28  and  C_31
REMARK   10  A    between atoms: C_36  and  C_37
REMARK   11  A    between atoms: C_37  and  O_38
REMARK                            x       y       z     vdW  Elec       q    Type
REMARK                         _______ _______ _______ _____ _____    ______ ____
ROOT
ATOM      1  C   UNL     1       9.137  -1.926  23.204  0.00  0.00    +0.111 A 
ATOM      2  N   UNL     1       7.817  -1.804  23.610  0.00  0.00    -0.323 N 
ATOM      3  C   UNL     1       7.581  -2.777  24.578  0.00  0.00    +0.070 A 
ATOM      4  C   UNL     1       6.489  -3.117  25.411  0.00  0.00    +0.039 A 
ATOM      5  C   UNL     1       6.629  -4.220  26.292  0.00  0.00    +0.020 A 
ATOM      6  C   UNL     1       7.809  -4.976  26.241  0.00  0.00    +0.017 A 
ATOM      7  C   UNL     1       8.914  -4.614  25.451  0.00  0.00    -0.022 A 
ATOM      8  C   UNL     1      10.180  -5.413  25.478  0.00  0.00    +0.046 C 
ATOM      9  C   UNL     1       8.776  -3.486  24.629  0.00  0.00    +0.092 A 
ATOM     10  N   UNL     1       9.714  -2.943  23.805  0.00  0.00    -0.232 NA
ENDROOT
BRANCH   5  11
ATOM     11  C   UNL     1       5.528  -4.576  27.227  0.00  0.00    +0.142 A 
ATOM     12  N   UNL     1       4.631  -5.635  27.103  0.00  0.00    -0.327 N 
ATOM     13  C   UNL     1       4.614  -6.667  26.091  0.00  0.00    +0.151 C 
ATOM     14  C   UNL     1       3.748  -5.598  28.164  0.00  0.00    +0.069 A 
ATOM     15  C   UNL     1       4.175  -4.516  28.919  0.00  0.00    +0.090 A 
ATOM     16  C   UNL     1       3.477  -4.183  30.094  0.00  0.00    +0.030 A 
ATOM     17  C   UNL     1       2.386  -4.971  30.483  0.00  0.00    +0.002 A 
ATOM     18  C   UNL     1       1.985  -6.065  29.716  0.00  0.00    +0.002 A 
ATOM     19  C   UNL     1       2.658  -6.399  28.538  0.00  0.00    +0.028 A 
ATOM     20  N   UNL     1       5.266  -3.911  28.340  0.00  0.00    -0.228 NA
ENDBRANCH   5  11
BRANCH   1  21
ATOM     21  C   UNL     1       9.878  -1.045  22.248  0.00  0.00    +0.074 C 
BRANCH  21  23
ATOM     22  C   UNL     1      10.136   1.478  22.097  0.00  0.00    +0.004 C 
ATOM     23  C   UNL     1      10.352   0.235  22.948  0.00  0.00    +0.004 C 
ENDBRANCH  21  23
ENDBRANCH   1  21
BRANCH   2  24
ATOM     24  C   UNL     1       6.829  -0.875  23.061  0.00  0.00    +0.158 C 
BRANCH  24  25
ATOM     25  C   UNL     1       6.890   0.534  23.613  0.00  0.00    -0.028 A 
ATOM     26  C   UNL     1       7.391   0.743  24.906  0.00  0.00    +0.006 A 
ATOM     27  C   UNL     1       7.749   2.031  25.342  0.00  0.00    +0.009 A 
ATOM     28  C   UNL     1       7.695   3.126  24.468  0.00  0.00    -0.017 A 
ATOM     29  C   UNL     1       6.994   2.928  23.266  0.00  0.00    +0.009 A 
ATOM     30  C   UNL     1       6.577   1.660  22.854  0.00  0.00    +0.006 A 
BRANCH  28  31
ATOM     31  C   UNL     1       8.450   4.394  24.699  0.00  0.00    -0.004 A 
ATOM     32  C   UNL     1       8.185   5.308  25.753  0.00  0.00    +0.067 A 
ATOM     33  C   UNL     1       8.980   6.460  25.931  0.00  0.00    +0.015 A 
ATOM     34  C   UNL     1      10.090   6.695  25.128  0.00  0.00    +0.001 A 
ATOM     35  C   UNL     1      10.401   5.795  24.121  0.00  0.00    +0.001 A 
ATOM     36  C   UNL     1       9.580   4.683  23.896  0.00  0.00    +0.009 A 
BRANCH  32  37
ATOM     37  C   UNL     1       7.130   5.159  26.787  0.00  0.00    +0.337 C 
ATOM     38  O   UNL     1       5.940   5.277  26.534  0.00  0.00    -0.245 OA
BRANCH  37  39
ATOM     39  O   UNL     1       7.586   5.015  28.050  0.00  0.00    -0.477 OA
ATOM     40  H   UNL     1       6.989   5.358  28.744  0.00  0.00    +0.295 HD
ENDBRANCH  37  39
ENDBRANCH  32  37
ENDBRANCH  28  31
ENDBRANCH  24  25
ENDBRANCH   2  24
TORSDOF 8
ENDMDL
MODEL 5
REMARK VINA RESULT:      -7.0      3.004      6.869
REMARK  Name = 
REMARK  11 active torsions:
REMARK  status: ('A' for Active; 'I' for Inactive)
REMARK    1  A    between atoms: C_1  and  C_2
REMARK    2  A    between atoms: C_2  and  C_3
REMARK    3  A    between atoms: C_3  and  C_4
REMARK    4  A    between atoms: C_9  and  C_13
REMARK    5  A    between atoms: C_11  and  C_12
REMARK    6  A    between atoms: N_21  and  C_22
REMARK    7  A    between atoms: N_23  and  C_24
REMARK    8  A    between atoms: C_24  and  C_25
REMARK    9  A    between atoms: C_28  and  C_31
REMARK   10  A    between atoms: C_36  and  C_37
REMARK   11  A    between atoms: C_37  and  O_38
REMARK                            x       y       z     vdW  Elec       q    Type
REMARK                         _______ _______ _______ _____ _____    ______ ____
ROOT
ATOM      1  C   UNL     1       8.853  -2.070  22.855  0.00  0.00    +0.111 A 
ATOM      2  N   UNL     1       8.280  -2.027  24.116  0.00  0.00    -0.323 N 
ATOM      3  C   UNL     1       7.372  -3.080  24.203  0.00  0.00    +0.070 A 
ATOM      4  C   UNL     1       6.544  -3.606  25.223  0.00  0.00    +0.039 A 
ATOM      5  C   UNL     1       5.720  -4.719  24.916  0.00  0.00    +0.020 A 
ATOM      6  C   UNL     1       5.697  -5.196  23.597  0.00  0.00    +0.017 A 
ATOM      7  C   UNL     1       6.551  -4.707  22.594  0.00  0.00    -0.022 A 
ATOM      8  C   UNL     1       6.540  -5.291  21.215  0.00  0.00    +0.046 C 
ATOM      9  C   UNL     1       7.400  -3.644  22.933  0.00  0.00    +0.092 A 
ATOM     10  N   UNL     1       8.320  -3.033  22.136  0.00  0.00    -0.232 NA
ENDROOT
BRANCH   5  11
ATOM     11  C   UNL     1       4.878  -5.342  25.973  0.00  0.00    +0.142 A 
ATOM     12  N   UNL     1       5.294  -5.780  27.228  0.00  0.00    -0.327 N 
ATOM     13  C   UNL     1       6.607  -5.656  27.818  0.00  0.00    +0.151 C 
ATOM     14  C   UNL     1       4.212  -6.323  27.892  0.00  0.00    +0.069 A 
ATOM     15  C   UNL     1       3.157  -6.161  27.005  0.00  0.00    +0.090 A 
ATOM     16  C   UNL     1       1.879  -6.622  27.370  0.00  0.00    +0.030 A 
ATOM     17  C   UNL     1       1.702  -7.209  28.630  0.00  0.00    +0.002 A 
ATOM     18  C   UNL     1       2.775  -7.346  29.511  0.00  0.00    +0.002 A 
ATOM     19  C   UNL     1       4.053  -6.908  29.158  0.00  0.00    +0.028 A 
ATOM     20  N   UNL     1       3.578  -5.553  25.846  0.00  0.00    -0.228 NA
ENDBRANCH   5  11
BRANCH   1  21
ATOM     21  C   UNL     1       9.950  -1.200  22.326  0.00  0.00    +0.074 C 
BRANCH  21  23
ATOM     22  C   UNL     1       9.859   1.300  21.881  0.00  0.00    +0.004 C 
ATOM     23  C   UNL     1       9.377  -0.078  21.450  0.00  0.00    +0.004 C 
ENDBRANCH  21  23
ENDBRANCH   1  21
BRANCH   2  24
ATOM     24  C   UNL     1       8.525  -1.012  25.141  0.00  0.00    +0.158 C 
BRANCH  24  25
ATOM     25  C   UNL     1       7.840   0.319  24.908  0.00  0.00    -0.028 A 
ATOM     26  C   UNL     1       8.257   1.443  25.636  0.00  0.00    +0.006 A 
ATOM     27  C   UNL     1       7.873   2.738  25.248  0.00  0.00    +0.009 A 
ATOM     28  C   UNL     1       7.135   2.948  24.074  0.00  0.00    -0.017 A 
ATOM     29  C   UNL     1       6.555   1.807  23.493  0.00  0.00    +0.009 A 
ATOM     30  C   UNL     1       6.881   0.515  23.916  0.00  0.00    +0.006 A 
BRANCH  28  31
ATOM     31  C   UNL     1       7.070   4.265  23.374  0.00  0.00    -0.004 A 
ATOM     32  C   UNL     1       5.876   4.866  22.899  0.00  0.00    +0.067 A 
ATOM     33  C   UNL     1       5.896   6.140  22.290  0.00  0.00    +0.015 A 
ATOM     34  C   UNL     1       7.072   6.874  22.208  0.00  0.00    +0.001 A 
ATOM     35  C   UNL     1       8.246   6.332  22.707  0.00  0.00    +0.001 A 
ATOM     36  C   UNL     1       8.247   5.043  23.253  0.00  0.00    +0.009 A 
BRANCH  32  37
ATOM     37  C   UNL     1       4.510   4.295  23.016  0.00  0.00    +0.337 C 
ATOM     38  O   UNL     1       3.902   4.255  24.076  0.00  0.00    -0.245 OA
BRANCH  37  39
ATOM     39  O   UNL     1       4.040   3.706  21.895  0.00  0.00    -0.477 OA
ATOM     40  H   UNL     1       4.529   3.927  21.078  0.00  0.00    +0.295 HD
ENDBRANCH  37  39
ENDBRANCH  32  37
ENDBRANCH  28  31
ENDBRANCH  24  25
ENDBRANCH   2  24
TORSDOF 8
ENDMDL
MODEL 6
REMARK VINA RESULT:      -6.8      2.892      7.059
REMARK  Name = 
REMARK  11 active torsions:
REMARK  status: ('A' for Active; 'I' for Inactive)
REMARK    1  A    between atoms: C_1  and  C_2
REMARK    2  A    between atoms: C_2  and  C_3
REMARK    3  A    between atoms: C_3  and  C_4
REMARK    4  A    between atoms: C_9  and  C_13
REMARK    5  A    between atoms: C_11  and  C_12
REMARK    6  A    between atoms: N_21  and  C_22
REMARK    7  A    between atoms: N_23  and  C_24
REMARK    8  A    between atoms: C_24  and  C_25
REMARK    9  A    between atoms: C_28  and  C_31
REMARK   10  A    between atoms: C_36  and  C_37
REMARK   11  A    between atoms: C_37  and  O_38
REMARK                            x       y       z     vdW  Elec       q    Type
REMARK                         _______ _______ _______ _____ _____    ______ ____
ROOT
ATOM      1  C   UNL     1       8.998  -2.218  23.286  0.00  0.00    +0.111 A 
ATOM      2  N   UNL     1       8.266  -2.116  24.459  0.00  0.00    -0.323 N 
ATOM      3  C   UNL     1       7.415  -3.217  24.523  0.00  0.00    +0.070 A 
ATOM      4  C   UNL     1       6.495  -3.717  25.474  0.00  0.00    +0.039 A 
ATOM      5  C   UNL     1       5.781  -4.903  25.164  0.00  0.00    +0.020 A 
ATOM      6  C   UNL     1       5.954  -5.481  23.897  0.00  0.00    +0.017 A 
ATOM      7  C   UNL     1       6.900  -5.015  22.969  0.00  0.00    -0.022 A 
ATOM      8  C   UNL     1       7.099  -5.704  21.654  0.00  0.00    +0.046 C 
ATOM      9  C   UNL     1       7.638  -3.875  23.318  0.00  0.00    +0.092 A 
ATOM     10  N   UNL     1       8.616  -3.267  22.592  0.00  0.00    -0.232 NA
ENDROOT
BRANCH   5  11
ATOM     11  C   UNL     1       4.847  -5.497  26.158  0.00  0.00    +0.142 A 
ATOM     12  N   UNL     1       3.457  -5.544  26.081  0.00  0.00    -0.327 N 
ATOM     13  C   UNL     1       2.615  -5.103  24.992  0.00  0.00    +0.151 C 
ATOM     14  C   UNL     1       2.967  -6.152  27.220  0.00  0.00    +0.069 A 
ATOM     15  C   UNL     1       4.106  -6.485  27.940  0.00  0.00    +0.090 A 
ATOM     16  C   UNL     1       3.967  -7.127  29.184  0.00  0.00    +0.030 A 
ATOM     17  C   UNL     1       2.682  -7.437  29.648  0.00  0.00    +0.002 A 
ATOM     18  C   UNL     1       1.552  -7.107  28.899  0.00  0.00    +0.002 A 
ATOM     19  C   UNL     1       1.673  -6.455  27.669  0.00  0.00    +0.028 A 
ATOM     20  N   UNL     1       5.242  -6.088  27.274  0.00  0.00    -0.228 NA
ENDBRANCH   5  11
BRANCH   1  21
ATOM     21  C   UNL     1      10.102  -1.320  22.824  0.00  0.00    +0.074 C 
BRANCH  21  23
ATOM     22  C   UNL     1       9.886   1.004  21.819  0.00  0.00    +0.004 C 
ATOM     23  C   UNL     1       9.654  -0.487  21.616  0.00  0.00    +0.004 C 
ENDBRANCH  21  23
ENDBRANCH   1  21
BRANCH   2  24
ATOM     24  C   UNL     1       8.320  -1.010  25.415  0.00  0.00    +0.158 C 
BRANCH  24  25
ATOM     25  C   UNL     1       7.975   0.351  24.849  0.00  0.00    -0.028 A 
ATOM     26  C   UNL     1       6.824   0.495  24.060  0.00  0.00    +0.006 A 
ATOM     27  C   UNL     1       6.301   1.768  23.770  0.00  0.00    +0.009 A 
ATOM     28  C   UNL     1       6.867   2.922  24.332  0.00  0.00    -0.017 A 
ATOM     29  C   UNL     1       8.130   2.767  24.930  0.00  0.00    +0.009 A 
ATOM     30  C   UNL     1       8.687   1.507  25.164  0.00  0.00    +0.006 A 
BRANCH  28  31
ATOM     31  C   UNL     1       6.138   4.221  24.438  0.00  0.00    -0.004 A 
ATOM     32  C   UNL     1       6.509   5.409  23.756  0.00  0.00    +0.067 A 
ATOM     33  C   UNL     1       5.735   6.584  23.872  0.00  0.00    +0.015 A 
ATOM     34  C   UNL     1       4.548   6.590  24.594  0.00  0.00    +0.001 A 
ATOM     35  C   UNL     1       4.136   5.430  25.231  0.00  0.00    +0.001 A 
ATOM     36  C   UNL     1       4.931   4.279  25.175  0.00  0.00    +0.009 A 
BRANCH  32  37
ATOM     37  C   UNL     1       7.666   5.559  22.837  0.00  0.00    +0.337 C 
ATOM     38  O   UNL     1       8.800   5.779  23.237  0.00  0.00    -0.245 OA
BRANCH  37  39
ATOM     39  O   UNL     1       7.353   5.566  21.523  0.00  0.00    -0.477 OA
ATOM     40  H   UNL     1       7.864   4.938  20.976  0.00  0.00    +0.295 HD
ENDBRANCH  37  39
ENDBRANCH  32  37
ENDBRANCH  28  31
ENDBRANCH  24  25
ENDBRANCH   2  24
TORSDOF 8
ENDMDL
MODEL 7
REMARK VINA RESULT:      -6.7      2.965      6.246
REMARK  Name = 
REMARK  11 active torsions:
REMARK  status: ('A' for Active; 'I' for Inactive)
REMARK    1  A    between atoms: C_1  and  C_2
REMARK    2  A    between atoms: C_2  and  C_3
REMARK    3  A    between atoms: C_3  and  C_4
REMARK    4  A    between atoms: C_9  and  C_13
REMARK    5  A    between atoms: C_11  and  C_12
REMARK    6  A    between atoms: N_21  and  C_22
REMARK    7  A    between atoms: N_23  and  C_24
REMARK    8  A    between atoms: C_24  and  C_25
REMARK    9  A    between atoms: C_28  and  C_31
REMARK   10  A    between atoms: C_36  and  C_37
REMARK   11  A    between atoms: C_37  and  O_38
REMARK                            x       y       z     vdW  Elec       q    Type
REMARK                         _______ _______ _______ _____ _____    ______ ____
ROOT
ATOM      1  C   UNL     1       9.121  -1.724  22.631  0.00  0.00    +0.111 A 
ATOM      2  N   UNL     1       8.966  -1.709  24.009  0.00  0.00    -0.323 N 
ATOM      3  C   UNL     1       7.840  -2.468  24.316  0.00  0.00    +0.070 A 
ATOM      4  C   UNL     1       7.211  -2.887  25.512  0.00  0.00    +0.039 A 
ATOM      5  C   UNL     1       6.031  -3.669  25.416  0.00  0.00    +0.020 A 
ATOM      6  C   UNL     1       5.492  -3.921  24.146  0.00  0.00    +0.017 A 
ATOM      7  C   UNL     1       6.139  -3.548  22.955  0.00  0.00    -0.022 A 
ATOM      8  C   UNL     1       5.561  -3.897  21.618  0.00  0.00    +0.046 C 
ATOM      9  C   UNL     1       7.335  -2.825  23.071  0.00  0.00    +0.092 A 
ATOM     10  N   UNL     1       8.136  -2.384  22.063  0.00  0.00    -0.232 NA
ENDROOT
BRANCH   5  11
ATOM     11  C   UNL     1       5.369  -4.181  26.646  0.00  0.00    +0.142 A 
ATOM     12  N   UNL     1       5.894  -5.084  27.568  0.00  0.00    -0.327 N 
ATOM     13  C   UNL     1       7.219  -5.662  27.585  0.00  0.00    +0.151 C 
ATOM     14  C   UNL     1       4.950  -5.321  28.548  0.00  0.00    +0.069 A 
ATOM     15  C   UNL     1       3.883  -4.511  28.189  0.00  0.00    +0.090 A 
ATOM     16  C   UNL     1       2.724  -4.513  28.986  0.00  0.00    +0.030 A 
ATOM     17  C   UNL     1       2.690  -5.313  30.135  0.00  0.00    +0.002 A 
ATOM     18  C   UNL     1       3.783  -6.107  30.485  0.00  0.00    +0.002 A 
ATOM     19  C   UNL     1       4.936  -6.128  29.695  0.00  0.00    +0.028 A 
ATOM     20  N   UNL     1       4.158  -3.816  27.035  0.00  0.00    -0.228 NA
ENDBRANCH   5  11
BRANCH   1  21
ATOM     21  C   UNL     1      10.239  -1.126  21.836  0.00  0.00    +0.074 C 
BRANCH  21  23
ATOM     22  C   UNL     1       8.554   0.714  21.353  0.00  0.00    +0.004 C 
ATOM     23  C   UNL     1      10.012   0.378  21.629  0.00  0.00    +0.004 C 
ENDBRANCH  21  23
ENDBRANCH   1  21
BRANCH   2  24
ATOM     24  C   UNL     1       9.791  -0.963  24.961  0.00  0.00    +0.158 C 
BRANCH  24  25
ATOM     25  C   UNL     1       9.523   0.526  25.019  0.00  0.00    -0.028 A 
ATOM     26  C   UNL     1      10.482   1.416  24.514  0.00  0.00    +0.006 A 
ATOM     27  C   UNL     1      10.160   2.762  24.268  0.00  0.00    +0.009 A 
ATOM     28  C   UNL     1       8.849   3.230  24.440  0.00  0.00    -0.017 A 
ATOM     29  C   UNL     1       7.975   2.384  25.144  0.00  0.00    +0.009 A 
ATOM     30  C   UNL     1       8.312   1.063  25.450  0.00  0.00    +0.006 A 
BRANCH  28  31
ATOM     31  C   UNL     1       8.336   4.479  23.801  0.00  0.00    -0.004 A 
ATOM     32  C   UNL     1       8.729   5.792  24.172  0.00  0.00    +0.067 A 
ATOM     33  C   UNL     1       8.233   6.919  23.482  0.00  0.00    +0.015 A 
ATOM     34  C   UNL     1       7.409   6.774  22.373  0.00  0.00    +0.001 A 
ATOM     35  C   UNL     1       7.047   5.501  21.959  0.00  0.00    +0.001 A 
ATOM     36  C   UNL     1       7.482   4.381  22.677  0.00  0.00    +0.009 A 
BRANCH  32  37
ATOM     37  C   UNL     1       9.700   6.140  25.240  0.00  0.00    +0.337 C 
ATOM     38  O   UNL     1       9.371   6.274  26.410  0.00  0.00    -0.245 OA
BRANCH  37  39
ATOM     39  O   UNL     1      10.947   6.425  24.807  0.00  0.00    -0.477 OA
ATOM     40  H   UNL     1      11.128   7.376  24.673  0.00  0.00    +0.295 HD
ENDBRANCH  37  39
ENDBRANCH  32  37
ENDBRANCH  28  31
ENDBRANCH  24  25
ENDBRANCH   2  24
TORSDOF 8
ENDMDL
MODEL 8
REMARK VINA RESULT:      -6.7      2.835      7.213
REMARK  Name = 
REMARK  11 active torsions:
REMARK  status: ('A' for Active; 'I' for Inactive)
REMARK    1  A    between atoms: C_1  and  C_2
REMARK    2  A    between atoms: C_2  and  C_3
REMARK    3  A    between atoms: C_3  and  C_4
REMARK    4  A    between atoms: C_9  and  C_13
REMARK    5  A    between atoms: C_11  and  C_12
REMARK    6  A    between atoms: N_21  and  C_22
REMARK    7  A    between atoms: N_23  and  C_24
REMARK    8  A    between atoms: C_24  and  C_25
REMARK    9  A    between atoms: C_28  and  C_31
REMARK   10  A    between atoms: C_36  and  C_37
REMARK   11  A    between atoms: C_37  and  O_38
REMARK                            x       y       z     vdW  Elec       q    Type
REMARK                         _______ _______ _______ _____ _____    ______ ____
ROOT
ATOM      1  C   UNL     1       4.439  -6.467  24.637  0.00  0.00    +0.111 A 
ATOM      2  N   UNL     1       4.991  -5.417  25.355  0.00  0.00    -0.323 N 
ATOM      3  C   UNL     1       5.718  -4.632  24.464  0.00  0.00    +0.070 A 
ATOM      4  C   UNL     1       6.434  -3.416  24.557  0.00  0.00    +0.039 A 
ATOM      5  C   UNL     1       7.076  -2.919  23.393  0.00  0.00    +0.020 A 
ATOM      6  C   UNL     1       7.045  -3.696  22.225  0.00  0.00    +0.017 A 
ATOM      7  C   UNL     1       6.296  -4.880  22.116  0.00  0.00    -0.022 A 
ATOM      8  C   UNL     1       6.237  -5.642  20.828  0.00  0.00    +0.046 C 
ATOM      9  C   UNL     1       5.621  -5.323  23.262  0.00  0.00    +0.092 A 
ATOM     10  N   UNL     1       4.824  -6.421  23.381  0.00  0.00    -0.232 NA
ENDROOT
BRANCH   5  11
ATOM     11  C   UNL     1       7.791  -1.615  23.429  0.00  0.00    +0.142 A 
ATOM     12  N   UNL     1       9.156  -1.410  23.616  0.00  0.00    -0.327 N 
ATOM     13  C   UNL     1      10.193  -2.410  23.735  0.00  0.00    +0.151 C 
ATOM     14  C   UNL     1       9.408  -0.052  23.614  0.00  0.00    +0.069 A 
ATOM     15  C   UNL     1       8.164   0.520  23.390  0.00  0.00    +0.090 A 
ATOM     16  C   UNL     1       8.055   1.921  23.335  0.00  0.00    +0.030 A 
ATOM     17  C   UNL     1       9.211   2.699  23.480  0.00  0.00    +0.002 A 
ATOM     18  C   UNL     1      10.454   2.100  23.689  0.00  0.00    +0.002 A 
ATOM     19  C   UNL     1      10.576   0.710  23.762  0.00  0.00    +0.028 A 
ATOM     20  N   UNL     1       7.192  -0.446  23.269  0.00  0.00    -0.228 NA
ENDBRANCH   5  11
BRANCH   1  21
ATOM     21  C   UNL     1       3.503  -7.520  25.142  0.00  0.00    +0.074 C 
BRANCH  21  23
ATOM     22  C   UNL     1       1.521  -6.878  26.596  0.00  0.00    +0.004 C 
ATOM     23  C   UNL     1       2.063  -6.992  25.178  0.00  0.00    +0.004 C 
ENDBRANCH  21  23
ENDBRANCH   1  21
BRANCH   2  24
ATOM     24  C   UNL     1       4.894  -5.218  26.802  0.00  0.00    +0.158 C 
BRANCH  24  25
ATOM     25  C   UNL     1       4.159  -3.967  27.233  0.00  0.00    -0.028 A 
ATOM     26  C   UNL     1       4.643  -3.227  28.322  0.00  0.00    +0.006 A 
ATOM     27  C   UNL     1       4.186  -1.920  28.568  0.00  0.00    +0.009 A 
ATOM     28  C   UNL     1       3.300  -1.290  27.681  0.00  0.00    -0.017 A 
ATOM     29  C   UNL     1       2.674  -2.119  26.735  0.00  0.00    +0.009 A 
ATOM     30  C   UNL     1       3.078  -3.441  26.528  0.00  0.00    +0.006 A 
BRANCH  28  31
ATOM     31  C   UNL     1       3.120   0.191  27.621  0.00  0.00    -0.004 A 
ATOM     32  C   UNL     1       3.950   1.073  26.881  0.00  0.00    +0.067 A 
ATOM     33  C   UNL     1       3.680   2.458  26.837  0.00  0.00    +0.015 A 
ATOM     34  C   UNL     1       2.552   2.987  27.452  0.00  0.00    +0.001 A 
ATOM     35  C   UNL     1       1.697   2.142  28.143  0.00  0.00    +0.001 A 
ATOM     36  C   UNL     1       1.993   0.777  28.246  0.00  0.00    +0.009 A 
BRANCH  32  37
ATOM     37  C   UNL     1       5.119   0.679  26.055  0.00  0.00    +0.337 C 
ATOM     38  O   UNL     1       6.198   0.378  26.544  0.00  0.00    -0.245 OA
BRANCH  37  39
ATOM     39  O   UNL     1       4.943   0.803  24.721  0.00  0.00    -0.477 OA
ATOM     40  H   UNL     1       4.120   0.404  24.377  0.00  0.00    +0.295 HD
ENDBRANCH  37  39
ENDBRANCH  32  37
ENDBRANCH  28  31
ENDBRANCH  24  25
ENDBRANCH   2  24
TORSDOF 8
ENDMDL
MODEL 9
REMARK VINA RESULT:      -6.7      3.873      8.151
REMARK  Name = 
REMARK  11 active torsions:
REMARK  status: ('A' for Active; 'I' for Inactive)
REMARK    1  A    between atoms: C_1  and  C_2
REMARK    2  A    between atoms: C_2  and  C_3
REMARK    3  A    between atoms: C_3  and  C_4
REMARK    4  A    between atoms: C_9  and  C_13
REMARK    5  A    between atoms: C_11  and  C_12
REMARK    6  A    between atoms: N_21  and  C_22
REMARK    7  A    between atoms: N_23  and  C_24
REMARK    8  A    between atoms: C_24  and  C_25
REMARK    9  A    between atoms: C_28  and  C_31
REMARK   10  A    between atoms: C_36  and  C_37
REMARK   11  A    between atoms: C_37  and  O_38
REMARK                            x       y       z     vdW  Elec       q    Type
REMARK                         _______ _______ _______ _____ _____    ______ ____
ROOT
ATOM      1  C   UNL     1       8.422  -3.402  23.906  0.00  0.00    +0.111 A 
ATOM      2  N   UNL     1       8.208  -2.625  25.035  0.00  0.00    -0.323 N 
ATOM      3  C   UNL     1       8.324  -1.290  24.658  0.00  0.00    +0.070 A 
ATOM      4  C   UNL     1       8.150  -0.047  25.310  0.00  0.00    +0.039 A 
ATOM      5  C   UNL     1       8.380   1.142  24.570  0.00  0.00    +0.020 A 
ATOM      6  C   UNL     1       8.850   1.034  23.253  0.00  0.00    +0.017 A 
ATOM      7  C   UNL     1       8.978  -0.196  22.587  0.00  0.00    -0.022 A 
ATOM      8  C   UNL     1       9.420  -0.260  21.157  0.00  0.00    +0.046 C 
ATOM      9  C   UNL     1       8.691  -1.358  23.318  0.00  0.00    +0.092 A 
ATOM     10  N   UNL     1       8.723  -2.645  22.875  0.00  0.00    -0.232 NA
ENDROOT
BRANCH   5  11
ATOM     11  C   UNL     1       8.152   2.471  25.198  0.00  0.00    +0.142 A 
ATOM     12  N   UNL     1       8.788   3.670  24.882  0.00  0.00    -0.327 N 
ATOM     13  C   UNL     1       9.746   3.911  23.827  0.00  0.00    +0.151 C 
ATOM     14  C   UNL     1       8.313   4.661  25.717  0.00  0.00    +0.069 A 
ATOM     15  C   UNL     1       7.366   4.016  26.500  0.00  0.00    +0.090 A 
ATOM     16  C   UNL     1       6.678   4.749  27.484  0.00  0.00    +0.030 A 
ATOM     17  C   UNL     1       6.948   6.116  27.628  0.00  0.00    +0.002 A 
ATOM     18  C   UNL     1       7.893   6.746  26.817  0.00  0.00    +0.002 A 
ATOM     19  C   UNL     1       8.597   6.029  25.846  0.00  0.00    +0.028 A 
ATOM     20  N   UNL     1       7.273   2.686  26.164  0.00  0.00    -0.228 NA
ENDBRANCH   5  11
BRANCH   1  21
ATOM     21  C   UNL     1       8.311  -4.890  23.793  0.00  0.00    +0.074 C 
BRANCH  21  23
ATOM     22  C   UNL     1       7.172  -5.881  21.749  0.00  0.00    +0.004 C 
ATOM     23  C   UNL     1       6.981  -5.285  23.136  0.00  0.00    +0.004 C 
ENDBRANCH  21  23
ENDBRANCH   1  21
BRANCH   2  24
ATOM     24  C   UNL     1       7.981  -3.123  26.392  0.00  0.00    +0.158 C 
BRANCH  24  25
ATOM     25  C   UNL     1       6.575  -3.605  26.678  0.00  0.00    -0.028 A 
ATOM     26  C   UNL     1       5.485  -2.900  26.145  0.00  0.00    +0.006 A 
ATOM     27  C   UNL     1       4.199  -3.466  26.123  0.00  0.00    +0.009 A 
ATOM     28  C   UNL     1       3.987  -4.784  26.554  0.00  0.00    -0.017 A 
ATOM     29  C   UNL     1       5.037  -5.379  27.274  0.00  0.00    +0.009 A 
ATOM     30  C   UNL     1       6.303  -4.792  27.356  0.00  0.00    +0.006 A 
BRANCH  28  31
ATOM     31  C   UNL     1       2.790  -5.589  26.165  0.00  0.00    -0.004 A 
ATOM     32  C   UNL     1       2.630  -6.238  24.913  0.00  0.00    +0.067 A 
ATOM     33  C   UNL     1       1.488  -7.023  24.644  0.00  0.00    +0.015 A 
ATOM     34  C   UNL     1       0.526  -7.245  25.621  0.00  0.00    +0.001 A 
ATOM     35  C   UNL     1       0.680  -6.662  26.869  0.00  0.00    +0.001 A 
ATOM     36  C   UNL     1       1.777  -5.829  27.123  0.00  0.00    +0.009 A 
BRANCH  32  37
ATOM     37  C   UNL     1       3.609  -6.227  23.797  0.00  0.00    +0.337 C 
ATOM     38  O   UNL     1       3.615  -5.359  22.936  0.00  0.00    -0.245 OA
BRANCH  37  39
ATOM     39  O   UNL     1       4.408  -7.314  23.727  0.00  0.00    -0.477 OA
ATOM     40  H   UNL     1       5.349  -7.146  23.928  0.00  0.00    +0.295 HD
ENDBRANCH  37  39
ENDBRANCH  32  37
ENDBRANCH  28  31
ENDBRANCH  24  25
ENDBRANCH   2  24
TORSDOF 8
ENDMDL
