MODEL 1
REMARK VINA RESULT:      -8.9      0.000      0.000
REMARK  Name = 
REMARK  7 active torsions:
REMARK  status: ('A' for Active; 'I' for Inactive)
REMARK    1  A    between atoms: O_1  and  C_2
REMARK    2  A    between atoms: C_2  and  C_4
REMARK    3  A    between atoms: C_5  and  C_9
REMARK    4  A    between atoms: N_11  and  C_12
REMARK    5  A    between atoms: C_16  and  C_20
REMARK    6  A    between atoms: C_24  and  O_25
REMARK    7  A    between atoms: O_25  and  C_26
REMARK                            x       y       z     vdW  Elec       q    Type
REMARK                         _______ _______ _______ _____ _____    ______ ____
ROOT
ATOM      1  C   UNL     1       9.144  -0.548  22.760  0.00  0.00    +0.105 A 
ATOM      2  C   UNL     1       9.208   0.427  21.766  0.00  0.00    +0.148 A 
ATOM      3  F   UNL     1       9.095   0.086  20.473  0.00  0.00    -0.203 F 
ATOM      4  C   UNL     1       9.475   1.764  22.076  0.00  0.00    +0.049 A 
ATOM      5  C   UNL     1       9.686   2.175  23.403  0.00  0.00    -0.012 A 
ATOM      6  C   UNL     1       9.669   1.169  24.391  0.00  0.00    +0.049 A 
ATOM      7  C   UNL     1       9.420  -0.166  24.066  0.00  0.00    +0.148 A 
ATOM      8  F   UNL     1       9.382  -1.079  25.051  0.00  0.00    -0.203 F 
ENDROOT
BRANCH   5   9
ATOM      9  C   UNL     1       9.952   3.594  23.758  0.00  0.00    -0.014 A 
ATOM     10  C   UNL     1      11.210   4.178  23.512  0.00  0.00    +0.054 A 
ATOM     11  C   UNL     1      11.432   5.546  23.683  0.00  0.00    +0.131 A 
ATOM     12  C   UNL     1      10.431   6.331  24.254  0.00  0.00    +0.046 A 
ATOM     13  C   UNL     1       9.203   5.768  24.586  0.00  0.00    +0.004 A 
ATOM     14  C   UNL     1       8.960   4.418  24.319  0.00  0.00    +0.009 A 
BRANCH  11  15
ATOM     15  O   UNL     1      12.585   6.204  23.378  0.00  0.00    -0.406 OA
BRANCH  15  16
ATOM     16  C   UNL     1      13.423   5.691  22.347  0.00  0.00    +0.575 C 
ATOM     17  F   UNL     1      14.294   4.810  22.885  0.00  0.00    -0.133 F 
ATOM     18  F   UNL     1      14.131   6.713  21.816  0.00  0.00    -0.133 F 
ATOM     19  F   UNL     1      12.765   5.083  21.336  0.00  0.00    -0.133 F 
ENDBRANCH  15  16
ENDBRANCH  11  15
ENDBRANCH   5   9
BRANCH   1  21
ATOM     20  C   UNL     1       7.451  -2.273  22.565  0.00  0.00    +0.245 C 
ATOM     21  N   UNL     1       8.784  -1.894  22.495  0.00  0.00    -0.277 N 
ATOM     22  H   UNL     1       9.479  -2.589  22.731  0.00  0.00    +0.155 HD
ATOM     23  O   UNL     1       6.547  -1.521  22.905  0.00  0.00    -0.270 OA
BRANCH  20  28
ATOM     24  C   UNL     1       7.764  -4.689  23.189  0.00  0.00    +0.044 C 
ATOM     25  C   UNL     1       7.385  -6.058  22.716  0.00  0.00    +0.043 C 
ATOM     26  C   UNL     1       6.768  -5.784  21.348  0.00  0.00    +0.010 C 
ATOM     27  C   UNL     1       6.309  -4.332  21.385  0.00  0.00    +0.041 C 
ATOM     28  C   UNL     1       7.200  -3.731  22.432  0.00  0.00    +0.025 C 
BRANCH  24  29
ATOM     29  C   UNL     1       8.534  -4.474  24.432  0.00  0.00    +0.333 C 
ATOM     30  O   UNL     1       9.711  -4.166  24.458  0.00  0.00    -0.245 OA
BRANCH  29  31
ATOM     31  O   UNL     1       7.773  -4.502  25.545  0.00  0.00    -0.477 OA
ATOM     32  H   UNL     1       7.098  -5.199  25.584  0.00  0.00    +0.295 HD
ENDBRANCH  29  31
ENDBRANCH  24  29
ENDBRANCH  20  28
ENDBRANCH   1  21
TORSDOF 7
ENDMDL
MODEL 2
REMARK VINA RESULT:      -7.6      3.192      9.604
REMARK  Name = 
REMARK  7 active torsions:
REMARK  status: ('A' for Active; 'I' for Inactive)
REMARK    1  A    between atoms: O_1  and  C_2
REMARK    2  A    between atoms: C_2  and  C_4
REMARK    3  A    between atoms: C_5  and  C_9
REMARK    4  A    between atoms: N_11  and  C_12
REMARK    5  A    between atoms: C_16  and  C_20
REMARK    6  A    between atoms: C_24  and  O_25
REMARK    7  A    between atoms: O_25  and  C_26
REMARK                            x       y       z     vdW  Elec       q    Type
REMARK                         _______ _______ _______ _____ _____    ______ ____
ROOT
ATOM      1  C   UNL     1       8.482   0.500  22.664  0.00  0.00    +0.105 A 
ATOM      2  C   UNL     1       9.157  -0.567  22.073  0.00  0.00    +0.148 A 
ATOM      3  F   UNL     1      10.278  -0.353  21.367  0.00  0.00    -0.203 F 
ATOM      4  C   UNL     1       8.646  -1.867  22.123  0.00  0.00    +0.049 A 
ATOM      5  C   UNL     1       7.433  -2.147  22.774  0.00  0.00    -0.012 A 
ATOM      6  C   UNL     1       6.737  -1.050  23.324  0.00  0.00    +0.049 A 
ATOM      7  C   UNL     1       7.249   0.247  23.250  0.00  0.00    +0.148 A 
ATOM      8  F   UNL     1       6.562   1.251  23.819  0.00  0.00    -0.203 F 
ENDROOT
BRANCH   5   9
ATOM      9  C   UNL     1       6.879  -3.524  22.858  0.00  0.00    -0.014 A 
ATOM     10  C   UNL     1       6.195  -3.960  24.010  0.00  0.00    +0.054 A 
ATOM     11  C   UNL     1       5.526  -5.185  24.048  0.00  0.00    +0.131 A 
ATOM     12  C   UNL     1       5.661  -6.068  22.977  0.00  0.00    +0.046 A 
ATOM     13  C   UNL     1       6.400  -5.701  21.856  0.00  0.00    +0.004 A 
ATOM     14  C   UNL     1       6.983  -4.434  21.790  0.00  0.00    +0.009 A 
BRANCH  11  15
ATOM     15  O   UNL     1       4.764  -5.637  25.082  0.00  0.00    -0.406 OA
BRANCH  15  16
ATOM     16  C   UNL     1       5.400  -5.998  26.305  0.00  0.00    +0.575 C 
ATOM     17  F   UNL     1       4.938  -7.204  26.702  0.00  0.00    -0.133 F 
ATOM     18  F   UNL     1       5.069  -5.089  27.250  0.00  0.00    -0.133 F 
ATOM     19  F   UNL     1       6.748  -6.052  26.246  0.00  0.00    -0.133 F 
ENDBRANCH  15  16
ENDBRANCH  11  15
ENDBRANCH   5   9
BRANCH   1  21
ATOM     20  C   UNL     1       9.997   2.119  23.646  0.00  0.00    +0.245 C 
ATOM     21  N   UNL     1       9.016   1.814  22.715  0.00  0.00    -0.277 N 
ATOM     22  H   UNL     1       8.383   2.554  22.444  0.00  0.00    +0.155 HD
ATOM     23  O   UNL     1      10.405   1.330  24.488  0.00  0.00    -0.270 OA
BRANCH  20  28
ATOM     24  C   UNL     1       9.541   4.553  24.086  0.00  0.00    +0.044 C 
ATOM     25  C   UNL     1      10.200   5.890  23.948  0.00  0.00    +0.043 C 
ATOM     26  C   UNL     1      11.449   5.569  23.132  0.00  0.00    +0.010 C 
ATOM     27  C   UNL     1      11.723   4.088  23.361  0.00  0.00    +0.041 C 
ATOM     28  C   UNL     1      10.369   3.555  23.727  0.00  0.00    +0.025 C 
BRANCH  24  29
ATOM     29  C   UNL     1       8.204   4.397  24.695  0.00  0.00    +0.333 C 
ATOM     30  O   UNL     1       7.984   4.498  25.887  0.00  0.00    -0.245 OA
BRANCH  29  31
ATOM     31  O   UNL     1       7.213   4.281  23.788  0.00  0.00    -0.477 OA
ATOM     32  H   UNL     1       6.523   3.628  23.990  0.00  0.00    +0.295 HD
ENDBRANCH  29  31
ENDBRANCH  24  29
ENDBRANCH  20  28
ENDBRANCH   1  21
TORSDOF 7
ENDMDL
MODEL 3
REMARK VINA RESULT:      -7.5      3.360      9.437
REMARK  Name = 
REMARK  7 active torsions:
REMARK  status: ('A' for Active; 'I' for Inactive)
REMARK    1  A    between atoms: O_1  and  C_2
REMARK    2  A    between atoms: C_2  and  C_4
REMARK    3  A    between atoms: C_5  and  C_9
REMARK    4  A    between atoms: N_11  and  C_12
REMARK    5  A    between atoms: C_16  and  C_20
REMARK    6  A    between atoms: C_24  and  O_25
REMARK    7  A    between atoms: O_25  and  C_26
REMARK                            x       y       z     vdW  Elec       q    Type
REMARK                         _______ _______ _______ _____ _____    ______ ____
ROOT
ATOM      1  C   UNL     1       8.639   1.067  24.900  0.00  0.00    +0.105 A 
ATOM      2  C   UNL     1       7.258   0.945  24.760  0.00  0.00    +0.148 A 
ATOM      3  F   UNL     1       6.476   2.036  24.774  0.00  0.00    -0.203 F 
ATOM      4  C   UNL     1       6.642  -0.307  24.689  0.00  0.00    +0.049 A 
ATOM      5  C   UNL     1       7.394  -1.493  24.753  0.00  0.00    -0.012 A 
ATOM      6  C   UNL     1       8.784  -1.354  24.945  0.00  0.00    +0.049 A 
ATOM      7  C   UNL     1       9.385  -0.097  25.034  0.00  0.00    +0.148 A 
ATOM      8  F   UNL     1      10.718  -0.021  25.185  0.00  0.00    -0.203 F 
ENDROOT
BRANCH   5   9
ATOM      9  C   UNL     1       6.764  -2.836  24.659  0.00  0.00    -0.014 A 
ATOM     10  C   UNL     1       6.235  -3.303  23.439  0.00  0.00    +0.054 A 
ATOM     11  C   UNL     1       5.789  -4.617  23.286  0.00  0.00    +0.131 A 
ATOM     12  C   UNL     1       5.725  -5.448  24.405  0.00  0.00    +0.046 A 
ATOM     13  C   UNL     1       6.164  -4.991  25.643  0.00  0.00    +0.004 A 
ATOM     14  C   UNL     1       6.698  -3.706  25.762  0.00  0.00    +0.009 A 
BRANCH  11  15
ATOM     15  O   UNL     1       5.355  -5.174  22.122  0.00  0.00    -0.406 OA
BRANCH  15  16
ATOM     16  C   UNL     1       6.282  -5.880  21.303  0.00  0.00    +0.575 C 
ATOM     17  F   UNL     1       6.438  -7.129  21.793  0.00  0.00    -0.133 F 
ATOM     18  F   UNL     1       7.478  -5.252  21.361  0.00  0.00    -0.133 F 
ATOM     19  F   UNL     1       5.930  -5.969  20.002  0.00  0.00    -0.133 F 
ENDBRANCH  15  16
ENDBRANCH  11  15
ENDBRANCH   5   9
BRANCH   1  21
ATOM     20  C   UNL     1       9.622   2.908  23.666  0.00  0.00    +0.245 C 
ATOM     21  N   UNL     1       9.307   2.318  24.881  0.00  0.00    -0.277 N 
ATOM     22  H   UNL     1       9.925   2.496  25.660  0.00  0.00    +0.155 HD
ATOM     23  O   UNL     1       9.411   2.384  22.580  0.00  0.00    -0.270 OA
BRANCH  20  28
ATOM     24  C   UNL     1      10.030   5.344  24.139  0.00  0.00    +0.044 C 
ATOM     25  C   UNL     1      11.104   6.378  24.003  0.00  0.00    +0.043 C 
ATOM     26  C   UNL     1      12.156   5.664  23.160  0.00  0.00    +0.010 C 
ATOM     27  C   UNL     1      11.912   4.175  23.368  0.00  0.00    +0.041 C 
ATOM     28  C   UNL     1      10.462   4.130  23.754  0.00  0.00    +0.025 C 
BRANCH  24  29
ATOM     29  C   UNL     1       8.729   5.644  24.772  0.00  0.00    +0.333 C 
ATOM     30  O   UNL     1       7.782   6.128  24.183  0.00  0.00    -0.245 OA
BRANCH  29  31
ATOM     31  O   UNL     1       8.633   5.189  26.038  0.00  0.00    -0.477 OA
ATOM     32  H   UNL     1       9.252   5.574  26.679  0.00  0.00    +0.295 HD
ENDBRANCH  29  31
ENDBRANCH  24  29
ENDBRANCH  20  28
ENDBRANCH   1  21
TORSDOF 7
ENDMDL
MODEL 4
REMARK VINA RESULT:      -7.5      3.618      9.909
REMARK  Name = 
REMARK  7 active torsions:
REMARK  status: ('A' for Active; 'I' for Inactive)
REMARK    1  A    between atoms: O_1  and  C_2
REMARK    2  A    between atoms: C_2  and  C_4
REMARK    3  A    between atoms: C_5  and  C_9
REMARK    4  A    between atoms: N_11  and  C_12
REMARK    5  A    between atoms: C_16  and  C_20
REMARK    6  A    between atoms: C_24  and  O_25
REMARK    7  A    between atoms: O_25  and  C_26
REMARK                            x       y       z     vdW  Elec       q    Type
REMARK                         _______ _______ _______ _____ _____    ______ ____
ROOT
ATOM      1  C   UNL     1       8.450   0.527  22.924  0.00  0.00    +0.105 A 
ATOM      2  C   UNL     1       7.300   0.205  23.643  0.00  0.00    +0.148 A 
ATOM      3  F   UNL     1       6.756   1.095  24.487  0.00  0.00    -0.203 F 
ATOM      4  C   UNL     1       6.734  -1.071  23.573  0.00  0.00    +0.049 A 
ATOM      5  C   UNL     1       7.301  -2.077  22.773  0.00  0.00    -0.012 A 
ATOM      6  C   UNL     1       8.492  -1.751  22.092  0.00  0.00    +0.049 A 
ATOM      7  C   UNL     1       9.059  -0.478  22.185  0.00  0.00    +0.148 A 
ATOM      8  F   UNL     1      10.177  -0.210  21.489  0.00  0.00    -0.203 F 
ENDROOT
BRANCH   5   9
ATOM      9  C   UNL     1       6.705  -3.434  22.667  0.00  0.00    -0.014 A 
ATOM     10  C   UNL     1       5.340  -3.649  22.942  0.00  0.00    +0.054 A 
ATOM     11  C   UNL     1       4.723  -4.876  22.691  0.00  0.00    +0.131 A 
ATOM     12  C   UNL     1       5.505  -5.963  22.301  0.00  0.00    +0.046 A 
ATOM     13  C   UNL     1       6.872  -5.805  22.099  0.00  0.00    +0.004 A 
ATOM     14  C   UNL     1       7.461  -4.548  22.259  0.00  0.00    +0.009 A 
BRANCH  11  15
ATOM     15  O   UNL     1       3.395  -5.137  22.838  0.00  0.00    -0.406 OA
BRANCH  15  16
ATOM     16  C   UNL     1       2.927  -5.678  24.069  0.00  0.00    +0.575 C 
ATOM     17  F   UNL     1       2.555  -6.962  23.871  0.00  0.00    -0.133 F 
ATOM     18  F   UNL     1       1.838  -4.981  24.464  0.00  0.00    -0.133 F 
ATOM     19  F   UNL     1       3.823  -5.641  25.078  0.00  0.00    -0.133 F 
ENDBRANCH  15  16
ENDBRANCH  11  15
ENDBRANCH   5   9
BRANCH   1  21
ATOM     20  C   UNL     1      10.053   2.154  23.739  0.00  0.00    +0.245 C 
ATOM     21  N   UNL     1       8.998   1.835  22.897  0.00  0.00    -0.277 N 
ATOM     22  H   UNL     1       8.353   2.575  22.656  0.00  0.00    +0.155 HD
ATOM     23  O   UNL     1      10.519   1.383  24.568  0.00  0.00    -0.270 OA
BRANCH  20  28
ATOM     24  C   UNL     1       9.629   4.612  24.060  0.00  0.00    +0.044 C 
ATOM     25  C   UNL     1      10.305   5.932  23.859  0.00  0.00    +0.043 C 
ATOM     26  C   UNL     1      11.549   5.556  23.059  0.00  0.00    +0.010 C 
ATOM     27  C   UNL     1      11.804   4.085  23.359  0.00  0.00    +0.041 C 
ATOM     28  C   UNL     1      10.443   3.587  23.750  0.00  0.00    +0.025 C 
BRANCH  24  29
ATOM     29  C   UNL     1       8.290   4.503  24.676  0.00  0.00    +0.333 C 
ATOM     30  O   UNL     1       7.276   4.241  24.057  0.00  0.00    -0.245 OA
BRANCH  29  31
ATOM     31  O   UNL     1       8.313   4.571  26.023  0.00  0.00    -0.477 OA
ATOM     32  H   UNL     1       7.449   4.589  26.465  0.00  0.00    +0.295 HD
ENDBRANCH  29  31
ENDBRANCH  24  29
ENDBRANCH  20  28
ENDBRANCH   1  21
TORSDOF 7
ENDMDL
MODEL 5
REMARK VINA RESULT:      -7.3      3.152      9.433
REMARK  Name = 
REMARK  7 active torsions:
REMARK  status: ('A' for Active; 'I' for Inactive)
REMARK    1  A    between atoms: O_1  and  C_2
REMARK    2  A    between atoms: C_2  and  C_4
REMARK    3  A    between atoms: C_5  and  C_9
REMARK    4  A    between atoms: N_11  and  C_12
REMARK    5  A    between atoms: C_16  and  C_20
REMARK    6  A    between atoms: C_24  and  O_25
REMARK    7  A    between atoms: O_25  and  C_26
REMARK                            x       y       z     vdW  Elec       q    Type
REMARK                         _______ _______ _______ _____ _____    ______ ____
ROOT
ATOM      1  C   UNL     1       9.153   0.705  24.592  0.00  0.00    +0.105 A 
ATOM      2  C   UNL     1       9.759  -0.398  23.994  0.00  0.00    +0.148 A 
ATOM      3  F   UNL     1      10.917  -0.258  23.330  0.00  0.00    -0.203 F 
ATOM      4  C   UNL     1       9.145  -1.653  23.993  0.00  0.00    +0.049 A 
ATOM      5  C   UNL     1       7.892  -1.851  24.598  0.00  0.00    -0.012 A 
ATOM      6  C   UNL     1       7.268  -0.715  25.154  0.00  0.00    +0.049 A 
ATOM      7  C   UNL     1       7.884   0.538  25.131  0.00  0.00    +0.148 A 
ATOM      8  F   UNL     1       7.261   1.580  25.705  0.00  0.00    -0.203 F 
ENDROOT
BRANCH   5   9
ATOM      9  C   UNL     1       7.228  -3.180  24.627  0.00  0.00    -0.014 A 
ATOM     10  C   UNL     1       6.514  -3.657  23.510  0.00  0.00    +0.054 A 
ATOM     11  C   UNL     1       6.024  -4.963  23.452  0.00  0.00    +0.131 A 
ATOM     12  C   UNL     1       6.111  -5.773  24.585  0.00  0.00    +0.046 A 
ATOM     13  C   UNL     1       6.738  -5.303  25.734  0.00  0.00    +0.004 A 
ATOM     14  C   UNL     1       7.310  -4.029  25.746  0.00  0.00    +0.009 A 
BRANCH  11  15
ATOM     15  O   UNL     1       5.410  -5.530  22.377  0.00  0.00    -0.406 OA
BRANCH  15  16
ATOM     16  C   UNL     1       6.112  -5.611  21.141  0.00  0.00    +0.575 C 
ATOM     17  F   UNL     1       5.602  -6.628  20.412  0.00  0.00    -0.133 F 
ATOM     18  F   UNL     1       7.411  -5.886  21.396  0.00  0.00    -0.133 F 
ATOM     19  F   UNL     1       6.073  -4.486  20.395  0.00  0.00    -0.133 F 
ENDBRANCH  15  16
ENDBRANCH  11  15
ENDBRANCH   5   9
BRANCH   1  21
ATOM     20  C   UNL     1       9.660   2.887  23.662  0.00  0.00    +0.245 C 
ATOM     21  N   UNL     1       9.787   1.970  24.695  0.00  0.00    -0.277 N 
ATOM     22  H   UNL     1      10.643   1.988  25.232  0.00  0.00    +0.155 HD
ATOM     23  O   UNL     1       9.071   2.653  22.614  0.00  0.00    -0.270 OA
BRANCH  20  28
ATOM     24  C   UNL     1      10.073   5.286  24.292  0.00  0.00    +0.044 C 
ATOM     25  C   UNL     1      11.129   6.341  24.173  0.00  0.00    +0.043 C 
ATOM     26  C   UNL     1      12.137   5.704  23.221  0.00  0.00    +0.010 C 
ATOM     27  C   UNL     1      11.917   4.201  23.331  0.00  0.00    +0.041 C 
ATOM     28  C   UNL     1      10.493   4.109  23.794  0.00  0.00    +0.025 C 
BRANCH  24  29
ATOM     29  C   UNL     1       8.808   5.521  25.018  0.00  0.00    +0.333 C 
ATOM     30  O   UNL     1       8.618   5.198  26.175  0.00  0.00    -0.245 OA
BRANCH  29  31
ATOM     31  O   UNL     1       7.925   6.269  24.325  0.00  0.00    -0.477 OA
ATOM     32  H   UNL     1       8.211   7.169  24.100  0.00  0.00    +0.295 HD
ENDBRANCH  29  31
ENDBRANCH  24  29
ENDBRANCH  20  28
ENDBRANCH   1  21
TORSDOF 7
ENDMDL
MODEL 6
REMARK VINA RESULT:      -7.3      2.875      9.408
REMARK  Name = 
REMARK  7 active torsions:
REMARK  status: ('A' for Active; 'I' for Inactive)
REMARK    1  A    between atoms: O_1  and  C_2
REMARK    2  A    between atoms: C_2  and  C_4
REMARK    3  A    between atoms: C_5  and  C_9
REMARK    4  A    between atoms: N_11  and  C_12
REMARK    5  A    between atoms: C_16  and  C_20
REMARK    6  A    between atoms: C_24  and  O_25
REMARK    7  A    between atoms: O_25  and  C_26
REMARK                            x       y       z     vdW  Elec       q    Type
REMARK                         _______ _______ _______ _____ _____    ______ ____
ROOT
ATOM      1  C   UNL     1       8.956   1.317  24.705  0.00  0.00    +0.105 A 
ATOM      2  C   UNL     1      10.036   0.459  24.505  0.00  0.00    +0.148 A 
ATOM      3  F   UNL     1      11.277   0.952  24.367  0.00  0.00    -0.203 F 
ATOM      4  C   UNL     1       9.852  -0.919  24.356  0.00  0.00    +0.049 A 
ATOM      5  C   UNL     1       8.570  -1.491  24.405  0.00  0.00    -0.012 A 
ATOM      6  C   UNL     1       7.483  -0.605  24.558  0.00  0.00    +0.049 A 
ATOM      7  C   UNL     1       7.679   0.771  24.686  0.00  0.00    +0.148 A 
ATOM      8  F   UNL     1       6.611   1.567  24.861  0.00  0.00    -0.203 F 
ENDROOT
BRANCH   5   9
ATOM      9  C   UNL     1       8.351  -2.955  24.270  0.00  0.00    -0.014 A 
ATOM     10  C   UNL     1       7.857  -3.505  23.070  0.00  0.00    +0.054 A 
ATOM     11  C   UNL     1       7.799  -4.884  22.862  0.00  0.00    +0.131 A 
ATOM     12  C   UNL     1       8.096  -5.745  23.919  0.00  0.00    +0.046 A 
ATOM     13  C   UNL     1       8.508  -5.231  25.145  0.00  0.00    +0.004 A 
ATOM     14  C   UNL     1       8.656  -3.852  25.310  0.00  0.00    +0.009 A 
BRANCH  11  15
ATOM     15  O   UNL     1       7.428  -5.494  21.703  0.00  0.00    -0.406 OA
BRANCH  15  16
ATOM     16  C   UNL     1       6.117  -5.270  21.192  0.00  0.00    +0.575 C 
ATOM     17  F   UNL     1       5.214  -5.563  22.153  0.00  0.00    -0.133 F 
ATOM     18  F   UNL     1       5.909  -6.106  20.150  0.00  0.00    -0.133 F 
ATOM     19  F   UNL     1       5.889  -4.012  20.757  0.00  0.00    -0.133 F 
ENDBRANCH  15  16
ENDBRANCH  11  15
ENDBRANCH   5   9
BRANCH   1  21
ATOM     20  C   UNL     1       8.858   3.615  23.938  0.00  0.00    +0.245 C 
ATOM     21  N   UNL     1       9.112   2.705  24.953  0.00  0.00    -0.277 N 
ATOM     22  H   UNL     1       9.815   2.951  25.636  0.00  0.00    +0.155 HD
ATOM     23  O   UNL     1       8.558   3.294  22.796  0.00  0.00    -0.270 OA
BRANCH  20  28
ATOM     24  C   UNL     1      10.430   5.571  24.112  0.00  0.00    +0.044 C 
ATOM     25  C   UNL     1      10.465   6.977  24.626  0.00  0.00    +0.043 C 
ATOM     26  C   UNL     1       9.156   7.085  25.404  0.00  0.00    +0.010 C 
ATOM     27  C   UNL     1       8.239   6.019  24.819  0.00  0.00    +0.041 C 
ATOM     28  C   UNL     1       9.208   5.025  24.250  0.00  0.00    +0.025 C 
BRANCH  24  29
ATOM     29  C   UNL     1      11.578   4.965  23.407  0.00  0.00    +0.333 C 
ATOM     30  O   UNL     1      11.968   3.828  23.593  0.00  0.00    -0.245 OA
BRANCH  29  31
ATOM     31  O   UNL     1      12.068   5.741  22.418  0.00  0.00    -0.477 OA
ATOM     32  H   UNL     1      11.421   6.283  21.939  0.00  0.00    +0.295 HD
ENDBRANCH  29  31
ENDBRANCH  24  29
ENDBRANCH  20  28
ENDBRANCH   1  21
TORSDOF 7
ENDMDL
MODEL 7
REMARK VINA RESULT:      -7.2      2.199      2.781
REMARK  Name = 
REMARK  7 active torsions:
REMARK  status: ('A' for Active; 'I' for Inactive)
REMARK    1  A    between atoms: O_1  and  C_2
REMARK    2  A    between atoms: C_2  and  C_4
REMARK    3  A    between atoms: C_5  and  C_9
REMARK    4  A    between atoms: N_11  and  C_12
REMARK    5  A    between atoms: C_16  and  C_20
REMARK    6  A    between atoms: C_24  and  O_25
REMARK    7  A    between atoms: O_25  and  C_26
REMARK                            x       y       z     vdW  Elec       q    Type
REMARK                         _______ _______ _______ _____ _____    ______ ____
ROOT
ATOM      1  C   UNL     1       7.457  -0.736  24.856  0.00  0.00    +0.105 A 
ATOM      2  C   UNL     1       6.541   0.286  25.099  0.00  0.00    +0.148 A 
ATOM      3  F   UNL     1       5.239   0.004  25.263  0.00  0.00    -0.203 F 
ATOM      4  C   UNL     1       6.930   1.628  25.094  0.00  0.00    +0.049 A 
ATOM      5  C   UNL     1       8.263   1.999  24.847  0.00  0.00    -0.012 A 
ATOM      6  C   UNL     1       9.168   0.958  24.552  0.00  0.00    +0.049 A 
ATOM      7  C   UNL     1       8.762  -0.378  24.541  0.00  0.00    +0.148 A 
ATOM      8  F   UNL     1       9.672  -1.333  24.287  0.00  0.00    -0.203 F 
ENDROOT
BRANCH   5   9
ATOM      9  C   UNL     1       8.705   3.417  24.856  0.00  0.00    -0.014 A 
ATOM     10  C   UNL     1       9.770   3.849  24.041  0.00  0.00    +0.054 A 
ATOM     11  C   UNL     1      10.095   5.201  23.909  0.00  0.00    +0.131 A 
ATOM     12  C   UNL     1       9.449   6.137  24.717  0.00  0.00    +0.046 A 
ATOM     13  C   UNL     1       8.448   5.733  25.594  0.00  0.00    +0.004 A 
ATOM     14  C   UNL     1       8.065   4.391  25.645  0.00  0.00    +0.009 A 
BRANCH  11  15
ATOM     15  O   UNL     1      11.042   5.708  23.073  0.00  0.00    -0.406 OA
BRANCH  15  16
ATOM     16  C   UNL     1      12.418   5.497  23.375  0.00  0.00    +0.575 C 
ATOM     17  F   UNL     1      12.709   6.106  24.546  0.00  0.00    -0.133 F 
ATOM     18  F   UNL     1      13.168   6.068  22.406  0.00  0.00    -0.133 F 
ATOM     19  F   UNL     1      12.783   4.200  23.463  0.00  0.00    -0.133 F 
ENDBRANCH  15  16
ENDBRANCH  11  15
ENDBRANCH   5   9
BRANCH   1  21
ATOM     20  C   UNL     1       6.546  -2.747  23.854  0.00  0.00    +0.245 C 
ATOM     21  N   UNL     1       7.119  -2.110  24.945  0.00  0.00    -0.277 N 
ATOM     22  H   UNL     1       6.861  -2.439  25.866  0.00  0.00    +0.155 HD
ATOM     23  O   UNL     1       6.250  -2.178  22.812  0.00  0.00    -0.270 OA
BRANCH  20  28
ATOM     24  C   UNL     1       5.915  -5.081  23.163  0.00  0.00    +0.044 C 
ATOM     25  C   UNL     1       5.322  -6.331  23.737  0.00  0.00    +0.043 C 
ATOM     26  C   UNL     1       4.843  -5.876  25.113  0.00  0.00    +0.010 C 
ATOM     27  C   UNL     1       5.678  -4.649  25.456  0.00  0.00    +0.041 C 
ATOM     28  C   UNL     1       6.080  -4.135  24.105  0.00  0.00    +0.025 C 
BRANCH  24  29
ATOM     29  C   UNL     1       6.388  -5.009  21.765  0.00  0.00    +0.333 C 
ATOM     30  O   UNL     1       7.300  -5.680  21.321  0.00  0.00    -0.245 OA
BRANCH  29  31
ATOM     31  O   UNL     1       5.613  -4.235  20.978  0.00  0.00    -0.477 OA
ATOM     32  H   UNL     1       5.022  -3.615  21.436  0.00  0.00    +0.295 HD
ENDBRANCH  29  31
ENDBRANCH  24  29
ENDBRANCH  20  28
ENDBRANCH   1  21
TORSDOF 7
ENDMDL
MODEL 8
REMARK VINA RESULT:      -7.1      3.200      9.727
REMARK  Name = 
REMARK  7 active torsions:
REMARK  status: ('A' for Active; 'I' for Inactive)
REMARK    1  A    between atoms: O_1  and  C_2
REMARK    2  A    between atoms: C_2  and  C_4
REMARK    3  A    between atoms: C_5  and  C_9
REMARK    4  A    between atoms: N_11  and  C_12
REMARK    5  A    between atoms: C_16  and  C_20
REMARK    6  A    between atoms: C_24  and  O_25
REMARK    7  A    between atoms: O_25  and  C_26
REMARK                            x       y       z     vdW  Elec       q    Type
REMARK                         _______ _______ _______ _____ _____    ______ ____
ROOT
ATOM      1  C   UNL     1       8.885   1.308  23.666  0.00  0.00    +0.105 A 
ATOM      2  C   UNL     1       9.591   0.385  24.436  0.00  0.00    +0.148 A 
ATOM      3  F   UNL     1      10.649   0.776  25.164  0.00  0.00    -0.203 F 
ATOM      4  C   UNL     1       9.276  -0.976  24.408  0.00  0.00    +0.049 A 
ATOM      5  C   UNL     1       8.233  -1.466  23.603  0.00  0.00    -0.012 A 
ATOM      6  C   UNL     1       7.562  -0.527  22.792  0.00  0.00    +0.049 A 
ATOM      7  C   UNL     1       7.899   0.828  22.815  0.00  0.00    +0.148 A 
ATOM      8  F   UNL     1       7.206   1.685  22.047  0.00  0.00    -0.203 F 
ENDROOT
BRANCH   5   9
ATOM      9  C   UNL     1       7.867  -2.905  23.571  0.00  0.00    -0.014 A 
ATOM     10  C   UNL     1       7.833  -3.670  24.754  0.00  0.00    +0.054 A 
ATOM     11  C   UNL     1       7.335  -4.974  24.773  0.00  0.00    +0.131 A 
ATOM     12  C   UNL     1       7.001  -5.593  23.568  0.00  0.00    +0.046 A 
ATOM     13  C   UNL     1       7.101  -4.892  22.371  0.00  0.00    +0.004 A 
ATOM     14  C   UNL     1       7.508  -3.556  22.376  0.00  0.00    +0.009 A 
BRANCH  11  15
ATOM     15  O   UNL     1       7.178  -5.744  25.885  0.00  0.00    -0.406 OA
BRANCH  15  16
ATOM     16  C   UNL     1       5.892  -5.833  26.491  0.00  0.00    +0.575 C 
ATOM     17  F   UNL     1       6.041  -5.885  27.833  0.00  0.00    -0.133 F 
ATOM     18  F   UNL     1       5.301  -6.980  26.088  0.00  0.00    -0.133 F 
ATOM     19  F   UNL     1       5.056  -4.816  26.191  0.00  0.00    -0.133 F 
ENDBRANCH  15  16
ENDBRANCH  11  15
ENDBRANCH   5   9
BRANCH   1  21
ATOM     20  C   UNL     1       8.442   3.461  24.692  0.00  0.00    +0.245 C 
ATOM     21  N   UNL     1       9.114   2.706  23.741  0.00  0.00    -0.277 N 
ATOM     22  H   UNL     1       9.351   3.158  22.869  0.00  0.00    +0.155 HD
ATOM     23  O   UNL     1       7.600   3.003  25.452  0.00  0.00    -0.270 OA
BRANCH  20  28
ATOM     24  C   UNL     1       8.233   5.685  23.537  0.00  0.00    +0.044 C 
ATOM     25  C   UNL     1       8.676   7.107  23.691  0.00  0.00    +0.043 C 
ATOM     26  C   UNL     1       9.688   7.024  24.830  0.00  0.00    +0.010 C 
ATOM     27  C   UNL     1       9.334   5.763  25.607  0.00  0.00    +0.041 C 
ATOM     28  C   UNL     1       8.626   4.930  24.579  0.00  0.00    +0.025 C 
BRANCH  24  29
ATOM     29  C   UNL     1       7.342   5.256  22.440  0.00  0.00    +0.333 C 
ATOM     30  O   UNL     1       6.460   4.427  22.565  0.00  0.00    -0.245 OA
BRANCH  29  31
ATOM     31  O   UNL     1       7.494   5.981  21.313  0.00  0.00    -0.477 OA
ATOM     32  H   UNL     1       8.131   5.637  20.666  0.00  0.00    +0.295 HD
ENDBRANCH  29  31
ENDBRANCH  24  29
ENDBRANCH  20  28
ENDBRANCH   1  21
TORSDOF 7
ENDMDL
MODEL 9
REMARK VINA RESULT:      -7.0      3.071      9.761
REMARK  Name = 
REMARK  7 active torsions:
REMARK  status: ('A' for Active; 'I' for Inactive)
REMARK    1  A    between atoms: O_1  and  C_2
REMARK    2  A    between atoms: C_2  and  C_4
REMARK    3  A    between atoms: C_5  and  C_9
REMARK    4  A    between atoms: N_11  and  C_12
REMARK    5  A    between atoms: C_16  and  C_20
REMARK    6  A    between atoms: C_24  and  O_25
REMARK    7  A    between atoms: O_25  and  C_26
REMARK                            x       y       z     vdW  Elec       q    Type
REMARK                         _______ _______ _______ _____ _____    ______ ____
ROOT
ATOM      1  C   UNL     1       8.812   1.257  24.535  0.00  0.00    +0.105 A 
ATOM      2  C   UNL     1       9.750   0.349  24.047  0.00  0.00    +0.148 A 
ATOM      3  F   UNL     1      10.982   0.760  23.710  0.00  0.00    -0.203 F 
ATOM      4  C   UNL     1       9.413  -0.988  23.815  0.00  0.00    +0.049 A 
ATOM      5  C   UNL     1       8.116  -1.467  24.067  0.00  0.00    -0.012 A 
ATOM      6  C   UNL     1       7.166  -0.525  24.512  0.00  0.00    +0.049 A 
ATOM      7  C   UNL     1       7.510   0.813  24.722  0.00  0.00    +0.148 A 
ATOM      8  F   UNL     1       6.574   1.662  25.178  0.00  0.00    -0.203 F 
ENDROOT
BRANCH   5   9
ATOM      9  C   UNL     1       7.741  -2.888  23.847  0.00  0.00    -0.014 A 
ATOM     10  C   UNL     1       7.571  -3.768  24.933  0.00  0.00    +0.054 A 
ATOM     11  C   UNL     1       7.060  -5.057  24.764  0.00  0.00    +0.131 A 
ATOM     12  C   UNL     1       6.852  -5.541  23.472  0.00  0.00    +0.046 A 
ATOM     13  C   UNL     1       7.088  -4.724  22.372  0.00  0.00    +0.004 A 
ATOM     14  C   UNL     1       7.506  -3.404  22.559  0.00  0.00    +0.009 A 
BRANCH  11  15
ATOM     15  O   UNL     1       6.777  -5.933  25.767  0.00  0.00    -0.406 OA
BRANCH  15  16
ATOM     16  C   UNL     1       5.416  -6.222  26.071  0.00  0.00    +0.575 C 
ATOM     17  F   UNL     1       4.696  -5.081  25.992  0.00  0.00    -0.133 F 
ATOM     18  F   UNL     1       5.342  -6.679  27.340  0.00  0.00    -0.133 F 
ATOM     19  F   UNL     1       4.843  -7.147  25.270  0.00  0.00    -0.133 F 
ENDBRANCH  15  16
ENDBRANCH  11  15
ENDBRANCH   5   9
BRANCH   1  21
ATOM     20  C   UNL     1       8.900   3.611  23.958  0.00  0.00    +0.245 C 
ATOM     21  N   UNL     1       9.141   2.595  24.871  0.00  0.00    -0.277 N 
ATOM     22  H   UNL     1       9.925   2.709  25.499  0.00  0.00    +0.155 HD
ATOM     23  O   UNL     1       8.467   3.421  22.829  0.00  0.00    -0.270 OA
BRANCH  20  28
ATOM     24  C   UNL     1      10.698   5.358  24.164  0.00  0.00    +0.044 C 
ATOM     25  C   UNL     1      10.925   6.710  24.766  0.00  0.00    +0.043 C 
ATOM     26  C   UNL     1       9.681   6.908  25.628  0.00  0.00    +0.010 C 
ATOM     27  C   UNL     1       8.616   5.999  25.031  0.00  0.00    +0.041 C 
ATOM     28  C   UNL     1       9.430   4.945  24.340  0.00  0.00    +0.025 C 
BRANCH  24  29
ATOM     29  C   UNL     1      11.728   4.679  23.351  0.00  0.00    +0.333 C 
ATOM     30  O   UNL     1      12.920   4.909  23.433  0.00  0.00    -0.245 OA
BRANCH  29  31
ATOM     31  O   UNL     1      11.241   3.663  22.608  0.00  0.00    -0.477 OA
ATOM     32  H   UNL     1      10.836   2.931  23.100  0.00  0.00    +0.295 HD
ENDBRANCH  29  31
ENDBRANCH  24  29
ENDBRANCH  20  28
ENDBRANCH   1  21
TORSDOF 7
ENDMDL
