MODEL 1
REMARK VINA RESULT:      -7.1      0.000      0.000
REMARK  Name = 
REMARK  11 active torsions:
REMARK  status: ('A' for Active; 'I' for Inactive)
REMARK    1  A    between atoms: C_2  and  O_3
REMARK    2  A    between atoms: C_2  and  C_4
REMARK    3  A    between atoms: C_2  and  C_27
REMARK    4  A    between atoms: C_4  and  O_5
REMARK    5  A    between atoms: O_5  and  C_6
REMARK    6  A    between atoms: C_9  and  N_10
REMARK    7  A    between atoms: C_13  and  N_14
REMARK    8  A    between atoms: N_14  and  C_15
REMARK    9  A    between atoms: C_27  and  N_28
REMARK   10  A    between atoms: N_28  and  C_29
REMARK   11  A    between atoms: N_28  and  C_30
REMARK                            x       y       z     vdW  Elec       q    Type
REMARK                         _______ _______ _______ _____ _____    ______ ____
ROOT
ATOM      1  N   UNL     1       9.974  -2.485  23.403  0.00  0.00    -0.284 N 
ATOM      2  H   UNL     1      10.870  -2.939  23.295  0.00  0.00    +0.155 HD
ATOM      3  C   UNL     1       9.222  -3.198  24.340  0.00  0.00    +0.221 A 
ATOM      4  N   UNL     1       9.805  -4.256  24.915  0.00  0.00    -0.221 NA
ATOM      5  C   UNL     1       9.061  -4.947  25.811  0.00  0.00    +0.133 A 
ATOM      6  C   UNL     1       7.757  -4.648  26.129  0.00  0.00    +0.076 A 
ATOM      7 BR   UNL     1       6.809  -5.695  27.378  0.00  0.00    -0.045 Br
ATOM      8  C   UNL     1       7.209  -3.577  25.452  0.00  0.00    +0.142 A 
ATOM      9  N   UNL     1       7.954  -2.845  24.593  0.00  0.00    -0.198 NA
ENDROOT
BRANCH   1  13
ATOM     10  C   UNL     1      10.126   1.735  22.916  0.00  0.00    +0.121 A 
ATOM     11  C   UNL     1      10.386   1.146  24.156  0.00  0.00    +0.047 A 
ATOM     12  C   UNL     1      10.325  -0.252  24.310  0.00  0.00    +0.027 A 
ATOM     13  C   UNL     1      10.025  -1.088  23.225  0.00  0.00    +0.034 A 
ATOM     14  C   UNL     1       9.780  -0.486  21.991  0.00  0.00    +0.027 A 
ATOM     15  C   UNL     1       9.821   0.902  21.838  0.00  0.00    +0.047 A 
BRANCH  10  16
ATOM     16  O   UNL     1      10.195   3.110  22.850  0.00  0.00    -0.489 OA
BRANCH  16  17
ATOM     17  C   UNL     1       9.678   3.775  24.015  0.00  0.00    +0.261 C 
BRANCH  17  18
ATOM     18  C   UNL     1       9.212   5.209  23.728  0.00  0.00    +0.166 C 
BRANCH  18  19
ATOM     19  O   UNL     1       8.340   5.299  22.597  0.00  0.00    -0.387 OA
ATOM     20  H   UNL     1       8.245   6.242  22.379  0.00  0.00    +0.210 HD
ENDBRANCH  18  19
BRANCH  18  21
ATOM     21  C   UNL     1      10.441   6.146  23.545  0.00  0.00    +0.118 C 
BRANCH  21  22
ATOM     22  N   UNL     1      11.728   5.727  24.165  0.00  0.00    -0.306 NA
ATOM     23  C   UNL     1      12.180   6.768  25.099  0.00  0.00    +0.104 C 
ATOM     24  C   UNL     1      12.777   5.499  23.166  0.00  0.00    +0.104 C 
ENDBRANCH  21  22
ENDBRANCH  18  21
ENDBRANCH  17  18
ENDBRANCH  16  17
ENDBRANCH  10  16
ENDBRANCH   1  13
BRANCH   8  25
ATOM     25  N   UNL     1       5.832  -3.269  25.582  0.00  0.00    -0.298 N 
ATOM     26  H   UNL     1       5.671  -2.299  25.820  0.00  0.00    +0.154 HD
BRANCH  25  27
ATOM     27  C   UNL     1       4.796  -3.880  24.844  0.00  0.00    +0.032 A 
ATOM     28  C   UNL     1       5.084  -4.700  23.747  0.00  0.00    +0.023 A 
ATOM     29  C   UNL     1       4.062  -5.391  23.092  0.00  0.00    +0.002 A 
ATOM     30  C   UNL     1       2.738  -5.256  23.513  0.00  0.00    +0.000 A 
ATOM     31  C   UNL     1       2.435  -4.410  24.573  0.00  0.00    +0.002 A 
ATOM     32  C   UNL     1       3.458  -3.727  25.230  0.00  0.00    +0.023 A 
ENDBRANCH  25  27
ENDBRANCH   8  25
TORSDOF 9
ENDMDL
MODEL 2
REMARK VINA RESULT:      -7.1      1.192      1.840
REMARK  Name = 
REMARK  11 active torsions:
REMARK  status: ('A' for Active; 'I' for Inactive)
REMARK    1  A    between atoms: C_2  and  O_3
REMARK    2  A    between atoms: C_2  and  C_4
REMARK    3  A    between atoms: C_2  and  C_27
REMARK    4  A    between atoms: C_4  and  O_5
REMARK    5  A    between atoms: O_5  and  C_6
REMARK    6  A    between atoms: C_9  and  N_10
REMARK    7  A    between atoms: C_13  and  N_14
REMARK    8  A    between atoms: N_14  and  C_15
REMARK    9  A    between atoms: C_27  and  N_28
REMARK   10  A    between atoms: N_28  and  C_29
REMARK   11  A    between atoms: N_28  and  C_30
REMARK                            x       y       z     vdW  Elec       q    Type
REMARK                         _______ _______ _______ _____ _____    ______ ____
ROOT
ATOM      1  N   UNL     1      10.010  -2.226  23.258  0.00  0.00    -0.284 N 
ATOM      2  H   UNL     1      10.867  -2.721  23.053  0.00  0.00    +0.155 HD
ATOM      3  C   UNL     1       9.270  -2.974  24.177  0.00  0.00    +0.221 A 
ATOM      4  N   UNL     1       9.817  -4.113  24.621  0.00  0.00    -0.221 NA
ATOM      5  C   UNL     1       9.085  -4.836  25.500  0.00  0.00    +0.133 A 
ATOM      6  C   UNL     1       7.824  -4.490  25.927  0.00  0.00    +0.076 A 
ATOM      7 BR   UNL     1       6.886  -5.586  27.140  0.00  0.00    -0.045 Br
ATOM      8  C   UNL     1       7.306  -3.332  25.380  0.00  0.00    +0.142 A 
ATOM      9  N   UNL     1       8.045  -2.572  24.541  0.00  0.00    -0.198 NA
ENDROOT
BRANCH   1  13
ATOM     10  C   UNL     1      10.398   2.000  23.027  0.00  0.00    +0.121 A 
ATOM     11  C   UNL     1       9.915   1.264  21.943  0.00  0.00    +0.047 A 
ATOM     12  C   UNL     1       9.797  -0.136  22.025  0.00  0.00    +0.027 A 
ATOM     13  C   UNL     1      10.140  -0.825  23.198  0.00  0.00    +0.034 A 
ATOM     14  C   UNL     1      10.609  -0.074  24.276  0.00  0.00    +0.027 A 
ATOM     15  C   UNL     1      10.746   1.314  24.192  0.00  0.00    +0.047 A 
BRANCH  10  16
ATOM     16  O   UNL     1      10.494   3.365  22.863  0.00  0.00    -0.489 OA
BRANCH  16  17
ATOM     17  C   UNL     1      11.720   3.927  23.362  0.00  0.00    +0.261 C 
BRANCH  17  18
ATOM     18  C   UNL     1      11.624   5.436  23.623  0.00  0.00    +0.166 C 
BRANCH  18  19
ATOM     19  O   UNL     1      12.827   5.989  24.165  0.00  0.00    -0.387 OA
ATOM     20  H   UNL     1      12.570   6.598  24.879  0.00  0.00    +0.210 HD
ENDBRANCH  18  19
BRANCH  18  21
ATOM     21  C   UNL     1      10.414   5.745  24.551  0.00  0.00    +0.118 C 
BRANCH  21  22
ATOM     22  N   UNL     1       9.445   6.781  24.100  0.00  0.00    -0.306 NA
ATOM     23  C   UNL     1       8.522   7.094  25.200  0.00  0.00    +0.104 C 
ATOM     24  C   UNL     1       8.664   6.343  22.939  0.00  0.00    +0.104 C 
ENDBRANCH  21  22
ENDBRANCH  18  21
ENDBRANCH  17  18
ENDBRANCH  16  17
ENDBRANCH  10  16
ENDBRANCH   1  13
BRANCH   8  25
ATOM     25  N   UNL     1       5.962  -2.957  25.625  0.00  0.00    -0.298 N 
ATOM     26  H   UNL     1       5.868  -1.976  25.858  0.00  0.00    +0.154 HD
BRANCH  25  27
ATOM     27  C   UNL     1       4.838  -3.527  24.991  0.00  0.00    +0.032 A 
ATOM     28  C   UNL     1       4.987  -4.340  23.863  0.00  0.00    +0.023 A 
ATOM     29  C   UNL     1       3.882  -4.993  23.309  0.00  0.00    +0.002 A 
ATOM     30  C   UNL     1       2.613  -4.825  23.865  0.00  0.00    +0.000 A 
ATOM     31  C   UNL     1       2.446  -3.984  24.959  0.00  0.00    +0.002 A 
ATOM     32  C   UNL     1       3.552  -3.340  25.514  0.00  0.00    +0.023 A 
ENDBRANCH  25  27
ENDBRANCH   8  25
TORSDOF 9
ENDMDL
MODEL 3
REMARK VINA RESULT:      -7.0      1.793      2.648
REMARK  Name = 
REMARK  11 active torsions:
REMARK  status: ('A' for Active; 'I' for Inactive)
REMARK    1  A    between atoms: C_2  and  O_3
REMARK    2  A    between atoms: C_2  and  C_4
REMARK    3  A    between atoms: C_2  and  C_27
REMARK    4  A    between atoms: C_4  and  O_5
REMARK    5  A    between atoms: O_5  and  C_6
REMARK    6  A    between atoms: C_9  and  N_10
REMARK    7  A    between atoms: C_13  and  N_14
REMARK    8  A    between atoms: N_14  and  C_15
REMARK    9  A    between atoms: C_27  and  N_28
REMARK   10  A    between atoms: N_28  and  C_29
REMARK   11  A    between atoms: N_28  and  C_30
REMARK                            x       y       z     vdW  Elec       q    Type
REMARK                         _______ _______ _______ _____ _____    ______ ____
ROOT
ATOM      1  N   UNL     1      10.050  -2.118  23.121  0.00  0.00    -0.284 N 
ATOM      2  H   UNL     1      10.925  -2.574  22.901  0.00  0.00    +0.155 HD
ATOM      3  C   UNL     1       9.361  -2.899  24.052  0.00  0.00    +0.221 A 
ATOM      4  N   UNL     1       9.966  -4.012  24.485  0.00  0.00    -0.221 NA
ATOM      5  C   UNL     1       9.281  -4.767  25.376  0.00  0.00    +0.133 A 
ATOM      6  C   UNL     1       8.014  -4.478  25.825  0.00  0.00    +0.076 A 
ATOM      7 BR   UNL     1       7.147  -5.615  27.053  0.00  0.00    -0.045 Br
ATOM      8  C   UNL     1       7.436  -3.344  25.289  0.00  0.00    +0.142 A 
ATOM      9  N   UNL     1       8.126  -2.551  24.438  0.00  0.00    -0.198 NA
ENDROOT
BRANCH   1  13
ATOM     10  C   UNL     1      10.253   2.125  22.986  0.00  0.00    +0.121 A 
ATOM     11  C   UNL     1      10.568   1.429  24.155  0.00  0.00    +0.047 A 
ATOM     12  C   UNL     1      10.490   0.024  24.193  0.00  0.00    +0.027 A 
ATOM     13  C   UNL     1      10.117  -0.712  23.060  0.00  0.00    +0.034 A 
ATOM     14  C   UNL     1       9.818  -0.003  21.897  0.00  0.00    +0.027 A 
ATOM     15  C   UNL     1       9.875   1.392  21.859  0.00  0.00    +0.047 A 
BRANCH  10  16
ATOM     16  O   UNL     1      10.343   3.500  23.033  0.00  0.00    -0.489 OA
BRANCH  16  17
ATOM     17  C   UNL     1       9.256   4.131  23.731  0.00  0.00    +0.261 C 
BRANCH  17  18
ATOM     18  C   UNL     1       7.949   4.133  22.925  0.00  0.00    +0.166 C 
BRANCH  18  19
ATOM     19  O   UNL     1       7.797   5.297  22.107  0.00  0.00    -0.387 OA
ATOM     20  H   UNL     1       7.120   5.094  21.439  0.00  0.00    +0.210 HD
ENDBRANCH  18  19
BRANCH  18  21
ATOM     21  C   UNL     1       6.730   3.973  23.879  0.00  0.00    +0.118 C 
BRANCH  21  22
ATOM     22  N   UNL     1       5.741   2.906  23.562  0.00  0.00    -0.306 NA
ATOM     23  C   UNL     1       6.443   1.748  22.990  0.00  0.00    +0.104 C 
ATOM     24  C   UNL     1       4.722   3.358  22.610  0.00  0.00    +0.104 C 
ENDBRANCH  21  22
ENDBRANCH  18  21
ENDBRANCH  17  18
ENDBRANCH  16  17
ENDBRANCH  10  16
ENDBRANCH   1  13
BRANCH   8  25
ATOM     25  N   UNL     1       6.082  -3.028  25.558  0.00  0.00    -0.298 N 
ATOM     26  H   UNL     1       5.954  -2.064  25.837  0.00  0.00    +0.154 HD
BRANCH  25  27
ATOM     27  C   UNL     1       4.974  -3.609  24.905  0.00  0.00    +0.032 A 
ATOM     28  C   UNL     1       5.145  -4.370  23.743  0.00  0.00    +0.023 A 
ATOM     29  C   UNL     1       4.059  -5.035  23.166  0.00  0.00    +0.002 A 
ATOM     30  C   UNL     1       2.788  -4.932  23.733  0.00  0.00    +0.000 A 
ATOM     31  C   UNL     1       2.598  -4.142  24.860  0.00  0.00    +0.002 A 
ATOM     32  C   UNL     1       3.685  -3.485  25.438  0.00  0.00    +0.023 A 
ENDBRANCH  25  27
ENDBRANCH   8  25
TORSDOF 9
ENDMDL
MODEL 4
REMARK VINA RESULT:      -6.8      2.875      4.136
REMARK  Name = 
REMARK  11 active torsions:
REMARK  status: ('A' for Active; 'I' for Inactive)
REMARK    1  A    between atoms: C_2  and  O_3
REMARK    2  A    between atoms: C_2  and  C_4
REMARK    3  A    between atoms: C_2  and  C_27
REMARK    4  A    between atoms: C_4  and  O_5
REMARK    5  A    between atoms: O_5  and  C_6
REMARK    6  A    between atoms: C_9  and  N_10
REMARK    7  A    between atoms: C_13  and  N_14
REMARK    8  A    between atoms: N_14  and  C_15
REMARK    9  A    between atoms: C_27  and  N_28
REMARK   10  A    between atoms: N_28  and  C_29
REMARK   11  A    between atoms: N_28  and  C_30
REMARK                            x       y       z     vdW  Elec       q    Type
REMARK                         _______ _______ _______ _____ _____    ______ ____
ROOT
ATOM      1  N   UNL     1       8.184  -5.217  25.329  0.00  0.00    -0.284 N 
ATOM      2  H   UNL     1       9.039  -5.511  25.781  0.00  0.00    +0.155 HD
ATOM      3  C   UNL     1       7.133  -5.328  26.241  0.00  0.00    +0.221 A 
ATOM      4  N   UNL     1       7.438  -5.735  27.480  0.00  0.00    -0.221 NA
ATOM      5  C   UNL     1       6.409  -5.853  28.351  0.00  0.00    +0.133 A 
ATOM      6  C   UNL     1       5.092  -5.614  28.032  0.00  0.00    +0.076 A 
ATOM      7 BR   UNL     1       3.736  -5.830  29.323  0.00  0.00    -0.045 Br
ATOM      8  C   UNL     1       4.853  -5.252  26.720  0.00  0.00    +0.142 A 
ATOM      9  N   UNL     1       5.875  -5.081  25.852  0.00  0.00    -0.198 NA
ENDROOT
BRANCH   1  13
ATOM     10  C   UNL     1       8.798  -2.166  22.433  0.00  0.00    +0.121 A 
ATOM     11  C   UNL     1       9.645  -2.288  23.537  0.00  0.00    +0.047 A 
ATOM     12  C   UNL     1       9.430  -3.296  24.495  0.00  0.00    +0.027 A 
ATOM     13  C   UNL     1       8.378  -4.213  24.359  0.00  0.00    +0.034 A 
ATOM     14  C   UNL     1       7.548  -4.086  23.245  0.00  0.00    +0.027 A 
ATOM     15  C   UNL     1       7.746  -3.075  22.301  0.00  0.00    +0.047 A 
BRANCH  10  16
ATOM     16  O   UNL     1       9.069  -1.146  21.547  0.00  0.00    -0.489 OA
BRANCH  16  17
ATOM     17  C   UNL     1      10.005  -0.174  22.045  0.00  0.00    +0.261 C 
BRANCH  17  18
ATOM     18  C   UNL     1       9.405   1.234  22.152  0.00  0.00    +0.166 C 
BRANCH  18  19
ATOM     19  O   UNL     1      10.233   2.242  21.564  0.00  0.00    -0.387 OA
ATOM     20  H   UNL     1      10.561   1.889  20.719  0.00  0.00    +0.210 HD
ENDBRANCH  18  19
BRANCH  18  21
ATOM     21  C   UNL     1       9.100   1.576  23.639  0.00  0.00    +0.118 C 
BRANCH  21  22
ATOM     22  N   UNL     1       7.684   1.490  24.091  0.00  0.00    -0.306 NA
ATOM     23  C   UNL     1       7.562   0.435  25.107  0.00  0.00    +0.104 C 
ATOM     24  C   UNL     1       6.766   1.193  22.988  0.00  0.00    +0.104 C 
ENDBRANCH  21  22
ENDBRANCH  18  21
ENDBRANCH  17  18
ENDBRANCH  16  17
ENDBRANCH  10  16
ENDBRANCH   1  13
BRANCH   8  25
ATOM     25  N   UNL     1       3.528  -5.129  26.236  0.00  0.00    -0.298 N 
ATOM     26  H   UNL     1       3.156  -4.195  26.350  0.00  0.00    +0.154 HD
BRANCH  25  27
ATOM     27  C   UNL     1       2.999  -5.849  25.144  0.00  0.00    +0.032 A 
ATOM     28  C   UNL     1       2.914  -7.245  25.179  0.00  0.00    +0.023 A 
ATOM     29  C   UNL     1       2.286  -7.943  24.143  0.00  0.00    +0.002 A 
ATOM     30  C   UNL     1       1.753  -7.255  23.052  0.00  0.00    +0.000 A 
ATOM     31  C   UNL     1       1.871  -5.872  22.986  0.00  0.00    +0.002 A 
ATOM     32  C   UNL     1       2.491  -5.177  24.024  0.00  0.00    +0.023 A 
ENDBRANCH  25  27
ENDBRANCH   8  25
TORSDOF 9
ENDMDL
MODEL 5
REMARK VINA RESULT:      -6.6      1.666      2.345
REMARK  Name = 
REMARK  11 active torsions:
REMARK  status: ('A' for Active; 'I' for Inactive)
REMARK    1  A    between atoms: C_2  and  O_3
REMARK    2  A    between atoms: C_2  and  C_4
REMARK    3  A    between atoms: C_2  and  C_27
REMARK    4  A    between atoms: C_4  and  O_5
REMARK    5  A    between atoms: O_5  and  C_6
REMARK    6  A    between atoms: C_9  and  N_10
REMARK    7  A    between atoms: C_13  and  N_14
REMARK    8  A    between atoms: N_14  and  C_15
REMARK    9  A    between atoms: C_27  and  N_28
REMARK   10  A    between atoms: N_28  and  C_29
REMARK   11  A    between atoms: N_28  and  C_30
REMARK                            x       y       z     vdW  Elec       q    Type
REMARK                         _______ _______ _______ _____ _____    ______ ____
ROOT
ATOM      1  N   UNL     1      10.014  -2.399  23.326  0.00  0.00    -0.284 N 
ATOM      2  H   UNL     1      10.911  -2.852  23.220  0.00  0.00    +0.155 HD
ATOM      3  C   UNL     1       9.245  -3.136  24.230  0.00  0.00    +0.221 A 
ATOM      4  N   UNL     1       9.816  -4.212  24.785  0.00  0.00    -0.221 NA
ATOM      5  C   UNL     1       9.055  -4.925  25.648  0.00  0.00    +0.133 A 
ATOM      6  C   UNL     1       7.747  -4.631  25.953  0.00  0.00    +0.076 A 
ATOM      7 BR   UNL     1       6.775  -5.710  27.156  0.00  0.00    -0.045 Br
ATOM      8  C   UNL     1       7.212  -3.541  25.297  0.00  0.00    +0.142 A 
ATOM      9  N   UNL     1       7.974  -2.787  24.472  0.00  0.00    -0.198 NA
ENDROOT
BRANCH   1  13
ATOM     10  C   UNL     1      10.187   1.832  22.959  0.00  0.00    +0.121 A 
ATOM     11  C   UNL     1      10.507   1.203  24.165  0.00  0.00    +0.047 A 
ATOM     12  C   UNL     1      10.439  -0.199  24.279  0.00  0.00    +0.027 A 
ATOM     13  C   UNL     1      10.071  -0.998  23.188  0.00  0.00    +0.034 A 
ATOM     14  C   UNL     1       9.766  -0.356  21.988  0.00  0.00    +0.027 A 
ATOM     15  C   UNL     1       9.814   1.036  21.875  0.00  0.00    +0.047 A 
BRANCH  10  16
ATOM     16  O   UNL     1      10.268   3.207  22.931  0.00  0.00    -0.489 OA
BRANCH  16  17
ATOM     17  C   UNL     1       9.569   3.854  24.009  0.00  0.00    +0.261 C 
BRANCH  17  18
ATOM     18  C   UNL     1       9.261   5.330  23.723  0.00  0.00    +0.166 C 
BRANCH  18  19
ATOM     19  O   UNL     1       8.338   5.510  22.644  0.00  0.00    -0.387 OA
ATOM     20  H   UNL     1       8.429   6.428  22.336  0.00  0.00    +0.210 HD
ENDBRANCH  18  19
BRANCH  18  21
ATOM     21  C   UNL     1      10.579   6.110  23.450  0.00  0.00    +0.118 C 
BRANCH  21  22
ATOM     22  N   UNL     1      11.796   5.695  24.201  0.00  0.00    -0.306 NA
ATOM     23  C   UNL     1      12.212   6.785  25.094  0.00  0.00    +0.104 C 
ATOM     24  C   UNL     1      12.912   5.362  23.310  0.00  0.00    +0.104 C 
ENDBRANCH  21  22
ENDBRANCH  18  21
ENDBRANCH  17  18
ENDBRANCH  16  17
ENDBRANCH  10  16
ENDBRANCH   1  13
BRANCH   8  25
ATOM     25  N   UNL     1       5.834  -3.232  25.413  0.00  0.00    -0.298 N 
ATOM     26  H   UNL     1       5.245  -4.053  25.350  0.00  0.00    +0.154 HD
BRANCH  25  27
ATOM     27  C   UNL     1       5.307  -2.180  26.191  0.00  0.00    +0.032 A 
ATOM     28  C   UNL     1       4.855  -2.410  27.495  0.00  0.00    +0.023 A 
ATOM     29  C   UNL     1       4.440  -1.345  28.299  0.00  0.00    +0.002 A 
ATOM     30  C   UNL     1       4.454  -0.040  27.803  0.00  0.00    +0.000 A 
ATOM     31  C   UNL     1       4.857   0.194  26.494  0.00  0.00    +0.002 A 
ATOM     32  C   UNL     1       5.278  -0.870  25.696  0.00  0.00    +0.023 A 
ENDBRANCH  25  27
ENDBRANCH   8  25
TORSDOF 9
ENDMDL
MODEL 6
REMARK VINA RESULT:      -6.6      3.316      5.094
REMARK  Name = 
REMARK  11 active torsions:
REMARK  status: ('A' for Active; 'I' for Inactive)
REMARK    1  A    between atoms: C_2  and  O_3
REMARK    2  A    between atoms: C_2  and  C_4
REMARK    3  A    between atoms: C_2  and  C_27
REMARK    4  A    between atoms: C_4  and  O_5
REMARK    5  A    between atoms: O_5  and  C_6
REMARK    6  A    between atoms: C_9  and  N_10
REMARK    7  A    between atoms: C_13  and  N_14
REMARK    8  A    between atoms: N_14  and  C_15
REMARK    9  A    between atoms: C_27  and  N_28
REMARK   10  A    between atoms: N_28  and  C_29
REMARK   11  A    between atoms: N_28  and  C_30
REMARK                            x       y       z     vdW  Elec       q    Type
REMARK                         _______ _______ _______ _____ _____    ______ ____
ROOT
ATOM      1  N   UNL     1       7.935  -5.496  27.314  0.00  0.00    -0.284 N 
ATOM      2  H   UNL     1       8.563  -5.311  28.084  0.00  0.00    +0.155 HD
ATOM      3  C   UNL     1       6.713  -5.934  27.828  0.00  0.00    +0.221 A 
ATOM      4  N   UNL     1       6.591  -5.982  29.160  0.00  0.00    -0.221 NA
ATOM      5  C   UNL     1       5.407  -6.421  29.647  0.00  0.00    +0.133 A 
ATOM      6  C   UNL     1       4.357  -6.842  28.864  0.00  0.00    +0.076 A 
ATOM      7 BR   UNL     1       2.757  -7.455  29.652  0.00  0.00    -0.045 Br
ATOM      8  C   UNL     1       4.580  -6.816  27.502  0.00  0.00    +0.142 A 
ATOM      9  N   UNL     1       5.738  -6.332  26.999  0.00  0.00    -0.198 NA
ENDROOT
BRANCH   1  13
ATOM     10  C   UNL     1       8.589  -3.016  23.924  0.00  0.00    +0.121 A 
ATOM     11  C   UNL     1       8.349  -4.384  23.776  0.00  0.00    +0.047 A 
ATOM     12  C   UNL     1       8.141  -5.199  24.905  0.00  0.00    +0.027 A 
ATOM     13  C   UNL     1       8.149  -4.661  26.199  0.00  0.00    +0.034 A 
ATOM     14  C   UNL     1       8.378  -3.291  26.330  0.00  0.00    +0.027 A 
ATOM     15  C   UNL     1       8.604  -2.481  25.214  0.00  0.00    +0.047 A 
BRANCH  10  16
ATOM     16  O   UNL     1       8.793  -2.289  22.772  0.00  0.00    -0.489 OA
BRANCH  16  17
ATOM     17  C   UNL     1      10.129  -1.774  22.637  0.00  0.00    +0.261 C 
BRANCH  17  18
ATOM     18  C   UNL     1      10.172  -0.243  22.533  0.00  0.00    +0.166 C 
BRANCH  18  19
ATOM     19  O   UNL     1      10.524   0.392  23.766  0.00  0.00    -0.387 OA
ATOM     20  H   UNL     1      10.048   1.240  23.800  0.00  0.00    +0.210 HD
ENDBRANCH  18  19
BRANCH  18  21
ATOM     21  C   UNL     1       8.812   0.298  22.008  0.00  0.00    +0.118 C 
BRANCH  21  22
ATOM     22  N   UNL     1       8.117   1.330  22.827  0.00  0.00    -0.306 NA
ATOM     23  C   UNL     1       6.836   0.789  23.304  0.00  0.00    +0.104 C 
ATOM     24  C   UNL     1       7.858   2.559  22.069  0.00  0.00    +0.104 C 
ENDBRANCH  21  22
ENDBRANCH  18  21
ENDBRANCH  17  18
ENDBRANCH  16  17
ENDBRANCH  10  16
ENDBRANCH   1  13
BRANCH   8  25
ATOM     25  N   UNL     1       3.633  -7.367  26.604  0.00  0.00    -0.298 N 
ATOM     26  H   UNL     1       3.023  -8.043  27.047  0.00  0.00    +0.154 HD
BRANCH  25  27
ATOM     27  C   UNL     1       3.062  -6.679  25.513  0.00  0.00    +0.032 A 
ATOM     28  C   UNL     1       2.104  -5.680  25.717  0.00  0.00    +0.023 A 
ATOM     29  C   UNL     1       1.627  -4.926  24.641  0.00  0.00    +0.002 A 
ATOM     30  C   UNL     1       2.088  -5.174  23.347  0.00  0.00    +0.000 A 
ATOM     31  C   UNL     1       3.006  -6.194  23.127  0.00  0.00    +0.002 A 
ATOM     32  C   UNL     1       3.486  -6.940  24.203  0.00  0.00    +0.023 A 
ENDBRANCH  25  27
ENDBRANCH   8  25
TORSDOF 9
ENDMDL
MODEL 7
REMARK VINA RESULT:      -6.5      1.295      2.002
REMARK  Name = 
REMARK  11 active torsions:
REMARK  status: ('A' for Active; 'I' for Inactive)
REMARK    1  A    between atoms: C_2  and  O_3
REMARK    2  A    between atoms: C_2  and  C_4
REMARK    3  A    between atoms: C_2  and  C_27
REMARK    4  A    between atoms: C_4  and  O_5
REMARK    5  A    between atoms: O_5  and  C_6
REMARK    6  A    between atoms: C_9  and  N_10
REMARK    7  A    between atoms: C_13  and  N_14
REMARK    8  A    between atoms: N_14  and  C_15
REMARK    9  A    between atoms: C_27  and  N_28
REMARK   10  A    between atoms: N_28  and  C_29
REMARK   11  A    between atoms: N_28  and  C_30
REMARK                            x       y       z     vdW  Elec       q    Type
REMARK                         _______ _______ _______ _____ _____    ______ ____
ROOT
ATOM      1  N   UNL     1      10.003  -2.318  23.455  0.00  0.00    -0.284 N 
ATOM      2  H   UNL     1      10.895  -2.769  23.305  0.00  0.00    +0.155 HD
ATOM      3  C   UNL     1       9.263  -3.081  24.360  0.00  0.00    +0.221 A 
ATOM      4  N   UNL     1       9.849  -4.175  24.862  0.00  0.00    -0.221 NA
ATOM      5  C   UNL     1       9.116  -4.914  25.727  0.00  0.00    +0.133 A 
ATOM      6  C   UNL     1       7.819  -4.628  26.085  0.00  0.00    +0.076 A 
ATOM      7 BR   UNL     1       6.886  -5.742  27.286  0.00  0.00    -0.045 Br
ATOM      8  C   UNL     1       7.266  -3.516  25.482  0.00  0.00    +0.142 A 
ATOM      9  N   UNL     1       8.001  -2.738  24.656  0.00  0.00    -0.198 NA
ENDROOT
BRANCH   1  13
ATOM     10  C   UNL     1      10.169   1.923  23.216  0.00  0.00    +0.121 A 
ATOM     11  C   UNL     1      10.364   1.265  24.433  0.00  0.00    +0.047 A 
ATOM     12  C   UNL     1      10.299  -0.140  24.504  0.00  0.00    +0.027 A 
ATOM     13  C   UNL     1      10.059  -0.913  23.360  0.00  0.00    +0.034 A 
ATOM     14  C   UNL     1       9.879  -0.242  22.151  0.00  0.00    +0.027 A 
ATOM     15  C   UNL     1       9.924   1.153  22.078  0.00  0.00    +0.047 A 
BRANCH  10  16
ATOM     16  O   UNL     1      10.237   3.299  23.232  0.00  0.00    -0.489 OA
BRANCH  16  17
ATOM     17  C   UNL     1       8.973   3.942  23.469  0.00  0.00    +0.261 C 
BRANCH  17  18
ATOM     18  C   UNL     1       9.107   5.448  23.731  0.00  0.00    +0.166 C 
BRANCH  18  19
ATOM     19  O   UNL     1      10.180   6.050  23.000  0.00  0.00    -0.387 OA
ATOM     20  H   UNL     1      10.258   5.573  22.156  0.00  0.00    +0.210 HD
ENDBRANCH  18  19
BRANCH  18  21
ATOM     21  C   UNL     1       9.268   5.716  25.255  0.00  0.00    +0.118 C 
BRANCH  21  22
ATOM     22  N   UNL     1       8.084   6.234  25.994  0.00  0.00    -0.306 NA
ATOM     23  C   UNL     1       7.415   5.121  26.682  0.00  0.00    +0.104 C 
ATOM     24  C   UNL     1       7.118   6.889  25.106  0.00  0.00    +0.104 C 
ENDBRANCH  21  22
ENDBRANCH  18  21
ENDBRANCH  17  18
ENDBRANCH  16  17
ENDBRANCH  10  16
ENDBRANCH   1  13
BRANCH   8  25
ATOM     25  N   UNL     1       5.894  -3.210  25.654  0.00  0.00    -0.298 N 
ATOM     26  H   UNL     1       5.733  -2.226  25.830  0.00  0.00    +0.154 HD
BRANCH  25  27
ATOM     27  C   UNL     1       4.832  -3.878  25.009  0.00  0.00    +0.032 A 
ATOM     28  C   UNL     1       3.507  -3.677  25.412  0.00  0.00    +0.023 A 
ATOM     29  C   UNL     1       2.454  -4.253  24.697  0.00  0.00    +0.002 A 
ATOM     30  C   UNL     1       2.713  -5.053  23.583  0.00  0.00    +0.000 A 
ATOM     31  C   UNL     1       4.026  -5.297  23.200  0.00  0.00    +0.002 A 
ATOM     32  C   UNL     1       5.076  -4.714  23.911  0.00  0.00    +0.023 A 
ENDBRANCH  25  27
ENDBRANCH   8  25
TORSDOF 9
ENDMDL
MODEL 8
REMARK VINA RESULT:      -6.5      4.481      9.238
REMARK  Name = 
REMARK  11 active torsions:
REMARK  status: ('A' for Active; 'I' for Inactive)
REMARK    1  A    between atoms: C_2  and  O_3
REMARK    2  A    between atoms: C_2  and  C_4
REMARK    3  A    between atoms: C_2  and  C_27
REMARK    4  A    between atoms: C_4  and  O_5
REMARK    5  A    between atoms: O_5  and  C_6
REMARK    6  A    between atoms: C_9  and  N_10
REMARK    7  A    between atoms: C_13  and  N_14
REMARK    8  A    between atoms: N_14  and  C_15
REMARK    9  A    between atoms: C_27  and  N_28
REMARK   10  A    between atoms: N_28  and  C_29
REMARK   11  A    between atoms: N_28  and  C_30
REMARK                            x       y       z     vdW  Elec       q    Type
REMARK                         _______ _______ _______ _____ _____    ______ ____
ROOT
ATOM      1  N   UNL     1       9.748  -3.531  24.254  0.00  0.00    -0.284 N 
ATOM      2  H   UNL     1      10.252  -4.062  23.557  0.00  0.00    +0.155 HD
ATOM      3  C   UNL     1       9.805  -2.178  23.914  0.00  0.00    +0.221 A 
ATOM      4  N   UNL     1      10.440  -1.858  22.779  0.00  0.00    -0.221 NA
ATOM      5  C   UNL     1      10.502  -0.542  22.468  0.00  0.00    +0.133 A 
ATOM      6  C   UNL     1       9.989   0.464  23.253  0.00  0.00    +0.076 A 
ATOM      7 BR   UNL     1      10.151   2.268  22.729  0.00  0.00    -0.045 Br
ATOM      8  C   UNL     1       9.400   0.058  24.434  0.00  0.00    +0.142 A 
ATOM      9  N   UNL     1       9.284  -1.255  24.734  0.00  0.00    -0.198 NA
ENDROOT
BRANCH   1  13
ATOM     10  C   UNL     1       6.444  -5.629  25.911  0.00  0.00    +0.121 A 
ATOM     11  C   UNL     1       6.462  -5.272  24.561  0.00  0.00    +0.047 A 
ATOM     12  C   UNL     1       7.557  -4.571  24.022  0.00  0.00    +0.027 A 
ATOM     13  C   UNL     1       8.662  -4.230  24.816  0.00  0.00    +0.034 A 
ATOM     14  C   UNL     1       8.633  -4.605  26.159  0.00  0.00    +0.027 A 
ATOM     15  C   UNL     1       7.540  -5.285  26.703  0.00  0.00    +0.047 A 
BRANCH  10  16
ATOM     16  O   UNL     1       5.331  -6.305  26.364  0.00  0.00    -0.489 OA
BRANCH  16  17
ATOM     17  C   UNL     1       4.561  -6.925  25.320  0.00  0.00    +0.261 C 
BRANCH  17  18
ATOM     18  C   UNL     1       3.178  -7.392  25.794  0.00  0.00    +0.166 C 
BRANCH  18  19
ATOM     19  O   UNL     1       2.811  -8.674  25.273  0.00  0.00    -0.387 OA
ATOM     20  H   UNL     1       2.322  -9.140  25.972  0.00  0.00    +0.210 HD
ENDBRANCH  18  19
BRANCH  18  21
ATOM     21  C   UNL     1       2.100  -6.328  25.436  0.00  0.00    +0.118 C 
BRANCH  21  22
ATOM     22  N   UNL     1       2.470  -5.275  24.452  0.00  0.00    -0.306 NA
ATOM     23  C   UNL     1       2.201  -3.952  25.033  0.00  0.00    +0.104 C 
ATOM     24  C   UNL     1       1.723  -5.400  23.196  0.00  0.00    +0.104 C 
ENDBRANCH  21  22
ENDBRANCH  18  21
ENDBRANCH  17  18
ENDBRANCH  16  17
ENDBRANCH  10  16
ENDBRANCH   1  13
BRANCH   8  25
ATOM     25  N   UNL     1       8.973   1.010  25.392  0.00  0.00    -0.298 N 
ATOM     26  H   UNL     1       9.746   1.499  25.826  0.00  0.00    +0.154 HD
BRANCH  25  27
ATOM     27  C   UNL     1       7.771   1.744  25.318  0.00  0.00    +0.032 A 
ATOM     28  C   UNL     1       7.737   3.100  25.663  0.00  0.00    +0.023 A 
ATOM     29  C   UNL     1       6.570   3.848  25.480  0.00  0.00    +0.002 A 
ATOM     30  C   UNL     1       5.420   3.246  24.967  0.00  0.00    +0.000 A 
ATOM     31  C   UNL     1       5.429   1.890  24.663  0.00  0.00    +0.002 A 
ATOM     32  C   UNL     1       6.597   1.147  24.841  0.00  0.00    +0.023 A 
ENDBRANCH  25  27
ENDBRANCH   8  25
TORSDOF 9
ENDMDL
MODEL 9
REMARK VINA RESULT:      -6.4      4.292      8.577
REMARK  Name = 
REMARK  11 active torsions:
REMARK  status: ('A' for Active; 'I' for Inactive)
REMARK    1  A    between atoms: C_2  and  O_3
REMARK    2  A    between atoms: C_2  and  C_4
REMARK    3  A    between atoms: C_2  and  C_27
REMARK    4  A    between atoms: C_4  and  O_5
REMARK    5  A    between atoms: O_5  and  C_6
REMARK    6  A    between atoms: C_9  and  N_10
REMARK    7  A    between atoms: C_13  and  N_14
REMARK    8  A    between atoms: N_14  and  C_15
REMARK    9  A    between atoms: C_27  and  N_28
REMARK   10  A    between atoms: N_28  and  C_29
REMARK   11  A    between atoms: N_28  and  C_30
REMARK                            x       y       z     vdW  Elec       q    Type
REMARK                         _______ _______ _______ _____ _____    ______ ____
ROOT
ATOM      1  N   UNL     1      10.855   0.989  23.906  0.00  0.00    -0.284 N 
ATOM      2  H   UNL     1      11.814   0.966  23.588  0.00  0.00    +0.155 HD
ATOM      3  C   UNL     1      10.415   2.314  23.903  0.00  0.00    +0.221 A 
ATOM      4  N   UNL     1      11.273   3.244  23.467  0.00  0.00    -0.221 NA
ATOM      5  C   UNL     1      10.840   4.526  23.483  0.00  0.00    +0.133 A 
ATOM      6  C   UNL     1       9.605   4.921  23.943  0.00  0.00    +0.076 A 
ATOM      7 BR   UNL     1       9.115   6.741  23.937  0.00  0.00    -0.045 Br
ATOM      8  C   UNL     1       8.799   3.911  24.430  0.00  0.00    +0.142 A 
ATOM      9  N   UNL     1       9.198   2.620  24.373  0.00  0.00    -0.198 NA
ENDROOT
BRANCH   1  13
ATOM     10  C   UNL     1       8.625  -2.463  22.822  0.00  0.00    +0.121 A 
ATOM     11  C   UNL     1       9.034  -1.541  21.856  0.00  0.00    +0.047 A 
ATOM     12  C   UNL     1       9.765  -0.396  22.225  0.00  0.00    +0.027 A 
ATOM     13  C   UNL     1      10.119  -0.162  23.561  0.00  0.00    +0.034 A 
ATOM     14  C   UNL     1       9.714  -1.098  24.512  0.00  0.00    +0.027 A 
ATOM     15  C   UNL     1       8.972  -2.226  24.153  0.00  0.00    +0.047 A 
BRANCH  10  16
ATOM     16  O   UNL     1       7.904  -3.552  22.381  0.00  0.00    -0.489 OA
BRANCH  16  17
ATOM     17  C   UNL     1       6.493  -3.304  22.257  0.00  0.00    +0.261 C 
BRANCH  17  18
ATOM     18  C   UNL     1       5.650  -4.583  22.351  0.00  0.00    +0.166 C 
BRANCH  18  19
ATOM     19  O   UNL     1       4.271  -4.325  22.636  0.00  0.00    -0.387 OA
ATOM     20  H   UNL     1       4.241  -3.732  23.406  0.00  0.00    +0.210 HD
ENDBRANCH  18  19
BRANCH  18  21
ATOM     21  C   UNL     1       6.256  -5.548  23.410  0.00  0.00    +0.118 C 
BRANCH  21  22
ATOM     22  N   UNL     1       5.936  -5.292  24.841  0.00  0.00    -0.306 NA
ATOM     23  C   UNL     1       7.185  -5.220  25.612  0.00  0.00    +0.104 C 
ATOM     24  C   UNL     1       5.084  -6.338  25.416  0.00  0.00    +0.104 C 
ENDBRANCH  21  22
ENDBRANCH  18  21
ENDBRANCH  17  18
ENDBRANCH  16  17
ENDBRANCH  10  16
ENDBRANCH   1  13
BRANCH   8  25
ATOM     25  N   UNL     1       7.572   4.211  25.069  0.00  0.00    -0.298 N 
ATOM     26  H   UNL     1       7.615   5.062  25.615  0.00  0.00    +0.154 HD
BRANCH  25  27
ATOM     27  C   UNL     1       6.296   3.903  24.549  0.00  0.00    +0.032 A 
ATOM     28  C   UNL     1       5.523   2.880  25.108  0.00  0.00    +0.023 A 
ATOM     29  C   UNL     1       4.217   2.655  24.662  0.00  0.00    +0.002 A 
ATOM     30  C   UNL     1       3.676   3.439  23.642  0.00  0.00    +0.000 A 
ATOM     31  C   UNL     1       4.451   4.429  23.049  0.00  0.00    +0.002 A 
ATOM     32  C   UNL     1       5.752   4.655  23.500  0.00  0.00    +0.023 A 
ENDBRANCH  25  27
ENDBRANCH   8  25
TORSDOF 9
ENDMDL
