MODEL 1
REMARK VINA RESULT:      -5.2      0.000      0.000
REMARK  Name = 
REMARK  7 active torsions:
REMARK  status: ('A' for Active; 'I' for Inactive)
REMARK    1  A    between atoms: C_2  and  C_3
REMARK    2  A    between atoms: C_7  and  C_9
REMARK    3  A    between atoms: C_9  and  C_10
REMARK    4  A    between atoms: C_10  and  O_11
REMARK    5  A    between atoms: C_10  and  O_12
REMARK    6  A    between atoms: C_13  and  C_14
REMARK    7  A    between atoms: C_13  and  C_15
REMARK                            x       y       z     vdW  Elec       q    Type
REMARK                         _______ _______ _______ _____ _____    ______ ____
ROOT
ATOM      1  C   UNL     1       4.494  -5.684  23.059  0.00  0.00    +0.058 C 
ATOM      2  C   UNL     1       5.750  -4.814  22.733  0.00  0.00    -0.022 C 
ATOM      3  C   UNL     1       5.404  -3.361  22.359  0.00  0.00    +0.012 C 
ATOM      4  C   UNL     1       6.445  -5.427  21.492  0.00  0.00    +0.012 C 
ATOM      5  C   UNL     1       6.652  -4.815  24.032  0.00  0.00    +0.009 C 
ATOM      6  C   UNL     1       5.906  -5.629  25.097  0.00  0.00    +0.079 C 
ATOM      7  C   UNL     1       4.925  -6.420  24.297  0.00  0.00    +0.137 C 
ATOM      8  O   UNL     1       4.446  -7.485  24.667  0.00  0.00    -0.297 OA
ATOM      9  C   UNL     1       3.206  -4.941  23.389  0.00  0.00    +0.016 C 
ENDROOT
BRANCH   5  10
ATOM     10  C   UNL     1       8.098  -5.322  23.834  0.00  0.00    +0.092 C 
BRANCH  10  11
ATOM     11  C   UNL     1       9.093  -4.864  24.904  0.00  0.00    +0.345 C 
BRANCH  11  12
ATOM     12  O   UNL     1       9.914  -3.818  24.438  0.00  0.00    -0.507 OA
ATOM     13  H   UNL     1      10.826  -4.064  24.665  0.00  0.00    +0.287 HD
ENDBRANCH  11  12
BRANCH  11  14
ATOM     14  O   UNL     1       9.927  -5.952  25.243  0.00  0.00    -0.507 OA
ATOM     15  H   UNL     1      10.055  -6.449  24.418  0.00  0.00    +0.287 HD
ENDBRANCH  11  14
ENDBRANCH  10  11
ENDBRANCH   5  10
TORSDOF 4
ENDMDL
MODEL 2
REMARK VINA RESULT:      -5.1      8.411      9.911
REMARK  Name = 
REMARK  7 active torsions:
REMARK  status: ('A' for Active; 'I' for Inactive)
REMARK    1  A    between atoms: C_2  and  C_3
REMARK    2  A    between atoms: C_7  and  C_9
REMARK    3  A    between atoms: C_9  and  C_10
REMARK    4  A    between atoms: C_10  and  O_11
REMARK    5  A    between atoms: C_10  and  O_12
REMARK    6  A    between atoms: C_13  and  C_14
REMARK    7  A    between atoms: C_13  and  C_15
REMARK                            x       y       z     vdW  Elec       q    Type
REMARK                         _______ _______ _______ _____ _____    ______ ____
ROOT
ATOM      1  C   UNL     1       8.794   2.317  24.133  0.00  0.00    +0.058 C 
ATOM      2  C   UNL     1      10.127   2.196  23.327  0.00  0.00    -0.022 C 
ATOM      3  C   UNL     1       9.949   1.527  21.952  0.00  0.00    +0.012 C 
ATOM      4  C   UNL     1      11.088   1.286  24.131  0.00  0.00    +0.012 C 
ATOM      5  C   UNL     1      10.668   3.668  23.122  0.00  0.00    +0.009 C 
ATOM      6  C   UNL     1       9.641   4.617  23.754  0.00  0.00    +0.079 C 
ATOM      7  C   UNL     1       8.863   3.722  24.663  0.00  0.00    +0.137 C 
ATOM      8  O   UNL     1       8.262   4.116  25.654  0.00  0.00    -0.297 OA
ATOM      9  C   UNL     1       7.496   2.185  23.345  0.00  0.00    +0.016 C 
ENDROOT
BRANCH   5  10
ATOM     10  C   UNL     1      12.094   3.930  23.655  0.00  0.00    +0.092 C 
BRANCH  10  11
ATOM     11  C   UNL     1      12.789   5.158  23.059  0.00  0.00    +0.345 C 
BRANCH  11  12
ATOM     12  O   UNL     1      12.551   5.269  21.675  0.00  0.00    -0.507 OA
ATOM     13  H   UNL     1      11.960   6.031  21.559  0.00  0.00    +0.287 HD
ENDBRANCH  11  12
BRANCH  11  14
ATOM     14  O   UNL     1      14.181   5.028  23.252  0.00  0.00    -0.507 OA
ATOM     15  H   UNL     1      14.296   4.231  23.796  0.00  0.00    +0.287 HD
ENDBRANCH  11  14
ENDBRANCH  10  11
ENDBRANCH   5  10
TORSDOF 4
ENDMDL
MODEL 3
REMARK VINA RESULT:      -5.1      1.800      2.779
REMARK  Name = 
REMARK  7 active torsions:
REMARK  status: ('A' for Active; 'I' for Inactive)
REMARK    1  A    between atoms: C_2  and  C_3
REMARK    2  A    between atoms: C_7  and  C_9
REMARK    3  A    between atoms: C_9  and  C_10
REMARK    4  A    between atoms: C_10  and  O_11
REMARK    5  A    between atoms: C_10  and  O_12
REMARK    6  A    between atoms: C_13  and  C_14
REMARK    7  A    between atoms: C_13  and  C_15
REMARK                            x       y       z     vdW  Elec       q    Type
REMARK                         _______ _______ _______ _____ _____    ______ ____
ROOT
ATOM      1  C   UNL     1       4.853  -4.727  23.481  0.00  0.00    +0.058 C 
ATOM      2  C   UNL     1       5.706  -4.970  24.767  0.00  0.00    -0.022 C 
ATOM      3  C   UNL     1       5.229  -6.177  25.596  0.00  0.00    +0.012 C 
ATOM      4  C   UNL     1       5.551  -3.729  25.681  0.00  0.00    +0.012 C 
ATOM      5  C   UNL     1       7.191  -5.225  24.286  0.00  0.00    +0.009 C 
ATOM      6  C   UNL     1       7.181  -5.178  22.752  0.00  0.00    +0.079 C 
ATOM      7  C   UNL     1       5.907  -4.464  22.441  0.00  0.00    +0.137 C 
ATOM      8  O   UNL     1       5.713  -3.839  21.406  0.00  0.00    -0.297 OA
ATOM      9  C   UNL     1       4.000  -5.890  22.988  0.00  0.00    +0.016 C 
ENDROOT
BRANCH   5  10
ATOM     10  C   UNL     1       8.252  -4.272  24.881  0.00  0.00    +0.092 C 
BRANCH  10  11
ATOM     11  C   UNL     1       9.213  -4.923  25.881  0.00  0.00    +0.345 C 
BRANCH  11  12
ATOM     12  O   UNL     1      10.165  -5.736  25.235  0.00  0.00    -0.507 OA
ATOM     13  H   UNL     1      10.520  -5.210  24.499  0.00  0.00    +0.287 HD
ENDBRANCH  11  12
BRANCH  11  14
ATOM     14  O   UNL     1       8.468  -5.740  26.759  0.00  0.00    -0.507 OA
ATOM     15  H   UNL     1       7.546  -5.674  26.457  0.00  0.00    +0.287 HD
ENDBRANCH  11  14
ENDBRANCH  10  11
ENDBRANCH   5  10
TORSDOF 4
ENDMDL
MODEL 4
REMARK VINA RESULT:      -4.9      5.251      6.940
REMARK  Name = 
REMARK  7 active torsions:
REMARK  status: ('A' for Active; 'I' for Inactive)
REMARK    1  A    between atoms: C_2  and  C_3
REMARK    2  A    between atoms: C_7  and  C_9
REMARK    3  A    between atoms: C_9  and  C_10
REMARK    4  A    between atoms: C_10  and  O_11
REMARK    5  A    between atoms: C_10  and  O_12
REMARK    6  A    between atoms: C_13  and  C_14
REMARK    7  A    between atoms: C_13  and  C_15
REMARK                            x       y       z     vdW  Elec       q    Type
REMARK                         _______ _______ _______ _____ _____    ______ ____
ROOT
ATOM      1  C   UNL     1       8.651  -1.664  23.681  0.00  0.00    +0.058 C 
ATOM      2  C   UNL     1       8.058  -0.343  24.267  0.00  0.00    -0.022 C 
ATOM      3  C   UNL     1       7.312  -0.549  25.599  0.00  0.00    +0.012 C 
ATOM      4  C   UNL     1       7.010   0.195  23.262  0.00  0.00    +0.012 C 
ATOM      5  C   UNL     1       9.276   0.637  24.502  0.00  0.00    +0.009 C 
ATOM      6  C   UNL     1      10.548  -0.123  24.103  0.00  0.00    +0.079 C 
ATOM      7  C   UNL     1      10.029  -1.237  23.255  0.00  0.00    +0.137 C 
ATOM      8  O   UNL     1      10.692  -1.805  22.397  0.00  0.00    -0.297 OA
ATOM      9  C   UNL     1       8.808  -2.837  24.640  0.00  0.00    +0.016 C 
ENDROOT
BRANCH   5  10
ATOM     10  C   UNL     1       9.176   2.001  23.783  0.00  0.00    +0.092 C 
BRANCH  10  11
ATOM     11  C   UNL     1      10.319   2.301  22.808  0.00  0.00    +0.345 C 
BRANCH  11  12
ATOM     12  O   UNL     1      10.790   3.621  22.948  0.00  0.00    -0.507 OA
ATOM     13  H   UNL     1      10.108   4.104  23.445  0.00  0.00    +0.287 HD
ENDBRANCH  11  12
BRANCH  11  14
ATOM     14  O   UNL     1       9.840   2.148  21.489  0.00  0.00    -0.507 OA
ATOM     15  H   UNL     1       9.604   1.209  21.404  0.00  0.00    +0.287 HD
ENDBRANCH  11  14
ENDBRANCH  10  11
ENDBRANCH   5  10
TORSDOF 4
ENDMDL
MODEL 5
REMARK VINA RESULT:      -4.8      1.837      3.539
REMARK  Name = 
REMARK  7 active torsions:
REMARK  status: ('A' for Active; 'I' for Inactive)
REMARK    1  A    between atoms: C_2  and  C_3
REMARK    2  A    between atoms: C_7  and  C_9
REMARK    3  A    between atoms: C_9  and  C_10
REMARK    4  A    between atoms: C_10  and  O_11
REMARK    5  A    between atoms: C_10  and  O_12
REMARK    6  A    between atoms: C_13  and  C_14
REMARK    7  A    between atoms: C_13  and  C_15
REMARK                            x       y       z     vdW  Elec       q    Type
REMARK                         _______ _______ _______ _____ _____    ______ ____
ROOT
ATOM      1  C   UNL     1       6.056  -4.434  22.400  0.00  0.00    +0.058 C 
ATOM      2  C   UNL     1       5.524  -5.059  23.730  0.00  0.00    -0.022 C 
ATOM      3  C   UNL     1       4.881  -6.445  23.537  0.00  0.00    +0.012 C 
ATOM      4  C   UNL     1       4.408  -4.136  24.277  0.00  0.00    +0.012 C 
ATOM      5  C   UNL     1       6.769  -5.194  24.697  0.00  0.00    +0.009 C 
ATOM      6  C   UNL     1       7.997  -4.702  23.920  0.00  0.00    +0.079 C 
ATOM      7  C   UNL     1       7.401  -3.902  22.809  0.00  0.00    +0.137 C 
ATOM      8  O   UNL     1       7.989  -2.998  22.230  0.00  0.00    -0.297 OA
ATOM      9  C   UNL     1       6.273  -5.384  21.229  0.00  0.00    +0.016 C 
ENDROOT
BRANCH   5  10
ATOM     10  C   UNL     1       6.629  -4.479  26.059  0.00  0.00    +0.092 C 
BRANCH  10  11
ATOM     11  C   UNL     1       6.650  -5.407  27.278  0.00  0.00    +0.345 C 
BRANCH  11  12
ATOM     12  O   UNL     1       7.950  -5.880  27.550  0.00  0.00    -0.507 OA
ATOM     13  H   UNL     1       8.354  -5.236  28.155  0.00  0.00    +0.287 HD
ENDBRANCH  11  12
BRANCH  11  14
ATOM     14  O   UNL     1       5.828  -6.523  27.012  0.00  0.00    -0.507 OA
ATOM     15  H   UNL     1       6.427  -7.289  26.991  0.00  0.00    +0.287 HD
ENDBRANCH  11  14
ENDBRANCH  10  11
ENDBRANCH   5  10
TORSDOF 4
ENDMDL
MODEL 6
REMARK VINA RESULT:      -4.8      3.512      5.158
REMARK  Name = 
REMARK  7 active torsions:
REMARK  status: ('A' for Active; 'I' for Inactive)
REMARK    1  A    between atoms: C_2  and  C_3
REMARK    2  A    between atoms: C_7  and  C_9
REMARK    3  A    between atoms: C_9  and  C_10
REMARK    4  A    between atoms: C_10  and  O_11
REMARK    5  A    between atoms: C_10  and  O_12
REMARK    6  A    between atoms: C_13  and  C_14
REMARK    7  A    between atoms: C_13  and  C_15
REMARK                            x       y       z     vdW  Elec       q    Type
REMARK                         _______ _______ _______ _____ _____    ______ ____
ROOT
ATOM      1  C   UNL     1       8.906  -0.669  23.785  0.00  0.00    +0.058 C 
ATOM      2  C   UNL     1       8.176  -1.284  25.021  0.00  0.00    -0.022 C 
ATOM      3  C   UNL     1       6.737  -0.768  25.198  0.00  0.00    +0.012 C 
ATOM      4  C   UNL     1       8.949  -0.855  26.293  0.00  0.00    +0.012 C 
ATOM      5  C   UNL     1       8.142  -2.849  24.795  0.00  0.00    +0.009 C 
ATOM      6  C   UNL     1       8.796  -3.122  23.434  0.00  0.00    +0.079 C 
ATOM      7  C   UNL     1       9.567  -1.871  23.170  0.00  0.00    +0.137 C 
ATOM      8  O   UNL     1      10.552  -1.820  22.444  0.00  0.00    -0.297 OA
ATOM      9  C   UNL     1       8.032  -0.026  22.716  0.00  0.00    +0.016 C 
ENDROOT
BRANCH   5  10
ATOM     10  C   UNL     1       8.784  -3.695  25.918  0.00  0.00    +0.092 C 
BRANCH  10  11
ATOM     11  C   UNL     1       8.871  -5.195  25.624  0.00  0.00    +0.345 C 
BRANCH  11  12
ATOM     12  O   UNL     1       8.353  -5.964  26.686  0.00  0.00    -0.507 OA
ATOM     13  H   UNL     1       9.106  -6.180  27.260  0.00  0.00    +0.287 HD
ENDBRANCH  11  12
BRANCH  11  14
ATOM     14  O   UNL     1      10.228  -5.546  25.455  0.00  0.00    -0.507 OA
ATOM     15  H   UNL     1      10.597  -5.601  26.352  0.00  0.00    +0.287 HD
ENDBRANCH  11  14
ENDBRANCH  10  11
ENDBRANCH   5  10
TORSDOF 4
ENDMDL
MODEL 7
REMARK VINA RESULT:      -4.8      2.118      3.605
REMARK  Name = 
REMARK  7 active torsions:
REMARK  status: ('A' for Active; 'I' for Inactive)
REMARK    1  A    between atoms: C_2  and  C_3
REMARK    2  A    between atoms: C_7  and  C_9
REMARK    3  A    between atoms: C_9  and  C_10
REMARK    4  A    between atoms: C_10  and  O_11
REMARK    5  A    between atoms: C_10  and  O_12
REMARK    6  A    between atoms: C_13  and  C_14
REMARK    7  A    between atoms: C_13  and  C_15
REMARK                            x       y       z     vdW  Elec       q    Type
REMARK                         _______ _______ _______ _____ _____    ______ ____
ROOT
ATOM      1  C   UNL     1       6.131  -3.013  23.035  0.00  0.00    +0.058 C 
ATOM      2  C   UNL     1       6.631  -4.148  23.985  0.00  0.00    -0.022 C 
ATOM      3  C   UNL     1       6.386  -5.561  23.426  0.00  0.00    +0.012 C 
ATOM      4  C   UNL     1       5.824  -4.056  25.303  0.00  0.00    +0.012 C 
ATOM      5  C   UNL     1       8.186  -3.928  24.175  0.00  0.00    +0.009 C 
ATOM      6  C   UNL     1       8.578  -2.720  23.313  0.00  0.00    +0.079 C 
ATOM      7  C   UNL     1       7.273  -2.036  23.071  0.00  0.00    +0.137 C 
ATOM      8  O   UNL     1       7.167  -0.842  22.818  0.00  0.00    -0.297 OA
ATOM      9  C   UNL     1       5.889  -3.387  21.578  0.00  0.00    +0.016 C 
ENDROOT
BRANCH   5  10
ATOM     10  C   UNL     1       8.658  -3.765  25.637  0.00  0.00    +0.092 C 
BRANCH  10  11
ATOM     11  C   UNL     1       9.397  -4.976  26.214  0.00  0.00    +0.345 C 
BRANCH  11  12
ATOM     12  O   UNL     1      10.079  -5.695  25.212  0.00  0.00    -0.507 OA
ATOM     13  H   UNL     1      10.863  -5.168  24.983  0.00  0.00    +0.287 HD
ENDBRANCH  11  12
BRANCH  11  14
ATOM     14  O   UNL     1       8.453  -5.843  26.805  0.00  0.00    -0.507 OA
ATOM     15  H   UNL     1       8.229  -6.493  26.117  0.00  0.00    +0.287 HD
ENDBRANCH  11  14
ENDBRANCH  10  11
ENDBRANCH   5  10
TORSDOF 4
ENDMDL
MODEL 8
REMARK VINA RESULT:      -4.8      4.371      6.249
REMARK  Name = 
REMARK  7 active torsions:
REMARK  status: ('A' for Active; 'I' for Inactive)
REMARK    1  A    between atoms: C_2  and  C_3
REMARK    2  A    between atoms: C_7  and  C_9
REMARK    3  A    between atoms: C_9  and  C_10
REMARK    4  A    between atoms: C_10  and  O_11
REMARK    5  A    between atoms: C_10  and  O_12
REMARK    6  A    between atoms: C_13  and  C_14
REMARK    7  A    between atoms: C_13  and  C_15
REMARK                            x       y       z     vdW  Elec       q    Type
REMARK                         _______ _______ _______ _____ _____    ______ ____
ROOT
ATOM      1  C   UNL     1       8.889   0.811  22.942  0.00  0.00    +0.058 C 
ATOM      2  C   UNL     1       8.742  -0.743  23.022  0.00  0.00    -0.022 C 
ATOM      3  C   UNL     1       9.314  -1.473  21.793  0.00  0.00    +0.012 C 
ATOM      4  C   UNL     1       7.230  -1.076  23.058  0.00  0.00    +0.012 C 
ATOM      5  C   UNL     1       9.526  -1.207  24.314  0.00  0.00    +0.009 C 
ATOM      6  C   UNL     1      10.152   0.049  24.936  0.00  0.00    +0.079 C 
ATOM      7  C   UNL     1       9.365   1.161  24.324  0.00  0.00    +0.137 C 
ATOM      8  O   UNL     1       9.227   2.262  24.842  0.00  0.00    -0.297 OA
ATOM      9  C   UNL     1       9.909   1.357  21.951  0.00  0.00    +0.016 C 
ENDROOT
BRANCH   5  10
ATOM     10  C   UNL     1       8.693  -2.001  25.345  0.00  0.00    +0.092 C 
BRANCH  10  11
ATOM     11  C   UNL     1       8.819  -3.524  25.238  0.00  0.00    +0.345 C 
BRANCH  11  12
ATOM     12  O   UNL     1       9.019  -4.119  26.500  0.00  0.00    -0.507 OA
ATOM     13  H   UNL     1       9.529  -4.931  26.342  0.00  0.00    +0.287 HD
ENDBRANCH  11  12
BRANCH  11  14
ATOM     14  O   UNL     1       9.936  -3.831  24.431  0.00  0.00    -0.507 OA
ATOM     15  H   UNL     1      10.631  -3.207  24.699  0.00  0.00    +0.287 HD
ENDBRANCH  11  14
ENDBRANCH  10  11
ENDBRANCH   5  10
TORSDOF 4
ENDMDL
MODEL 9
REMARK VINA RESULT:      -4.8      2.686      5.273
REMARK  Name = 
REMARK  7 active torsions:
REMARK  status: ('A' for Active; 'I' for Inactive)
REMARK    1  A    between atoms: C_2  and  C_3
REMARK    2  A    between atoms: C_7  and  C_9
REMARK    3  A    between atoms: C_9  and  C_10
REMARK    4  A    between atoms: C_10  and  O_11
REMARK    5  A    between atoms: C_10  and  O_12
REMARK    6  A    between atoms: C_13  and  C_14
REMARK    7  A    between atoms: C_13  and  C_15
REMARK                            x       y       z     vdW  Elec       q    Type
REMARK                         _______ _______ _______ _____ _____    ______ ____
ROOT
ATOM      1  C   UNL     1       9.355  -2.492  24.352  0.00  0.00    +0.058 C 
ATOM      2  C   UNL     1       8.184  -3.517  24.487  0.00  0.00    -0.022 C 
ATOM      3  C   UNL     1       7.239  -3.211  25.664  0.00  0.00    +0.012 C 
ATOM      4  C   UNL     1       8.800  -4.908  24.778  0.00  0.00    +0.012 C 
ATOM      5  C   UNL     1       7.366  -3.454  23.135  0.00  0.00    +0.009 C 
ATOM      6  C   UNL     1       8.026  -2.379  22.260  0.00  0.00    +0.079 C 
ATOM      7  C   UNL     1       9.380  -2.225  22.872  0.00  0.00    +0.137 C 
ATOM      8  O   UNL     1      10.360  -1.818  22.262  0.00  0.00    -0.297 OA
ATOM      9  C   UNL     1       9.187  -1.154  25.059  0.00  0.00    +0.016 C 
ENDROOT
BRANCH   5  10
ATOM     10  C   UNL     1       7.225  -4.796  22.383  0.00  0.00    +0.092 C 
BRANCH  10  11
ATOM     11  C   UNL     1       5.796  -5.341  22.301  0.00  0.00    +0.345 C 
BRANCH  11  12
ATOM     12  O   UNL     1       5.591  -6.091  21.126  0.00  0.00    -0.507 OA
ATOM     13  H   UNL     1       6.157  -6.877  21.201  0.00  0.00    +0.287 HD
ENDBRANCH  11  12
BRANCH  11  14
ATOM     14  O   UNL     1       4.896  -4.253  22.286  0.00  0.00    -0.507 OA
ATOM     15  H   UNL     1       5.330  -3.564  21.754  0.00  0.00    +0.287 HD
ENDBRANCH  11  14
ENDBRANCH  10  11
ENDBRANCH   5  10
TORSDOF 4
ENDMDL
