MODEL 1
REMARK VINA RESULT:      -7.5      0.000      0.000
REMARK  Name = 
REMARK  5 active torsions:
REMARK  status: ('A' for Active; 'I' for Inactive)
REMARK    1  A    between atoms: O_1  and  C_2
REMARK    2  A    between atoms: C_4  and  C_5
REMARK    3  A    between atoms: C_5  and  C_6
REMARK    4  A    between atoms: C_14  and  O_15
REMARK    5  A    between atoms: O_15  and  C_16
REMARK                            x       y       z     vdW  Elec       q    Type
REMARK                         _______ _______ _______ _____ _____    ______ ____
ROOT
ATOM      1  C   UNL     1       9.992  -1.128  22.654  0.00  0.00    +0.159 A 
ATOM      2  C   UNL     1       9.741  -1.802  23.849  0.00  0.00    +0.170 A 
ATOM      3  C   UNL     1       9.353  -1.082  24.986  0.00  0.00    +0.050 A 
ATOM      4  C   UNL     1       9.450   0.307  24.987  0.00  0.00    +0.008 A 
ATOM      5  C   UNL     1       9.854   0.986  23.831  0.00  0.00    -0.038 A 
ATOM      6  C   UNL     1      10.040   0.265  22.638  0.00  0.00    +0.053 A 
ENDROOT
BRANCH   1   7
ATOM      7  O   UNL     1      10.262  -1.842  21.521  0.00  0.00    -0.503 OA
ATOM      8  H   UNL     1       9.426  -2.093  21.098  0.00  0.00    +0.292 HD
ENDBRANCH   1   7
BRANCH   2   9
ATOM      9  O   UNL     1       9.985  -3.162  23.906  0.00  0.00    -0.451 OA
BRANCH   9  10
ATOM     10  C   UNL     1       9.051  -3.935  24.582  0.00  0.00    +0.147 A 
ATOM     11  C   UNL     1       7.831  -4.211  23.957  0.00  0.00    +0.085 A 
ATOM     12 CL   UNL     1       7.546  -3.792  22.308  0.00  0.00    -0.080 Cl
ATOM     13  C   UNL     1       6.799  -4.828  24.673  0.00  0.00    +0.043 A 
ATOM     14  C   UNL     1       6.996  -5.182  26.009  0.00  0.00    +0.043 A 
ATOM     15 CL   UNL     1       5.694  -5.829  26.925  0.00  0.00    -0.083 Cl
ATOM     16  C   UNL     1       8.235  -4.996  26.612  0.00  0.00    +0.023 A 
ATOM     17  C   UNL     1       9.272  -4.413  25.886  0.00  0.00    +0.049 A 
ENDBRANCH   9  10
ENDBRANCH   2   9
BRANCH   5  18
ATOM     18  C   UNL     1      10.220   2.453  23.900  0.00  0.00    +0.090 C 
BRANCH  18  19
ATOM     19  C   UNL     1       9.118   3.374  23.403  0.00  0.00    +0.046 A 
ATOM     20  N   UNL     1       9.198   4.680  23.760  0.00  0.00    -0.260 NA
ATOM     21  C   UNL     1       8.231   5.513  23.311  0.00  0.00    +0.111 A 
ATOM     22  C   UNL     1       7.166   5.110  22.521  0.00  0.00    +0.020 A 
ATOM     23  C   UNL     1       7.093   3.773  22.162  0.00  0.00    +0.003 A 
ATOM     24  C   UNL     1       8.081   2.892  22.599  0.00  0.00    +0.023 A 
ENDBRANCH  18  19
ENDBRANCH   5  18
TORSDOF 5
ENDMDL
MODEL 2
REMARK VINA RESULT:      -7.4      1.283      1.776
REMARK  Name = 
REMARK  5 active torsions:
REMARK  status: ('A' for Active; 'I' for Inactive)
REMARK    1  A    between atoms: O_1  and  C_2
REMARK    2  A    between atoms: C_4  and  C_5
REMARK    3  A    between atoms: C_5  and  C_6
REMARK    4  A    between atoms: C_14  and  O_15
REMARK    5  A    between atoms: O_15  and  C_16
REMARK                            x       y       z     vdW  Elec       q    Type
REMARK                         _______ _______ _______ _____ _____    ______ ____
ROOT
ATOM      1  C   UNL     1       9.971  -0.912  22.599  0.00  0.00    +0.159 A 
ATOM      2  C   UNL     1       9.575  -1.526  23.787  0.00  0.00    +0.170 A 
ATOM      3  C   UNL     1       9.196  -0.739  24.883  0.00  0.00    +0.050 A 
ATOM      4  C   UNL     1       9.442   0.631  24.865  0.00  0.00    +0.008 A 
ATOM      5  C   UNL     1       9.989   1.234  23.726  0.00  0.00    -0.038 A 
ATOM      6  C   UNL     1      10.171   0.467  22.561  0.00  0.00    +0.053 A 
ENDROOT
BRANCH   1   7
ATOM      7  O   UNL     1      10.235  -1.679  21.500  0.00  0.00    -0.503 OA
ATOM      8  H   UNL     1       9.860  -1.247  20.716  0.00  0.00    +0.292 HD
ENDBRANCH   1   7
BRANCH   2   9
ATOM      9  O   UNL     1       9.666  -2.902  23.886  0.00  0.00    -0.451 OA
BRANCH   9  10
ATOM     10  C   UNL     1       8.470  -3.607  23.895  0.00  0.00    +0.147 A 
ATOM     11  C   UNL     1       8.122  -4.320  25.046  0.00  0.00    +0.085 A 
ATOM     12 CL   UNL     1       9.031  -4.180  26.506  0.00  0.00    -0.080 Cl
ATOM     13  C   UNL     1       7.022  -5.185  25.030  0.00  0.00    +0.043 A 
ATOM     14  C   UNL     1       6.264  -5.322  23.866  0.00  0.00    +0.043 A 
ATOM     15 CL   UNL     1       4.987  -6.471  23.804  0.00  0.00    -0.083 Cl
ATOM     16  C   UNL     1       6.545  -4.548  22.746  0.00  0.00    +0.023 A 
ATOM     17  C   UNL     1       7.620  -3.661  22.776  0.00  0.00    +0.049 A 
ENDBRANCH   9  10
ENDBRANCH   2   9
BRANCH   5  18
ATOM     18  C   UNL     1      10.507   2.654  23.792  0.00  0.00    +0.090 C 
BRANCH  18  19
ATOM     19  C   UNL     1       9.461   3.695  23.430  0.00  0.00    +0.046 A 
ATOM     20  N   UNL     1       9.738   4.985  23.745  0.00  0.00    -0.260 NA
ATOM     21  C   UNL     1       8.821   5.923  23.414  0.00  0.00    +0.111 A 
ATOM     22  C   UNL     1       7.619   5.642  22.784  0.00  0.00    +0.020 A 
ATOM     23  C   UNL     1       7.344   4.321  22.466  0.00  0.00    +0.003 A 
ATOM     24  C   UNL     1       8.275   3.334  22.784  0.00  0.00    +0.023 A 
ENDBRANCH  18  19
ENDBRANCH   5  18
TORSDOF 5
ENDMDL
MODEL 3
REMARK VINA RESULT:      -7.3      1.772      2.729
REMARK  Name = 
REMARK  5 active torsions:
REMARK  status: ('A' for Active; 'I' for Inactive)
REMARK    1  A    between atoms: O_1  and  C_2
REMARK    2  A    between atoms: C_4  and  C_5
REMARK    3  A    between atoms: C_5  and  C_6
REMARK    4  A    between atoms: C_14  and  O_15
REMARK    5  A    between atoms: O_15  and  C_16
REMARK                            x       y       z     vdW  Elec       q    Type
REMARK                         _______ _______ _______ _____ _____    ______ ____
ROOT
ATOM      1  C   UNL     1       9.444  -0.400  25.436  0.00  0.00    +0.159 A 
ATOM      2  C   UNL     1       9.333  -1.551  24.657  0.00  0.00    +0.170 A 
ATOM      3  C   UNL     1       9.827  -1.553  23.346  0.00  0.00    +0.050 A 
ATOM      4  C   UNL     1      10.205  -0.352  22.750  0.00  0.00    +0.008 A 
ATOM      5  C   UNL     1      10.169   0.840  23.484  0.00  0.00    -0.038 A 
ATOM      6  C   UNL     1       9.869   0.795  24.857  0.00  0.00    +0.053 A 
ENDROOT
BRANCH   1   7
ATOM      7  O   UNL     1       9.061  -0.434  26.748  0.00  0.00    -0.503 OA
ATOM      8  H   UNL     1       9.799  -0.766  27.283  0.00  0.00    +0.292 HD
ENDBRANCH   1   7
BRANCH   2   9
ATOM      9  O   UNL     1       8.641  -2.634  25.167  0.00  0.00    -0.451 OA
BRANCH   9  10
ATOM     10  C   UNL     1       7.915  -3.393  24.261  0.00  0.00    +0.147 A 
ATOM     11  C   UNL     1       8.245  -4.742  24.101  0.00  0.00    +0.085 A 
ATOM     12 CL   UNL     1       9.381  -5.524  25.139  0.00  0.00    -0.080 Cl
ATOM     13  C   UNL     1       7.661  -5.491  23.073  0.00  0.00    +0.043 A 
ATOM     14  C   UNL     1       6.738  -4.891  22.216  0.00  0.00    +0.043 A 
ATOM     15 CL   UNL     1       6.110  -5.771  20.879  0.00  0.00    -0.083 Cl
ATOM     16  C   UNL     1       6.334  -3.578  22.423  0.00  0.00    +0.023 A 
ATOM     17  C   UNL     1       6.890  -2.844  23.470  0.00  0.00    +0.049 A 
ENDBRANCH   9  10
ENDBRANCH   2   9
BRANCH   5  18
ATOM     18  C   UNL     1      10.313   2.171  22.778  0.00  0.00    +0.090 C 
BRANCH  18  19
ATOM     19  C   UNL     1       9.033   2.990  22.767  0.00  0.00    +0.046 A 
ATOM     20  N   UNL     1       9.024   4.131  23.500  0.00  0.00    -0.260 NA
ATOM     21  C   UNL     1       7.896   4.876  23.486  0.00  0.00    +0.111 A 
ATOM     22  C   UNL     1       6.753   4.538  22.780  0.00  0.00    +0.020 A 
ATOM     23  C   UNL     1       6.771   3.370  22.034  0.00  0.00    +0.003 A 
ATOM     24  C   UNL     1       7.924   2.587  22.018  0.00  0.00    +0.023 A 
ENDBRANCH  18  19
ENDBRANCH   5  18
TORSDOF 5
ENDMDL
MODEL 4
REMARK VINA RESULT:      -7.1      2.199      3.238
REMARK  Name = 
REMARK  5 active torsions:
REMARK  status: ('A' for Active; 'I' for Inactive)
REMARK    1  A    between atoms: O_1  and  C_2
REMARK    2  A    between atoms: C_4  and  C_5
REMARK    3  A    between atoms: C_5  and  C_6
REMARK    4  A    between atoms: C_14  and  O_15
REMARK    5  A    between atoms: O_15  and  C_16
REMARK                            x       y       z     vdW  Elec       q    Type
REMARK                         _______ _______ _______ _____ _____    ______ ____
ROOT
ATOM      1  C   UNL     1       9.812  -0.016  24.413  0.00  0.00    +0.159 A 
ATOM      2  C   UNL     1       9.892  -0.644  23.171  0.00  0.00    +0.170 A 
ATOM      3  C   UNL     1      10.022   0.127  22.009  0.00  0.00    +0.050 A 
ATOM      4  C   UNL     1       9.832   1.505  22.072  0.00  0.00    +0.008 A 
ATOM      5  C   UNL     1       9.593   2.127  23.303  0.00  0.00    -0.038 A 
ATOM      6  C   UNL     1       9.671   1.370  24.484  0.00  0.00    +0.053 A 
ENDROOT
BRANCH   1   7
ATOM      7  O   UNL     1       9.795  -0.771  25.551  0.00  0.00    -0.503 OA
ATOM      8  H   UNL     1       9.135  -0.408  26.163  0.00  0.00    +0.292 HD
ENDBRANCH   1   7
BRANCH   2   9
ATOM      9  O   UNL     1       9.736  -2.017  23.110  0.00  0.00    -0.451 OA
BRANCH   9  10
ATOM     10  C   UNL     1       8.443  -2.504  23.242  0.00  0.00    +0.147 A 
ATOM     11  C   UNL     1       8.234  -3.650  24.014  0.00  0.00    +0.085 A 
ATOM     12 CL   UNL     1       9.498  -4.344  24.962  0.00  0.00    -0.080 Cl
ATOM     13  C   UNL     1       6.981  -4.273  24.022  0.00  0.00    +0.043 A 
ATOM     14  C   UNL     1       5.936  -3.737  23.267  0.00  0.00    +0.043 A 
ATOM     15 CL   UNL     1       4.431  -4.564  23.178  0.00  0.00    -0.083 Cl
ATOM     16  C   UNL     1       6.107  -2.547  22.570  0.00  0.00    +0.023 A 
ATOM     17  C   UNL     1       7.346  -1.909  22.592  0.00  0.00    +0.049 A 
ENDBRANCH   9  10
ENDBRANCH   2   9
BRANCH   5  18
ATOM     18  C   UNL     1       9.120   3.565  23.348  0.00  0.00    +0.090 C 
BRANCH  18  19
ATOM     19  C   UNL     1      10.219   4.550  23.708  0.00  0.00    +0.046 A 
ATOM     20  N   UNL     1       9.868   5.615  24.472  0.00  0.00    -0.260 NA
ATOM     21  C   UNL     1      10.841   6.491  24.811  0.00  0.00    +0.111 A 
ATOM     22  C   UNL     1      12.164   6.371  24.418  0.00  0.00    +0.020 A 
ATOM     23  C   UNL     1      12.513   5.280  23.636  0.00  0.00    +0.003 A 
ATOM     24  C   UNL     1      11.535   4.353  23.280  0.00  0.00    +0.023 A 
ENDBRANCH  18  19
ENDBRANCH   5  18
TORSDOF 5
ENDMDL
MODEL 5
REMARK VINA RESULT:      -7.1      3.673      7.210
REMARK  Name = 
REMARK  5 active torsions:
REMARK  status: ('A' for Active; 'I' for Inactive)
REMARK    1  A    between atoms: O_1  and  C_2
REMARK    2  A    between atoms: C_4  and  C_5
REMARK    3  A    between atoms: C_5  and  C_6
REMARK    4  A    between atoms: C_14  and  O_15
REMARK    5  A    between atoms: O_15  and  C_16
REMARK                            x       y       z     vdW  Elec       q    Type
REMARK                         _______ _______ _______ _____ _____    ______ ____
ROOT
ATOM      1  C   UNL     1      10.063  -1.421  22.784  0.00  0.00    +0.159 A 
ATOM      2  C   UNL     1      10.051  -0.182  23.426  0.00  0.00    +0.170 A 
ATOM      3  C   UNL     1       9.668  -0.100  24.771  0.00  0.00    +0.050 A 
ATOM      4  C   UNL     1       9.079  -1.200  25.388  0.00  0.00    +0.008 A 
ATOM      5  C   UNL     1       8.945  -2.409  24.694  0.00  0.00    -0.038 A 
ATOM      6  C   UNL     1       9.519  -2.537  23.417  0.00  0.00    +0.053 A 
ENDROOT
BRANCH   1   7
ATOM      7  O   UNL     1      10.540  -1.514  21.507  0.00  0.00    -0.503 OA
ATOM      8  H   UNL     1      11.495  -1.684  21.539  0.00  0.00    +0.292 HD
ENDBRANCH   1   7
BRANCH   2   9
ATOM      9  O   UNL     1      10.319   0.953  22.683  0.00  0.00    -0.451 OA
BRANCH   9  10
ATOM     10  C   UNL     1       9.281   1.862  22.537  0.00  0.00    +0.147 A 
ATOM     11  C   UNL     1       9.436   3.147  23.067  0.00  0.00    +0.085 A 
ATOM     12 CL   UNL     1      10.946   3.683  23.708  0.00  0.00    -0.080 Cl
ATOM     13  C   UNL     1       8.350   4.029  23.101  0.00  0.00    +0.043 A 
ATOM     14  C   UNL     1       7.115   3.627  22.590  0.00  0.00    +0.043 A 
ATOM     15 CL   UNL     1       5.749   4.661  22.738  0.00  0.00    -0.083 Cl
ATOM     16  C   UNL     1       6.974   2.388  21.977  0.00  0.00    +0.023 A 
ATOM     17  C   UNL     1       8.067   1.524  21.913  0.00  0.00    +0.049 A 
ENDBRANCH   9  10
ENDBRANCH   2   9
BRANCH   5  18
ATOM     18  C   UNL     1       8.072  -3.512  25.253  0.00  0.00    +0.090 C 
BRANCH  18  19
ATOM     19  C   UNL     1       7.162  -4.146  24.214  0.00  0.00    +0.046 A 
ATOM     20  N   UNL     1       5.958  -3.556  24.006  0.00  0.00    -0.260 NA
ATOM     21  C   UNL     1       5.145  -4.102  23.074  0.00  0.00    +0.111 A 
ATOM     22  C   UNL     1       5.464  -5.227  22.330  0.00  0.00    +0.020 A 
ATOM     23  C   UNL     1       6.697  -5.823  22.550  0.00  0.00    +0.003 A 
ATOM     24  C   UNL     1       7.562  -5.277  23.496  0.00  0.00    +0.023 A 
ENDBRANCH  18  19
ENDBRANCH   5  18
TORSDOF 5
ENDMDL
MODEL 6
REMARK VINA RESULT:      -7.1      3.735      7.808
REMARK  Name = 
REMARK  5 active torsions:
REMARK  status: ('A' for Active; 'I' for Inactive)
REMARK    1  A    between atoms: O_1  and  C_2
REMARK    2  A    between atoms: C_4  and  C_5
REMARK    3  A    between atoms: C_5  and  C_6
REMARK    4  A    between atoms: C_14  and  O_15
REMARK    5  A    between atoms: O_15  and  C_16
REMARK                            x       y       z     vdW  Elec       q    Type
REMARK                         _______ _______ _______ _____ _____    ______ ____
ROOT
ATOM      1  C   UNL     1       8.790  -3.877  23.931  0.00  0.00    +0.159 A 
ATOM      2  C   UNL     1       8.796  -2.680  23.216  0.00  0.00    +0.170 A 
ATOM      3  C   UNL     1       7.692  -2.336  22.425  0.00  0.00    +0.050 A 
ATOM      4  C   UNL     1       6.707  -3.286  22.167  0.00  0.00    +0.008 A 
ATOM      5  C   UNL     1       6.777  -4.552  22.761  0.00  0.00    -0.038 A 
ATOM      6  C   UNL     1       7.778  -4.812  23.713  0.00  0.00    +0.053 A 
ENDROOT
BRANCH   1   7
ATOM      7  O   UNL     1       9.818  -4.158  24.785  0.00  0.00    -0.503 OA
ATOM      8  H   UNL     1      10.293  -4.940  24.461  0.00  0.00    +0.292 HD
ENDBRANCH   1   7
BRANCH   2   9
ATOM      9  O   UNL     1       9.943  -1.908  23.225  0.00  0.00    -0.451 OA
BRANCH   9  10
ATOM     10  C   UNL     1       9.769  -0.532  23.200  0.00  0.00    +0.147 A 
ATOM     11  C   UNL     1       9.379   0.116  24.377  0.00  0.00    +0.085 A 
ATOM     12 CL   UNL     1       9.311  -0.717  25.886  0.00  0.00    -0.080 Cl
ATOM     13  C   UNL     1       9.019   1.468  24.349  0.00  0.00    +0.043 A 
ATOM     14  C   UNL     1       9.063   2.172  23.144  0.00  0.00    +0.043 A 
ATOM     15 CL   UNL     1       8.507   3.798  23.081  0.00  0.00    -0.083 Cl
ATOM     16  C   UNL     1       9.538   1.564  21.989  0.00  0.00    +0.023 A 
ATOM     17  C   UNL     1       9.930   0.227  22.026  0.00  0.00    +0.049 A 
ENDBRANCH   9  10
ENDBRANCH   2   9
BRANCH   5  18
ATOM     18  C   UNL     1       5.873  -5.668  22.281  0.00  0.00    +0.090 C 
BRANCH  18  19
ATOM     19  C   UNL     1       4.636  -5.855  23.142  0.00  0.00    +0.046 A 
ATOM     20  N   UNL     1       3.575  -5.050  22.883  0.00  0.00    -0.260 NA
ATOM     21  C   UNL     1       2.462  -5.217  23.633  0.00  0.00    +0.111 A 
ATOM     22  C   UNL     1       2.347  -6.150  24.651  0.00  0.00    +0.020 A 
ATOM     23  C   UNL     1       3.436  -6.968  24.909  0.00  0.00    +0.003 A 
ATOM     24  C   UNL     1       4.593  -6.828  24.145  0.00  0.00    +0.023 A 
ENDBRANCH  18  19
ENDBRANCH   5  18
TORSDOF 5
ENDMDL
MODEL 7
REMARK VINA RESULT:      -7.0      3.581      7.685
REMARK  Name = 
REMARK  5 active torsions:
REMARK  status: ('A' for Active; 'I' for Inactive)
REMARK    1  A    between atoms: O_1  and  C_2
REMARK    2  A    between atoms: C_4  and  C_5
REMARK    3  A    between atoms: C_5  and  C_6
REMARK    4  A    between atoms: C_14  and  O_15
REMARK    5  A    between atoms: O_15  and  C_16
REMARK                            x       y       z     vdW  Elec       q    Type
REMARK                         _______ _______ _______ _____ _____    ______ ____
ROOT
ATOM      1  C   UNL     1       9.724  -1.805  23.162  0.00  0.00    +0.159 A 
ATOM      2  C   UNL     1       8.917  -0.780  23.655  0.00  0.00    +0.170 A 
ATOM      3  C   UNL     1       8.366  -0.885  24.939  0.00  0.00    +0.050 A 
ATOM      4  C   UNL     1       8.428  -2.099  25.618  0.00  0.00    +0.008 A 
ATOM      5  C   UNL     1       9.107  -3.186  25.056  0.00  0.00    -0.038 A 
ATOM      6  C   UNL     1       9.829  -3.006  23.863  0.00  0.00    +0.053 A 
ENDROOT
BRANCH   1   7
ATOM      7  O   UNL     1      10.347  -1.652  21.956  0.00  0.00    -0.503 OA
ATOM      8  H   UNL     1       9.776  -1.132  21.369  0.00  0.00    +0.292 HD
ENDBRANCH   1   7
BRANCH   2   9
ATOM      9  O   UNL     1       8.594   0.272  22.817  0.00  0.00    -0.451 OA
BRANCH   9  10
ATOM     10  C   UNL     1       9.022   1.533  23.206  0.00  0.00    +0.147 A 
ATOM     11  C   UNL     1       8.061   2.511  23.480  0.00  0.00    +0.085 A 
ATOM     12 CL   UNL     1       6.379   2.133  23.543  0.00  0.00    -0.080 Cl
ATOM     13  C   UNL     1       8.451   3.838  23.698  0.00  0.00    +0.043 A 
ATOM     14  C   UNL     1       9.804   4.178  23.655  0.00  0.00    +0.043 A 
ATOM     15 CL   UNL     1      10.279   5.824  23.801  0.00  0.00    -0.083 Cl
ATOM     16  C   UNL     1      10.773   3.198  23.476  0.00  0.00    +0.023 A 
ATOM     17  C   UNL     1      10.384   1.872  23.295  0.00  0.00    +0.049 A 
ENDBRANCH   9  10
ENDBRANCH   2   9
BRANCH   5  18
ATOM     18  C   UNL     1       8.950  -4.569  25.650  0.00  0.00    +0.090 C 
BRANCH  18  19
ATOM     19  C   UNL     1       7.548  -5.136  25.497  0.00  0.00    +0.046 A 
ATOM     20  N   UNL     1       6.978  -5.680  26.601  0.00  0.00    -0.260 NA
ATOM     21  C   UNL     1       5.724  -6.174  26.481  0.00  0.00    +0.111 A 
ATOM     22  C   UNL     1       4.998  -6.165  25.301  0.00  0.00    +0.020 A 
ATOM     23  C   UNL     1       5.589  -5.607  24.178  0.00  0.00    +0.003 A 
ATOM     24  C   UNL     1       6.875  -5.079  24.273  0.00  0.00    +0.023 A 
ENDBRANCH  18  19
ENDBRANCH   5  18
TORSDOF 5
ENDMDL
MODEL 8
REMARK VINA RESULT:      -6.9      3.733      7.752
REMARK  Name = 
REMARK  5 active torsions:
REMARK  status: ('A' for Active; 'I' for Inactive)
REMARK    1  A    between atoms: O_1  and  C_2
REMARK    2  A    between atoms: C_4  and  C_5
REMARK    3  A    between atoms: C_5  and  C_6
REMARK    4  A    between atoms: C_14  and  O_15
REMARK    5  A    between atoms: O_15  and  C_16
REMARK                            x       y       z     vdW  Elec       q    Type
REMARK                         _______ _______ _______ _____ _____    ______ ____
ROOT
ATOM      1  C   UNL     1       9.506  -1.021  22.499  0.00  0.00    +0.159 A 
ATOM      2  C   UNL     1       8.921  -0.057  23.319  0.00  0.00    +0.170 A 
ATOM      3  C   UNL     1       8.644  -0.359  24.659  0.00  0.00    +0.050 A 
ATOM      4  C   UNL     1       8.731  -1.676  25.101  0.00  0.00    +0.008 A 
ATOM      5  C   UNL     1       9.172  -2.682  24.233  0.00  0.00    -0.038 A 
ATOM      6  C   UNL     1       9.642  -2.332  22.955  0.00  0.00    +0.053 A 
ENDROOT
BRANCH   1   7
ATOM      7  O   UNL     1       9.875  -0.690  21.226  0.00  0.00    -0.503 OA
ATOM      8  H   UNL     1       9.097  -0.363  20.747  0.00  0.00    +0.292 HD
ENDBRANCH   1   7
BRANCH   2   9
ATOM      9  O   UNL     1       8.531   1.144  22.756  0.00  0.00    -0.451 OA
BRANCH   9  10
ATOM     10  C   UNL     1       9.176   2.285  23.212  0.00  0.00    +0.147 A 
ATOM     11  C   UNL     1       8.408   3.311  23.771  0.00  0.00    +0.085 A 
ATOM     12 CL   UNL     1       6.725   3.109  24.089  0.00  0.00    -0.080 Cl
ATOM     13  C   UNL     1       8.998   4.544  24.073  0.00  0.00    +0.043 A 
ATOM     14  C   UNL     1      10.358   4.741  23.829  0.00  0.00    +0.043 A 
ATOM     15 CL   UNL     1      11.059   6.290  24.085  0.00  0.00    -0.083 Cl
ATOM     16  C   UNL     1      11.149   3.699  23.361  0.00  0.00    +0.023 A 
ATOM     17  C   UNL     1      10.567   2.461  23.094  0.00  0.00    +0.049 A 
ENDBRANCH   9  10
ENDBRANCH   2   9
BRANCH   5  18
ATOM     18  C   UNL     1       9.012  -4.138  24.614  0.00  0.00    +0.090 C 
BRANCH  18  19
ATOM     19  C   UNL     1       7.788  -4.793  23.997  0.00  0.00    +0.046 A 
ATOM     20  N   UNL     1       7.945  -5.375  22.782  0.00  0.00    -0.260 NA
ATOM     21  C   UNL     1       6.866  -5.974  22.229  0.00  0.00    +0.111 A 
ATOM     22  C   UNL     1       5.615  -6.018  22.823  0.00  0.00    +0.020 A 
ATOM     23  C   UNL     1       5.464  -5.420  24.064  0.00  0.00    +0.003 A 
ATOM     24  C   UNL     1       6.560  -4.805  24.665  0.00  0.00    +0.023 A 
ENDBRANCH  18  19
ENDBRANCH   5  18
TORSDOF 5
ENDMDL
MODEL 9
REMARK VINA RESULT:      -6.9      3.573      7.756
REMARK  Name = 
REMARK  5 active torsions:
REMARK  status: ('A' for Active; 'I' for Inactive)
REMARK    1  A    between atoms: O_1  and  C_2
REMARK    2  A    between atoms: C_4  and  C_5
REMARK    3  A    between atoms: C_5  and  C_6
REMARK    4  A    between atoms: C_14  and  O_15
REMARK    5  A    between atoms: O_15  and  C_16
REMARK                            x       y       z     vdW  Elec       q    Type
REMARK                         _______ _______ _______ _____ _____    ______ ____
ROOT
ATOM      1  C   UNL     1       9.019  -1.470  22.156  0.00  0.00    +0.159 A 
ATOM      2  C   UNL     1       8.213  -0.353  22.373  0.00  0.00    +0.170 A 
ATOM      3  C   UNL     1       7.082  -0.459  23.193  0.00  0.00    +0.050 A 
ATOM      4  C   UNL     1       6.635  -1.717  23.590  0.00  0.00    +0.008 A 
ATOM      5  C   UNL     1       7.358  -2.864  23.241  0.00  0.00    -0.038 A 
ATOM      6  C   UNL     1       8.600  -2.726  22.595  0.00  0.00    +0.053 A 
ENDROOT
BRANCH   1   7
ATOM      7  O   UNL     1      10.179  -1.338  21.447  0.00  0.00    -0.503 OA
ATOM      8  H   UNL     1      10.484  -0.419  21.509  0.00  0.00    +0.292 HD
ENDBRANCH   1   7
BRANCH   2   9
ATOM      9  O   UNL     1       8.496   0.813  21.685  0.00  0.00    -0.451 OA
BRANCH   9  10
ATOM     10  C   UNL     1       8.943   1.889  22.439  0.00  0.00    +0.147 A 
ATOM     11  C   UNL     1       8.080   2.971  22.640  0.00  0.00    +0.085 A 
ATOM     12 CL   UNL     1       6.426   2.909  22.153  0.00  0.00    -0.080 Cl
ATOM     13  C   UNL     1       8.552   4.145  23.237  0.00  0.00    +0.043 A 
ATOM     14  C   UNL     1       9.885   4.228  23.644  0.00  0.00    +0.043 A 
ATOM     15 CL   UNL     1      10.501   5.708  24.265  0.00  0.00    -0.083 Cl
ATOM     16  C   UNL     1      10.726   3.127  23.533  0.00  0.00    +0.023 A 
ATOM     17  C   UNL     1      10.244   1.947  22.971  0.00  0.00    +0.049 A 
ENDBRANCH   9  10
ENDBRANCH   2   9
BRANCH   5  18
ATOM     18  C   UNL     1       6.746  -4.235  23.430  0.00  0.00    +0.090 C 
BRANCH  18  19
ATOM     19  C   UNL     1       6.781  -4.718  24.870  0.00  0.00    +0.046 A 
ATOM     20  N   UNL     1       7.970  -4.645  25.517  0.00  0.00    -0.260 NA
ATOM     21  C   UNL     1       8.011  -5.058  26.805  0.00  0.00    +0.111 A 
ATOM     22  C   UNL     1       6.917  -5.557  27.492  0.00  0.00    +0.020 A 
ATOM     23  C   UNL     1       5.705  -5.629  26.823  0.00  0.00    +0.003 A 
ATOM     24  C   UNL     1       5.629  -5.200  25.499  0.00  0.00    +0.023 A 
ENDBRANCH  18  19
ENDBRANCH   5  18
TORSDOF 5
ENDMDL
