MODEL 1
REMARK VINA RESULT:      -7.0      0.000      0.000
REMARK  Name = 
REMARK  3 active torsions:
REMARK  status: ('A' for Active; 'I' for Inactive)
REMARK    1  A    between atoms: C_7  and  C_8
REMARK    2  A    between atoms: N_16  and  C_17
REMARK    3  A    between atoms: C_17  and  C_18
REMARK                            x       y       z     vdW  Elec       q    Type
REMARK                         _______ _______ _______ _____ _____    ______ ____
ROOT
ATOM      1  C   UNL     1       8.044  -2.447  23.703  0.00  0.00    +0.092 A 
ATOM      2  N   UNL     1       8.010  -3.362  24.762  0.00  0.00    -0.227 NA
ATOM      3  C   UNL     1       7.476  -4.551  24.582  0.00  0.00    +0.163 A 
ATOM      4  N   UNL     1       7.483  -5.490  25.593  0.00  0.00    -0.322 N 
ATOM      5  H   UNL     1       7.107  -6.399  25.334  0.00  0.00    +0.148 HD
ATOM      6  C   UNL     1       6.879  -4.871  23.298  0.00  0.00    +0.178 A 
ATOM      7  N   UNL     1       6.902  -3.939  22.304  0.00  0.00    -0.302 N 
ATOM      8  C   UNL     1       6.254  -4.485  21.229  0.00  0.00    +0.112 A 
ATOM      9  C   UNL     1       5.860  -5.738  21.648  0.00  0.00    +0.131 A 
ATOM     10  N   UNL     1       6.258  -5.978  22.943  0.00  0.00    -0.233 NA
ATOM     11  C   UNL     1       7.511  -2.717  22.494  0.00  0.00    +0.121 A 
ENDROOT
BRANCH   1  14
ATOM     12  F   UNL     1      10.705  -1.839  22.651  0.00  0.00    -0.205 F 
ATOM     13  C   UNL     1      10.078  -0.929  23.415  0.00  0.00    +0.133 A 
ATOM     14  C   UNL     1       8.790  -1.174  23.919  0.00  0.00    +0.037 A 
ATOM     15  C   UNL     1       8.194  -0.151  24.677  0.00  0.00    +0.013 A 
ATOM     16  C   UNL     1       8.866   1.046  24.946  0.00  0.00    +0.001 A 
ATOM     17  C   UNL     1      10.154   1.250  24.453  0.00  0.00    +0.003 A 
ATOM     18  C   UNL     1      10.759   0.259  23.682  0.00  0.00    +0.039 A 
ENDBRANCH   1  14
BRANCH   4  19
ATOM     19  C   UNL     1       7.448  -5.145  26.993  0.00  0.00    +0.140 C 
BRANCH  19  20
ATOM     20  C   UNL     1       6.252  -5.771  27.665  0.00  0.00    -0.012 A 
ATOM     21  C   UNL     1       6.345  -6.303  28.946  0.00  0.00    +0.115 A 
ATOM     22  N   UNL     1       5.306  -6.846  29.624  0.00  0.00    -0.263 NA
ATOM     23  C   UNL     1       4.111  -6.861  28.996  0.00  0.00    +0.111 A 
ATOM     24  C   UNL     1       3.907  -6.361  27.723  0.00  0.00    +0.020 A 
ATOM     25  C   UNL     1       4.994  -5.809  27.049  0.00  0.00    +0.008 A 
ENDBRANCH  19  20
ENDBRANCH   4  19
TORSDOF 3
ENDMDL
MODEL 2
REMARK VINA RESULT:      -6.9      3.075      7.398
REMARK  Name = 
REMARK  3 active torsions:
REMARK  status: ('A' for Active; 'I' for Inactive)
REMARK    1  A    between atoms: C_7  and  C_8
REMARK    2  A    between atoms: N_16  and  C_17
REMARK    3  A    between atoms: C_17  and  C_18
REMARK                            x       y       z     vdW  Elec       q    Type
REMARK                         _______ _______ _______ _____ _____    ______ ____
ROOT
ATOM      1  C   UNL     1       5.594  -4.160  24.439  0.00  0.00    +0.092 A 
ATOM      2  N   UNL     1       6.158  -3.104  23.714  0.00  0.00    -0.227 NA
ATOM      3  C   UNL     1       7.465  -2.971  23.660  0.00  0.00    +0.163 A 
ATOM      4  N   UNL     1       8.044  -1.973  22.903  0.00  0.00    -0.322 N 
ATOM      5  H   UNL     1       9.061  -1.996  22.873  0.00  0.00    +0.148 HD
ATOM      6  C   UNL     1       8.301  -3.897  24.404  0.00  0.00    +0.178 A 
ATOM      7  N   UNL     1       7.712  -4.890  25.127  0.00  0.00    -0.302 N 
ATOM      8  C   UNL     1       8.716  -5.585  25.744  0.00  0.00    +0.112 A 
ATOM      9  C   UNL     1       9.878  -4.952  25.358  0.00  0.00    +0.131 A 
ATOM     10  N   UNL     1       9.615  -3.898  24.514  0.00  0.00    -0.233 NA
ATOM     11  C   UNL     1       6.342  -5.044  25.132  0.00  0.00    +0.121 A 
ENDROOT
BRANCH   1  14
ATOM     12  F   UNL     1       4.220  -5.894  22.527  0.00  0.00    -0.205 F 
ATOM     13  C   UNL     1       3.495  -5.174  23.397  0.00  0.00    +0.133 A 
ATOM     14  C   UNL     1       4.117  -4.347  24.347  0.00  0.00    +0.037 A 
ATOM     15  C   UNL     1       3.282  -3.657  25.243  0.00  0.00    +0.013 A 
ATOM     16  C   UNL     1       1.889  -3.764  25.172  0.00  0.00    +0.001 A 
ATOM     17  C   UNL     1       1.298  -4.572  24.202  0.00  0.00    +0.003 A 
ATOM     18  C   UNL     1       2.106  -5.281  23.315  0.00  0.00    +0.039 A 
ENDBRANCH   1  14
BRANCH   4  19
ATOM     19  C   UNL     1       7.414  -0.699  22.659  0.00  0.00    +0.140 C 
BRANCH  19  20
ATOM     20  C   UNL     1       8.393   0.427  22.868  0.00  0.00    -0.012 A 
ATOM     21  C   UNL     1       8.528   1.041  24.109  0.00  0.00    +0.115 A 
ATOM     22  N   UNL     1       9.411   2.031  24.380  0.00  0.00    -0.263 NA
ATOM     23  C   UNL     1      10.203   2.433  23.364  0.00  0.00    +0.111 A 
ATOM     24  C   UNL     1      10.153   1.894  22.091  0.00  0.00    +0.020 A 
ATOM     25  C   UNL     1       9.234   0.877  21.841  0.00  0.00    +0.008 A 
ENDBRANCH  19  20
ENDBRANCH   4  19
TORSDOF 3
ENDMDL
MODEL 3
REMARK VINA RESULT:      -6.7      3.101      7.483
REMARK  Name = 
REMARK  3 active torsions:
REMARK  status: ('A' for Active; 'I' for Inactive)
REMARK    1  A    between atoms: C_7  and  C_8
REMARK    2  A    between atoms: N_16  and  C_17
REMARK    3  A    between atoms: C_17  and  C_18
REMARK                            x       y       z     vdW  Elec       q    Type
REMARK                         _______ _______ _______ _____ _____    ______ ____
ROOT
ATOM      1  C   UNL     1       5.604  -4.170  24.374  0.00  0.00    +0.092 A 
ATOM      2  N   UNL     1       6.165  -3.076  23.705  0.00  0.00    -0.227 NA
ATOM      3  C   UNL     1       7.471  -2.931  23.668  0.00  0.00    +0.163 A 
ATOM      4  N   UNL     1       8.049  -1.893  22.965  0.00  0.00    -0.322 N 
ATOM      5  H   UNL     1       9.066  -1.908  22.942  0.00  0.00    +0.148 HD
ATOM      6  C   UNL     1       8.309  -3.886  24.373  0.00  0.00    +0.178 A 
ATOM      7  N   UNL     1       7.722  -4.918  25.042  0.00  0.00    -0.302 N 
ATOM      8  C   UNL     1       8.727  -5.634  25.632  0.00  0.00    +0.112 A 
ATOM      9  C   UNL     1       9.887  -4.975  25.287  0.00  0.00    +0.131 A 
ATOM     10  N   UNL     1       9.622  -3.882  24.493  0.00  0.00    -0.233 NA
ATOM     11  C   UNL     1       6.353  -5.082  25.028  0.00  0.00    +0.121 A 
ENDROOT
BRANCH   1  14
ATOM     12  F   UNL     1       3.580  -2.736  25.924  0.00  0.00    -0.205 F 
ATOM     13  C   UNL     1       3.190  -3.670  25.041  0.00  0.00    +0.133 A 
ATOM     14  C   UNL     1       4.129  -4.364  24.260  0.00  0.00    +0.037 A 
ATOM     15  C   UNL     1       3.630  -5.296  23.335  0.00  0.00    +0.013 A 
ATOM     16  C   UNL     1       2.258  -5.547  23.219  0.00  0.00    +0.001 A 
ATOM     17  C   UNL     1       1.351  -4.862  24.026  0.00  0.00    +0.003 A 
ATOM     18  C   UNL     1       1.821  -3.918  24.937  0.00  0.00    +0.039 A 
ENDBRANCH   1  14
BRANCH   4  19
ATOM     19  C   UNL     1       7.410  -0.614  22.778  0.00  0.00    +0.140 C 
BRANCH  19  20
ATOM     20  C   UNL     1       8.406   0.506  22.942  0.00  0.00    -0.012 A 
ATOM     21  C   UNL     1       8.585   1.134  24.170  0.00  0.00    +0.115 A 
ATOM     22  N   UNL     1       9.485   2.120  24.399  0.00  0.00    -0.263 NA
ATOM     23  C   UNL     1      10.249   2.501  23.354  0.00  0.00    +0.111 A 
ATOM     24  C   UNL     1      10.154   1.945  22.091  0.00  0.00    +0.020 A 
ATOM     25  C   UNL     1       9.218   0.934  21.883  0.00  0.00    +0.008 A 
ENDBRANCH  19  20
ENDBRANCH   4  19
TORSDOF 3
ENDMDL
MODEL 4
REMARK VINA RESULT:      -6.6      2.754      3.724
REMARK  Name = 
REMARK  3 active torsions:
REMARK  status: ('A' for Active; 'I' for Inactive)
REMARK    1  A    between atoms: C_7  and  C_8
REMARK    2  A    between atoms: N_16  and  C_17
REMARK    3  A    between atoms: C_17  and  C_18
REMARK                            x       y       z     vdW  Elec       q    Type
REMARK                         _______ _______ _______ _____ _____    ______ ____
ROOT
ATOM      1  C   UNL     1       8.708  -1.584  24.184  0.00  0.00    +0.092 A 
ATOM      2  N   UNL     1       7.422  -1.751  24.710  0.00  0.00    -0.227 NA
ATOM      3  C   UNL     1       7.111  -2.863  25.338  0.00  0.00    +0.163 A 
ATOM      4  N   UNL     1       5.868  -3.027  25.915  0.00  0.00    -0.322 N 
ATOM      5  H   UNL     1       5.749  -3.894  26.434  0.00  0.00    +0.148 HD
ATOM      6  C   UNL     1       8.097  -3.926  25.425  0.00  0.00    +0.178 A 
ATOM      7  N   UNL     1       9.327  -3.738  24.868  0.00  0.00    -0.302 N 
ATOM      8  C   UNL     1      10.036  -4.891  25.066  0.00  0.00    +0.112 A 
ATOM      9  C   UNL     1       9.173  -5.731  25.736  0.00  0.00    +0.131 A 
ATOM     10  N   UNL     1       7.960  -5.121  25.963  0.00  0.00    -0.233 NA
ATOM     11  C   UNL     1       9.652  -2.545  24.258  0.00  0.00    +0.121 A 
ENDROOT
BRANCH   1  14
ATOM     12  F   UNL     1       9.154  -1.015  21.350  0.00  0.00    -0.205 F 
ATOM     13  C   UNL     1       9.278  -0.022  22.245  0.00  0.00    +0.133 A 
ATOM     14  C   UNL     1       9.049  -0.249  23.613  0.00  0.00    +0.037 A 
ATOM     15  C   UNL     1       9.165   0.856  24.474  0.00  0.00    +0.013 A 
ATOM     16  C   UNL     1       9.525   2.120  23.996  0.00  0.00    +0.001 A 
ATOM     17  C   UNL     1       9.772   2.309  22.637  0.00  0.00    +0.003 A 
ATOM     18  C   UNL     1       9.644   1.234  21.760  0.00  0.00    +0.039 A 
ENDBRANCH   1  14
BRANCH   4  19
ATOM     19  C   UNL     1       4.672  -2.402  25.408  0.00  0.00    +0.140 C 
BRANCH  19  20
ATOM     20  C   UNL     1       3.804  -3.412  24.701  0.00  0.00    -0.012 A 
ATOM     21  C   UNL     1       4.270  -4.106  23.589  0.00  0.00    +0.115 A 
ATOM     22  N   UNL     1       3.561  -5.052  22.928  0.00  0.00    -0.263 NA
ATOM     23  C   UNL     1       2.324  -5.323  23.396  0.00  0.00    +0.111 A 
ATOM     24  C   UNL     1       1.763  -4.693  24.492  0.00  0.00    +0.020 A 
ATOM     25  C   UNL     1       2.515  -3.723  25.152  0.00  0.00    +0.008 A 
ENDBRANCH  19  20
ENDBRANCH   4  19
TORSDOF 3
ENDMDL
MODEL 5
REMARK VINA RESULT:      -6.6      3.441      7.347
REMARK  Name = 
REMARK  3 active torsions:
REMARK  status: ('A' for Active; 'I' for Inactive)
REMARK    1  A    between atoms: C_7  and  C_8
REMARK    2  A    between atoms: N_16  and  C_17
REMARK    3  A    between atoms: C_17  and  C_18
REMARK                            x       y       z     vdW  Elec       q    Type
REMARK                         _______ _______ _______ _____ _____    ______ ____
ROOT
ATOM      1  C   UNL     1       7.132  -2.371  24.735  0.00  0.00    +0.092 A 
ATOM      2  N   UNL     1       8.319  -1.640  24.854  0.00  0.00    -0.227 NA
ATOM      3  C   UNL     1       8.450  -0.757  25.820  0.00  0.00    +0.163 A 
ATOM      4  N   UNL     1       9.632  -0.067  25.993  0.00  0.00    -0.322 N 
ATOM      5  H   UNL     1       9.655   0.543  26.807  0.00  0.00    +0.148 HD
ATOM      6  C   UNL     1       7.331  -0.517  26.715  0.00  0.00    +0.178 A 
ATOM      7  N   UNL     1       6.179  -1.225  26.543  0.00  0.00    -0.302 N 
ATOM      8  C   UNL     1       5.295  -0.784  27.489  0.00  0.00    +0.112 A 
ATOM      9  C   UNL     1       5.973   0.192  28.186  0.00  0.00    +0.131 A 
ATOM     10  N   UNL     1       7.251   0.354  27.701  0.00  0.00    -0.233 NA
ATOM     11  C   UNL     1       6.078  -2.182  25.557  0.00  0.00    +0.121 A 
ENDROOT
BRANCH   1  14
ATOM     12  F   UNL     1       5.670  -2.274  22.204  0.00  0.00    -0.205 F 
ATOM     13  C   UNL     1       6.359  -3.382  22.521  0.00  0.00    +0.133 A 
ATOM     14  C   UNL     1       7.093  -3.459  23.716  0.00  0.00    +0.037 A 
ATOM     15  C   UNL     1       7.815  -4.642  23.949  0.00  0.00    +0.013 A 
ATOM     16  C   UNL     1       7.779  -5.710  23.046  0.00  0.00    +0.001 A 
ATOM     17  C   UNL     1       7.020  -5.614  21.880  0.00  0.00    +0.003 A 
ATOM     18  C   UNL     1       6.311  -4.444  21.617  0.00  0.00    +0.039 A 
ENDBRANCH   1  14
BRANCH   4  19
ATOM     19  C   UNL     1      10.521   0.263  24.906  0.00  0.00    +0.140 C 
BRANCH  19  20
ATOM     20  C   UNL     1       9.800   1.065  23.854  0.00  0.00    -0.012 A 
ATOM     21  C   UNL     1       9.198   2.280  24.164  0.00  0.00    +0.115 A 
ATOM     22  N   UNL     1       8.566   3.070  23.264  0.00  0.00    -0.263 NA
ATOM     23  C   UNL     1       8.531   2.632  21.988  0.00  0.00    +0.111 A 
ATOM     24  C   UNL     1       9.097   1.440  21.570  0.00  0.00    +0.020 A 
ATOM     25  C   UNL     1       9.739   0.647  22.518  0.00  0.00    +0.008 A 
ENDBRANCH  19  20
ENDBRANCH   4  19
TORSDOF 3
ENDMDL
MODEL 6
REMARK VINA RESULT:      -6.6      1.009      1.405
REMARK  Name = 
REMARK  3 active torsions:
REMARK  status: ('A' for Active; 'I' for Inactive)
REMARK    1  A    between atoms: C_7  and  C_8
REMARK    2  A    between atoms: N_16  and  C_17
REMARK    3  A    between atoms: C_17  and  C_18
REMARK                            x       y       z     vdW  Elec       q    Type
REMARK                         _______ _______ _______ _____ _____    ______ ____
ROOT
ATOM      1  C   UNL     1       7.987  -2.423  23.786  0.00  0.00    +0.092 A 
ATOM      2  N   UNL     1       7.912  -3.321  24.855  0.00  0.00    -0.227 NA
ATOM      3  C   UNL     1       7.380  -4.511  24.675  0.00  0.00    +0.163 A 
ATOM      4  N   UNL     1       7.348  -5.434  25.699  0.00  0.00    -0.322 N 
ATOM      5  H   UNL     1       6.977  -6.346  25.440  0.00  0.00    +0.148 HD
ATOM      6  C   UNL     1       6.827  -4.848  23.375  0.00  0.00    +0.178 A 
ATOM      7  N   UNL     1       6.888  -3.931  22.369  0.00  0.00    -0.302 N 
ATOM      8  C   UNL     1       6.276  -4.490  21.281  0.00  0.00    +0.112 A 
ATOM      9  C   UNL     1       5.862  -5.735  21.703  0.00  0.00    +0.131 A 
ATOM     10  N   UNL     1       6.213  -5.958  23.015  0.00  0.00    -0.233 NA
ATOM     11  C   UNL     1       7.495  -2.708  22.562  0.00  0.00    +0.121 A 
ENDROOT
BRANCH   1  14
ATOM     12  F   UNL     1       7.091  -0.209  25.474  0.00  0.00    -0.205 F 
ATOM     13  C   UNL     1       8.253  -0.099  24.811  0.00  0.00    +0.133 A 
ATOM     14  C   UNL     1       8.730  -1.149  24.009  0.00  0.00    +0.037 A 
ATOM     15  C   UNL     1       9.974  -0.962  23.381  0.00  0.00    +0.013 A 
ATOM     16  C   UNL     1      10.692   0.231  23.522  0.00  0.00    +0.001 A 
ATOM     17  C   UNL     1      10.181   1.266  24.304  0.00  0.00    +0.003 A 
ATOM     18  C   UNL     1       8.959   1.097  24.953  0.00  0.00    +0.039 A 
ENDBRANCH   1  14
BRANCH   4  19
ATOM     19  C   UNL     1       7.265  -5.069  27.092  0.00  0.00    +0.140 C 
BRANCH  19  20
ATOM     20  C   UNL     1       6.059  -5.702  27.737  0.00  0.00    -0.012 A 
ATOM     21  C   UNL     1       6.175  -6.434  28.914  0.00  0.00    +0.115 A 
ATOM     22  N   UNL     1       5.132  -6.999  29.568  0.00  0.00    -0.263 NA
ATOM     23  C   UNL     1       3.909  -6.827  29.024  0.00  0.00    +0.111 A 
ATOM     24  C   UNL     1       3.679  -6.120  27.857  0.00  0.00    +0.020 A 
ATOM     25  C   UNL     1       4.772  -5.551  27.206  0.00  0.00    +0.008 A 
ENDBRANCH  19  20
ENDBRANCH   4  19
TORSDOF 3
ENDMDL
MODEL 7
REMARK VINA RESULT:      -6.6      5.661      8.680
REMARK  Name = 
REMARK  3 active torsions:
REMARK  status: ('A' for Active; 'I' for Inactive)
REMARK    1  A    between atoms: C_7  and  C_8
REMARK    2  A    between atoms: N_16  and  C_17
REMARK    3  A    between atoms: C_17  and  C_18
REMARK                            x       y       z     vdW  Elec       q    Type
REMARK                         _______ _______ _______ _____ _____    ______ ____
ROOT
ATOM      1  C   UNL     1       9.941   1.956  23.613  0.00  0.00    +0.092 A 
ATOM      2  N   UNL     1       8.815   2.681  24.016  0.00  0.00    -0.227 NA
ATOM      3  C   UNL     1       8.881   3.991  24.118  0.00  0.00    +0.163 A 
ATOM      4  N   UNL     1       7.768   4.732  24.457  0.00  0.00    -0.322 N 
ATOM      5  H   UNL     1       7.905   5.740  24.444  0.00  0.00    +0.148 HD
ATOM      6  C   UNL     1      10.146   4.656  23.863  0.00  0.00    +0.178 A 
ATOM      7  N   UNL     1      11.230   3.910  23.507  0.00  0.00    -0.302 N 
ATOM      8  C   UNL     1      12.279   4.775  23.359  0.00  0.00    +0.112 A 
ATOM      9  C   UNL     1      11.762   6.019  23.650  0.00  0.00    +0.131 A 
ATOM     10  N   UNL     1      10.423   5.941  23.960  0.00  0.00    -0.233 NA
ATOM     11  C   UNL     1      11.128   2.544  23.356  0.00  0.00    +0.121 A 
ENDROOT
BRANCH   1  14
ATOM     12  F   UNL     1       9.385   0.714  21.024  0.00  0.00    -0.205 F 
ATOM     13  C   UNL     1       9.479  -0.061  22.116  0.00  0.00    +0.133 A 
ATOM     14  C   UNL     1       9.769   0.494  23.374  0.00  0.00    +0.037 A 
ATOM     15  C   UNL     1       9.887  -0.396  24.456  0.00  0.00    +0.013 A 
ATOM     16  C   UNL     1       9.692  -1.772  24.295  0.00  0.00    +0.001 A 
ATOM     17  C   UNL     1       9.380  -2.291  23.039  0.00  0.00    +0.003 A 
ATOM     18  C   UNL     1       9.278  -1.432  21.947  0.00  0.00    +0.039 A 
ENDBRANCH   1  14
BRANCH   4  19
ATOM     19  C   UNL     1       6.709   4.229  25.299  0.00  0.00    +0.140 C 
BRANCH  19  20
ATOM     20  C   UNL     1       5.486   3.907  24.479  0.00  0.00    -0.012 A 
ATOM     21  C   UNL     1       4.549   2.979  24.921  0.00  0.00    +0.115 A 
ATOM     22  N   UNL     1       3.411   2.667  24.257  0.00  0.00    -0.263 NA
ATOM     23  C   UNL     1       3.192   3.312  23.091  0.00  0.00    +0.111 A 
ATOM     24  C   UNL     1       4.057   4.251  22.558  0.00  0.00    +0.020 A 
ATOM     25  C   UNL     1       5.221   4.551  23.263  0.00  0.00    +0.008 A 
ENDBRANCH  19  20
ENDBRANCH   4  19
TORSDOF 3
ENDMDL
MODEL 8
REMARK VINA RESULT:      -6.5      2.338      6.698
REMARK  Name = 
REMARK  3 active torsions:
REMARK  status: ('A' for Active; 'I' for Inactive)
REMARK    1  A    between atoms: C_7  and  C_8
REMARK    2  A    between atoms: N_16  and  C_17
REMARK    3  A    between atoms: C_17  and  C_18
REMARK                            x       y       z     vdW  Elec       q    Type
REMARK                         _______ _______ _______ _____ _____    ______ ____
ROOT
ATOM      1  C   UNL     1       6.110  -4.680  25.451  0.00  0.00    +0.092 A 
ATOM      2  N   UNL     1       7.073  -3.740  25.065  0.00  0.00    -0.227 NA
ATOM      3  C   UNL     1       7.460  -3.678  23.809  0.00  0.00    +0.163 A 
ATOM      4  N   UNL     1       8.364  -2.723  23.394  0.00  0.00    -0.322 N 
ATOM      5  H   UNL     1       8.548  -2.715  22.393  0.00  0.00    +0.148 HD
ATOM      6  C   UNL     1       6.919  -4.630  22.855  0.00  0.00    +0.178 A 
ATOM      7  N   UNL     1       6.010  -5.553  23.279  0.00  0.00    -0.302 N 
ATOM      8  C   UNL     1       5.694  -6.329  22.198  0.00  0.00    +0.112 A 
ATOM      9  C   UNL     1       6.454  -5.828  21.163  0.00  0.00    +0.131 A 
ATOM     10  N   UNL     1       7.217  -4.759  21.577  0.00  0.00    -0.233 NA
ATOM     11  C   UNL     1       5.577  -5.569  24.588  0.00  0.00    +0.121 A 
ENDROOT
BRANCH   1  14
ATOM     12  F   UNL     1       7.367  -5.929  27.778  0.00  0.00    -0.205 F 
ATOM     13  C   UNL     1       6.225  -5.242  27.940  0.00  0.00    +0.133 A 
ATOM     14  C   UNL     1       5.602  -4.608  26.852  0.00  0.00    +0.037 A 
ATOM     15  C   UNL     1       4.430  -3.880  27.119  0.00  0.00    +0.013 A 
ATOM     16  C   UNL     1       3.887  -3.816  28.407  0.00  0.00    +0.001 A 
ATOM     17  C   UNL     1       4.514  -4.478  29.463  0.00  0.00    +0.003 A 
ATOM     18  C   UNL     1       5.688  -5.190  29.227  0.00  0.00    +0.039 A 
ENDBRANCH   1  14
BRANCH   4  19
ATOM     19  C   UNL     1       9.391  -2.180  24.249  0.00  0.00    +0.140 C 
BRANCH  19  20
ATOM     20  C   UNL     1       9.725  -0.767  23.847  0.00  0.00    -0.012 A 
ATOM     21  C   UNL     1      10.227   0.143  24.771  0.00  0.00    +0.115 A 
ATOM     22  N   UNL     1      10.583   1.416  24.474  0.00  0.00    -0.263 NA
ATOM     23  C   UNL     1      10.433   1.805  23.190  0.00  0.00    +0.111 A 
ATOM     24  C   UNL     1       9.942   0.984  22.191  0.00  0.00    +0.020 A 
ATOM     25  C   UNL     1       9.583  -0.320  22.527  0.00  0.00    +0.008 A 
ENDBRANCH  19  20
ENDBRANCH   4  19
TORSDOF 3
ENDMDL
MODEL 9
REMARK VINA RESULT:      -6.5      2.841      5.069
REMARK  Name = 
REMARK  3 active torsions:
REMARK  status: ('A' for Active; 'I' for Inactive)
REMARK    1  A    between atoms: C_7  and  C_8
REMARK    2  A    between atoms: N_16  and  C_17
REMARK    3  A    between atoms: C_17  and  C_18
REMARK                            x       y       z     vdW  Elec       q    Type
REMARK                         _______ _______ _______ _____ _____    ______ ____
ROOT
ATOM      1  C   UNL     1       7.528   0.089  25.146  0.00  0.00    +0.092 A 
ATOM      2  N   UNL     1       7.321  -1.291  25.038  0.00  0.00    -0.227 NA
ATOM      3  C   UNL     1       6.469  -1.890  25.840  0.00  0.00    +0.163 A 
ATOM      4  N   UNL     1       6.205  -3.238  25.713  0.00  0.00    -0.322 N 
ATOM      5  H   UNL     1       5.482  -3.592  26.336  0.00  0.00    +0.148 HD
ATOM      6  C   UNL     1       5.797  -1.111  26.866  0.00  0.00    +0.178 A 
ATOM      7  N   UNL     1       6.053   0.224  26.961  0.00  0.00    -0.302 N 
ATOM      8  C   UNL     1       5.321   0.697  28.016  0.00  0.00    +0.112 A 
ATOM      9  C   UNL     1       4.658  -0.404  28.514  0.00  0.00    +0.131 A 
ATOM     10  N   UNL     1       4.955  -1.535  27.788  0.00  0.00    -0.233 NA
ATOM     11  C   UNL     1       6.912   0.844  26.079  0.00  0.00    +0.121 A 
ENDROOT
BRANCH   1  14
ATOM     12  F   UNL     1       6.789   0.552  22.354  0.00  0.00    -0.205 F 
ATOM     13  C   UNL     1       8.008   0.921  22.779  0.00  0.00    +0.133 A 
ATOM     14  C   UNL     1       8.393   0.737  24.118  0.00  0.00    +0.037 A 
ATOM     15  C   UNL     1       9.673   1.187  24.485  0.00  0.00    +0.013 A 
ATOM     16  C   UNL     1      10.541   1.763  23.550  0.00  0.00    +0.001 A 
ATOM     17  C   UNL     1      10.141   1.909  22.223  0.00  0.00    +0.003 A 
ATOM     18  C   UNL     1       8.869   1.489  21.839  0.00  0.00    +0.039 A 
ENDBRANCH   1  14
BRANCH   4  19
ATOM     19  C   UNL     1       7.173  -4.192  25.230  0.00  0.00    +0.140 C 
BRANCH  19  20
ATOM     20  C   UNL     1       6.740  -4.763  23.904  0.00  0.00    -0.012 A 
ATOM     21  C   UNL     1       5.436  -4.609  23.447  0.00  0.00    +0.115 A 
ATOM     22  N   UNL     1       4.987  -5.062  22.252  0.00  0.00    -0.263 NA
ATOM     23  C   UNL     1       5.882  -5.702  21.470  0.00  0.00    +0.111 A 
ATOM     24  C   UNL     1       7.202  -5.911  21.826  0.00  0.00    +0.020 A 
ATOM     25  C   UNL     1       7.636  -5.435  23.061  0.00  0.00    +0.008 A 
ENDBRANCH  19  20
ENDBRANCH   4  19
TORSDOF 3
ENDMDL
