MODEL 1
REMARK VINA RESULT:      -6.6      0.000      0.000
REMARK  Name = 
REMARK  7 active torsions:
REMARK  status: ('A' for Active; 'I' for Inactive)
REMARK    1  A    between atoms: C_1  and  O_2
REMARK    2  A    between atoms: O_2  and  C_3
REMARK    3  A    between atoms: C_6  and  C_9
REMARK    4  A    between atoms: C_10  and  C_11
REMARK    5  A    between atoms: C_14  and  C_15
REMARK    6  A    between atoms: C_16  and  O_17
REMARK    7  A    between atoms: C_19  and  O_20
REMARK                            x       y       z     vdW  Elec       q    Type
REMARK                         _______ _______ _______ _____ _____    ______ ____
ROOT
ATOM      1  C   UNL     1       9.700   3.613  23.316  0.00  0.00    +0.030 A 
ATOM      2  C   UNL     1       8.400   4.298  23.375  0.00  0.00    +0.104 A 
ATOM      3  N   UNL     1       8.590   5.630  23.481  0.00  0.00    -0.173 NA
ATOM      4  N   UNL     1       9.914   5.795  23.478  0.00  0.00    -0.281 N 
ATOM      5  H   UNL     1      10.279   6.739  23.555  0.00  0.00    +0.189 HD
ATOM      6  C   UNL     1      10.637   4.639  23.420  0.00  0.00    +0.041 A 
ATOM      7  C   UNL     1      12.115   4.706  23.489  0.00  0.00    +0.065 C 
ENDROOT
BRANCH   1  11
ATOM      8  C   UNL     1      10.236  -0.621  22.945  0.00  0.00    +0.120 A 
ATOM      9  C   UNL     1       9.908   0.169  21.856  0.00  0.00    +0.046 A 
ATOM     10  C   UNL     1       9.921   1.560  21.981  0.00  0.00    +0.012 A 
ATOM     11  C   UNL     1      10.038   2.190  23.213  0.00  0.00    -0.014 A 
ATOM     12  C   UNL     1      10.465   1.399  24.288  0.00  0.00    +0.012 A 
ATOM     13  C   UNL     1      10.613   0.007  24.135  0.00  0.00    +0.046 A 
BRANCH   8  15
ATOM     14  C   UNL     1       9.704  -2.646  24.028  0.00  0.00    +0.277 C 
ATOM     15  O   UNL     1      10.299  -1.986  22.908  0.00  0.00    -0.495 OA
ENDBRANCH   8  15
ENDBRANCH   1  11
BRANCH   2  16
ATOM     16  C   UNL     1       6.988   3.807  23.477  0.00  0.00    +0.044 A 
ATOM     17  C   UNL     1       6.611   2.669  24.193  0.00  0.00    +0.017 A 
ATOM     18  C   UNL     1       5.273   2.323  24.413  0.00  0.00    +0.046 A 
ATOM     19  C   UNL     1       4.268   3.079  23.843  0.00  0.00    +0.120 A 
ATOM     20  C   UNL     1       4.587   4.141  23.013  0.00  0.00    +0.091 A 
ATOM     21  C   UNL     1       5.933   4.488  22.827  0.00  0.00    +0.130 A 
BRANCH  19  22
ATOM     22  O   UNL     1       2.983   2.717  24.105  0.00  0.00    -0.507 OA
ATOM     23  H   UNL     1       2.391   3.379  23.712  0.00  0.00    +0.292 HD
ENDBRANCH  19  22
BRANCH  21  24
ATOM     24  O   UNL     1       6.157   5.520  21.946  0.00  0.00    -0.506 OA
ATOM     25  H   UNL     1       7.126   5.691  21.990  0.00  0.00    +0.292 HD
ENDBRANCH  21  24
ENDBRANCH   2  16
TORSDOF 5
ENDMDL
MODEL 2
REMARK VINA RESULT:      -6.4      4.812      7.449
REMARK  Name = 
REMARK  7 active torsions:
REMARK  status: ('A' for Active; 'I' for Inactive)
REMARK    1  A    between atoms: C_1  and  O_2
REMARK    2  A    between atoms: O_2  and  C_3
REMARK    3  A    between atoms: C_6  and  C_9
REMARK    4  A    between atoms: C_10  and  C_11
REMARK    5  A    between atoms: C_14  and  C_15
REMARK    6  A    between atoms: C_16  and  O_17
REMARK    7  A    between atoms: C_19  and  O_20
REMARK                            x       y       z     vdW  Elec       q    Type
REMARK                         _______ _______ _______ _____ _____    ______ ____
ROOT
ATOM      1  C   UNL     1       7.705  -3.487  24.244  0.00  0.00    +0.030 A 
ATOM      2  C   UNL     1       8.653  -2.511  23.684  0.00  0.00    +0.104 A 
ATOM      3  N   UNL     1       9.915  -2.866  24.002  0.00  0.00    -0.173 NA
ATOM      4  N   UNL     1       9.794  -3.995  24.703  0.00  0.00    -0.281 N 
ATOM      5  H   UNL     1      10.640  -4.436  25.050  0.00  0.00    +0.189 HD
ATOM      6  C   UNL     1       8.511  -4.403  24.918  0.00  0.00    +0.041 A 
ATOM      7  C   UNL     1       8.262  -5.603  25.751  0.00  0.00    +0.065 C 
ENDROOT
BRANCH   1  11
ATOM      8  C   UNL     1       3.450  -3.912  24.493  0.00  0.00    +0.120 A 
ATOM      9  C   UNL     1       4.152  -3.096  25.364  0.00  0.00    +0.046 A 
ATOM     10  C   UNL     1       5.507  -2.844  25.137  0.00  0.00    +0.012 A 
ATOM     11  C   UNL     1       6.242  -3.550  24.194  0.00  0.00    -0.014 A 
ATOM     12  C   UNL     1       5.514  -4.296  23.257  0.00  0.00    +0.012 A 
ATOM     13  C   UNL     1       4.117  -4.430  23.381  0.00  0.00    +0.046 A 
BRANCH   8  15
ATOM     14  C   UNL     1       1.613  -5.137  23.670  0.00  0.00    +0.277 C 
ATOM     15  O   UNL     1       2.113  -4.178  24.604  0.00  0.00    -0.495 OA
ENDBRANCH   8  15
ENDBRANCH   1  11
BRANCH   2  16
ATOM     16  C   UNL     1       8.476  -1.195  22.990  0.00  0.00    +0.044 A 
ATOM     17  C   UNL     1       7.436  -0.304  23.266  0.00  0.00    +0.017 A 
ATOM     18  C   UNL     1       7.383   0.986  22.728  0.00  0.00    +0.046 A 
ATOM     19  C   UNL     1       8.344   1.390  21.823  0.00  0.00    +0.120 A 
ATOM     20  C   UNL     1       9.324   0.501  21.412  0.00  0.00    +0.091 A 
ATOM     21  C   UNL     1       9.376  -0.778  21.983  0.00  0.00    +0.130 A 
BRANCH  19  22
ATOM     22  O   UNL     1       8.264   2.662  21.345  0.00  0.00    -0.507 OA
ATOM     23  H   UNL     1       8.044   2.621  20.400  0.00  0.00    +0.292 HD
ENDBRANCH  19  22
BRANCH  21  24
ATOM     24  O   UNL     1      10.346  -1.609  21.475  0.00  0.00    -0.506 OA
ATOM     25  H   UNL     1      10.114  -2.508  21.803  0.00  0.00    +0.292 HD
ENDBRANCH  21  24
ENDBRANCH   2  16
TORSDOF 5
ENDMDL
MODEL 3
REMARK VINA RESULT:      -6.2      4.194      7.310
REMARK  Name = 
REMARK  7 active torsions:
REMARK  status: ('A' for Active; 'I' for Inactive)
REMARK    1  A    between atoms: C_1  and  O_2
REMARK    2  A    between atoms: O_2  and  C_3
REMARK    3  A    between atoms: C_6  and  C_9
REMARK    4  A    between atoms: C_10  and  C_11
REMARK    5  A    between atoms: C_14  and  C_15
REMARK    6  A    between atoms: C_16  and  O_17
REMARK    7  A    between atoms: C_19  and  O_20
REMARK                            x       y       z     vdW  Elec       q    Type
REMARK                         _______ _______ _______ _____ _____    ______ ____
ROOT
ATOM      1  C   UNL     1       8.196  -2.929  25.355  0.00  0.00    +0.030 A 
ATOM      2  C   UNL     1       9.220  -2.587  24.355  0.00  0.00    +0.104 A 
ATOM      3  N   UNL     1      10.109  -3.597  24.248  0.00  0.00    -0.173 NA
ATOM      4  N   UNL     1       9.685  -4.528  25.104  0.00  0.00    -0.281 N 
ATOM      5  H   UNL     1      10.223  -5.385  25.186  0.00  0.00    +0.189 HD
ATOM      6  C   UNL     1       8.576  -4.186  25.822  0.00  0.00    +0.041 A 
ATOM      7  C   UNL     1       8.068  -5.116  26.857  0.00  0.00    +0.065 C 
ENDROOT
BRANCH   1  11
ATOM      8  C   UNL     1       4.745  -0.594  26.345  0.00  0.00    +0.120 A 
ATOM      9  C   UNL     1       4.647  -1.753  25.594  0.00  0.00    +0.046 A 
ATOM     10  C   UNL     1       5.764  -2.579  25.447  0.00  0.00    +0.012 A 
ATOM     11  C   UNL     1       7.035  -2.180  25.842  0.00  0.00    -0.014 A 
ATOM     12  C   UNL     1       7.112  -1.062  26.683  0.00  0.00    +0.012 A 
ATOM     13  C   UNL     1       5.959  -0.306  26.972  0.00  0.00    +0.046 A 
BRANCH   8  15
ATOM     14  C   UNL     1       4.060   1.507  27.164  0.00  0.00    +0.277 C 
ATOM     15  O   UNL     1       3.697   0.252  26.586  0.00  0.00    -0.495 OA
ENDBRANCH   8  15
ENDBRANCH   1  11
BRANCH   2  16
ATOM     16  C   UNL     1       9.520  -1.339  23.584  0.00  0.00    +0.044 A 
ATOM     17  C   UNL     1       9.475  -1.256  22.190  0.00  0.00    +0.017 A 
ATOM     18  C   UNL     1       9.596  -0.045  21.500  0.00  0.00    +0.046 A 
ATOM     19  C   UNL     1       9.848   1.119  22.199  0.00  0.00    +0.120 A 
ATOM     20  C   UNL     1      10.034   1.075  23.571  0.00  0.00    +0.091 A 
ATOM     21  C   UNL     1       9.883  -0.144  24.247  0.00  0.00    +0.130 A 
BRANCH  19  22
ATOM     22  O   UNL     1       9.934   2.275  21.486  0.00  0.00    -0.507 OA
ATOM     23  H   UNL     1      10.609   2.161  20.797  0.00  0.00    +0.292 HD
ENDBRANCH  19  22
BRANCH  21  24
ATOM     24  O   UNL     1      10.140  -0.102  25.597  0.00  0.00    -0.506 OA
ATOM     25  H   UNL     1       9.557  -0.791  25.992  0.00  0.00    +0.292 HD
ENDBRANCH  21  24
ENDBRANCH   2  16
TORSDOF 5
ENDMDL
MODEL 4
REMARK VINA RESULT:      -6.2      3.847      5.329
REMARK  Name = 
REMARK  7 active torsions:
REMARK  status: ('A' for Active; 'I' for Inactive)
REMARK    1  A    between atoms: C_1  and  O_2
REMARK    2  A    between atoms: O_2  and  C_3
REMARK    3  A    between atoms: C_6  and  C_9
REMARK    4  A    between atoms: C_10  and  C_11
REMARK    5  A    between atoms: C_14  and  C_15
REMARK    6  A    between atoms: C_16  and  O_17
REMARK    7  A    between atoms: C_19  and  O_20
REMARK                            x       y       z     vdW  Elec       q    Type
REMARK                         _______ _______ _______ _____ _____    ______ ____
ROOT
ATOM      1  C   UNL     1       8.135  -1.364  23.501  0.00  0.00    +0.030 A 
ATOM      2  C   UNL     1       8.408   0.075  23.363  0.00  0.00    +0.104 A 
ATOM      3  N   UNL     1       9.669   0.341  23.764  0.00  0.00    -0.173 NA
ATOM      4  N   UNL     1      10.177  -0.839  24.122  0.00  0.00    -0.281 N 
ATOM      5  H   UNL     1      11.133  -0.865  24.466  0.00  0.00    +0.189 HD
ATOM      6  C   UNL     1       9.313  -1.890  24.028  0.00  0.00    +0.041 A 
ATOM      7  C   UNL     1       9.752  -3.232  24.476  0.00  0.00    +0.065 C 
ENDROOT
BRANCH   1  11
ATOM      8  C   UNL     1       4.749  -3.941  23.014  0.00  0.00    +0.120 A 
ATOM      9  C   UNL     1       4.883  -3.118  24.119  0.00  0.00    +0.046 A 
ATOM     10  C   UNL     1       5.903  -2.165  24.152  0.00  0.00    +0.012 A 
ATOM     11  C   UNL     1       6.930  -2.149  23.218  0.00  0.00    -0.014 A 
ATOM     12  C   UNL     1       6.739  -2.911  22.058  0.00  0.00    +0.012 A 
ATOM     13  C   UNL     1       5.623  -3.763  21.939  0.00  0.00    +0.046 A 
BRANCH   8  15
ATOM     14  C   UNL     1       3.994  -6.115  23.526  0.00  0.00    +0.277 C 
ATOM     15  O   UNL     1       3.755  -4.869  22.867  0.00  0.00    -0.495 OA
ENDBRANCH   8  15
ENDBRANCH   1  11
BRANCH   2  16
ATOM     16  C   UNL     1       7.548   1.251  23.014  0.00  0.00    +0.044 A 
ATOM     17  C   UNL     1       6.272   1.464  23.540  0.00  0.00    +0.017 A 
ATOM     18  C   UNL     1       5.555   2.647  23.332  0.00  0.00    +0.046 A 
ATOM     19  C   UNL     1       6.077   3.628  22.512  0.00  0.00    +0.120 A 
ATOM     20  C   UNL     1       7.280   3.415  21.858  0.00  0.00    +0.091 A 
ATOM     21  C   UNL     1       7.995   2.234  22.101  0.00  0.00    +0.130 A 
BRANCH  19  22
ATOM     22  O   UNL     1       5.355   4.771  22.359  0.00  0.00    -0.507 OA
ATOM     23  H   UNL     1       4.451   4.607  22.676  0.00  0.00    +0.292 HD
ENDBRANCH  19  22
BRANCH  21  24
ATOM     24  O   UNL     1       9.148   2.085  21.368  0.00  0.00    -0.506 OA
ATOM     25  H   UNL     1       9.717   2.848  21.622  0.00  0.00    +0.292 HD
ENDBRANCH  21  24
ENDBRANCH   2  16
TORSDOF 5
ENDMDL
MODEL 5
REMARK VINA RESULT:      -6.2      1.459      5.469
REMARK  Name = 
REMARK  7 active torsions:
REMARK  status: ('A' for Active; 'I' for Inactive)
REMARK    1  A    between atoms: C_1  and  O_2
REMARK    2  A    between atoms: O_2  and  C_3
REMARK    3  A    between atoms: C_6  and  C_9
REMARK    4  A    between atoms: C_10  and  C_11
REMARK    5  A    between atoms: C_14  and  C_15
REMARK    6  A    between atoms: C_16  and  O_17
REMARK    7  A    between atoms: C_19  and  O_20
REMARK                            x       y       z     vdW  Elec       q    Type
REMARK                         _______ _______ _______ _____ _____    ______ ____
ROOT
ATOM      1  C   UNL     1       9.039   4.126  23.675  0.00  0.00    +0.030 A 
ATOM      2  C   UNL     1      10.162   3.186  23.534  0.00  0.00    +0.104 A 
ATOM      3  N   UNL     1      11.325   3.868  23.480  0.00  0.00    -0.173 NA
ATOM      4  N   UNL     1      10.982   5.152  23.592  0.00  0.00    -0.281 N 
ATOM      5  H   UNL     1      11.720   5.849  23.571  0.00  0.00    +0.189 HD
ATOM      6  C   UNL     1       9.640   5.384  23.674  0.00  0.00    +0.041 A 
ATOM      7  C   UNL     1       9.148   6.780  23.723  0.00  0.00    +0.065 C 
ENDROOT
BRANCH   1  11
ATOM      8  C   UNL     1       4.915   3.011  23.980  0.00  0.00    +0.120 A 
ATOM      9  C   UNL     1       5.769   2.943  25.068  0.00  0.00    +0.046 A 
ATOM     10  C   UNL     1       7.053   3.485  24.974  0.00  0.00    +0.012 A 
ATOM     11  C   UNL     1       7.594   3.899  23.764  0.00  0.00    -0.014 A 
ATOM     12  C   UNL     1       6.702   4.056  22.696  0.00  0.00    +0.012 A 
ATOM     13  C   UNL     1       5.356   3.661  22.826  0.00  0.00    +0.046 A 
BRANCH   8  15
ATOM     14  C   UNL     1       2.725   3.279  23.151  0.00  0.00    +0.277 C 
ATOM     15  O   UNL     1       3.626   2.554  23.990  0.00  0.00    -0.495 OA
ENDBRANCH   8  15
ENDBRANCH   1  11
BRANCH   2  16
ATOM     16  C   UNL     1      10.235   1.707  23.307  0.00  0.00    +0.044 A 
ATOM     17  C   UNL     1      10.826   0.812  24.203  0.00  0.00    +0.017 A 
ATOM     18  C   UNL     1      10.738  -0.576  24.053  0.00  0.00    +0.046 A 
ATOM     19  C   UNL     1      10.114  -1.107  22.942  0.00  0.00    +0.120 A 
ATOM     20  C   UNL     1       9.626  -0.265  21.955  0.00  0.00    +0.091 A 
ATOM     21  C   UNL     1       9.700   1.123  22.136  0.00  0.00    +0.130 A 
BRANCH  19  22
ATOM     22  O   UNL     1      10.032  -2.462  22.853  0.00  0.00    -0.507 OA
ATOM     23  H   UNL     1       9.105  -2.704  22.693  0.00  0.00    +0.292 HD
ENDBRANCH  19  22
BRANCH  21  24
ATOM     24  O   UNL     1       9.242   1.878  21.083  0.00  0.00    -0.506 OA
ATOM     25  H   UNL     1      10.048   2.280  20.683  0.00  0.00    +0.292 HD
ENDBRANCH  21  24
ENDBRANCH   2  16
TORSDOF 5
ENDMDL
MODEL 6
REMARK VINA RESULT:      -6.2      5.181      8.078
REMARK  Name = 
REMARK  7 active torsions:
REMARK  status: ('A' for Active; 'I' for Inactive)
REMARK    1  A    between atoms: C_1  and  O_2
REMARK    2  A    between atoms: O_2  and  C_3
REMARK    3  A    between atoms: C_6  and  C_9
REMARK    4  A    between atoms: C_10  and  C_11
REMARK    5  A    between atoms: C_14  and  C_15
REMARK    6  A    between atoms: C_16  and  O_17
REMARK    7  A    between atoms: C_19  and  O_20
REMARK                            x       y       z     vdW  Elec       q    Type
REMARK                         _______ _______ _______ _____ _____    ______ ____
ROOT
ATOM      1  C   UNL     1       6.790  -4.234  23.540  0.00  0.00    +0.030 A 
ATOM      2  C   UNL     1       7.327  -2.975  23.000  0.00  0.00    +0.104 A 
ATOM      3  N   UNL     1       7.021  -2.872  21.690  0.00  0.00    -0.173 NA
ATOM      4  N   UNL     1       6.327  -3.976  21.406  0.00  0.00    -0.281 N 
ATOM      5  H   UNL     1       5.997  -4.103  20.454  0.00  0.00    +0.189 HD
ATOM      6  C   UNL     1       6.183  -4.847  22.446  0.00  0.00    +0.041 A 
ATOM      7  C   UNL     1       5.496  -6.140  22.218  0.00  0.00    +0.065 C 
ENDROOT
BRANCH   1  11
ATOM      8  C   UNL     1       6.743  -5.568  27.610  0.00  0.00    +0.120 A 
ATOM      9  C   UNL     1       5.602  -5.586  26.825  0.00  0.00    +0.046 A 
ATOM     10  C   UNL     1       5.698  -5.316  25.458  0.00  0.00    +0.012 A 
ATOM     11  C   UNL     1       6.859  -4.815  24.884  0.00  0.00    -0.014 A 
ATOM     12  C   UNL     1       8.027  -4.892  25.653  0.00  0.00    +0.012 A 
ATOM     13  C   UNL     1       7.971  -5.318  26.995  0.00  0.00    +0.046 A 
BRANCH   8  15
ATOM     14  C   UNL     1       5.470  -6.089  29.525  0.00  0.00    +0.277 C 
ATOM     15  O   UNL     1       6.758  -5.866  28.944  0.00  0.00    -0.495 OA
ENDBRANCH   8  15
ENDBRANCH   1  11
BRANCH   2  16
ATOM     16  C   UNL     1       8.221  -1.916  23.569  0.00  0.00    +0.044 A 
ATOM     17  C   UNL     1       7.992  -1.280  24.792  0.00  0.00    +0.017 A 
ATOM     18  C   UNL     1       8.921  -0.417  25.382  0.00  0.00    +0.046 A 
ATOM     19  C   UNL     1      10.087  -0.105  24.711  0.00  0.00    +0.120 A 
ATOM     20  C   UNL     1      10.306  -0.603  23.436  0.00  0.00    +0.091 A 
ATOM     21  C   UNL     1       9.375  -1.487  22.874  0.00  0.00    +0.130 A 
BRANCH  19  22
ATOM     22  O   UNL     1      10.972   0.719  25.335  0.00  0.00    -0.507 OA
ATOM     23  H   UNL     1      11.664   0.173  25.743  0.00  0.00    +0.292 HD
ENDBRANCH  19  22
BRANCH  21  24
ATOM     24  O   UNL     1       9.647  -1.886  21.587  0.00  0.00    -0.506 OA
ATOM     25  H   UNL     1       9.913  -2.831  21.661  0.00  0.00    +0.292 HD
ENDBRANCH  21  24
ENDBRANCH   2  16
TORSDOF 5
ENDMDL
MODEL 7
REMARK VINA RESULT:      -6.2      6.126      8.919
REMARK  Name = 
REMARK  7 active torsions:
REMARK  status: ('A' for Active; 'I' for Inactive)
REMARK    1  A    between atoms: C_1  and  O_2
REMARK    2  A    between atoms: O_2  and  C_3
REMARK    3  A    between atoms: C_6  and  C_9
REMARK    4  A    between atoms: C_10  and  C_11
REMARK    5  A    between atoms: C_14  and  C_15
REMARK    6  A    between atoms: C_16  and  O_17
REMARK    7  A    between atoms: C_19  and  O_20
REMARK                            x       y       z     vdW  Elec       q    Type
REMARK                         _______ _______ _______ _____ _____    ______ ____
ROOT
ATOM      1  C   UNL     1       6.427  -5.036  23.664  0.00  0.00    +0.030 A 
ATOM      2  C   UNL     1       5.645  -5.623  24.763  0.00  0.00    +0.104 A 
ATOM      3  N   UNL     1       4.896  -6.644  24.295  0.00  0.00    -0.173 NA
ATOM      4  N   UNL     1       5.183  -6.721  22.995  0.00  0.00    -0.281 N 
ATOM      5  H   UNL     1       4.717  -7.433  22.442  0.00  0.00    +0.189 HD
ATOM      6  C   UNL     1       6.056  -5.775  22.542  0.00  0.00    +0.041 A 
ATOM      7  C   UNL     1       6.382  -5.722  21.098  0.00  0.00    +0.065 C 
ENDROOT
BRANCH   1  11
ATOM      8  C   UNL     1       9.219  -1.829  23.145  0.00  0.00    +0.120 A 
ATOM      9  C   UNL     1       7.918  -1.743  22.680  0.00  0.00    +0.046 A 
ATOM     10  C   UNL     1       6.992  -2.729  23.027  0.00  0.00    +0.012 A 
ATOM     11  C   UNL     1       7.371  -3.915  23.643  0.00  0.00    -0.014 A 
ATOM     12  C   UNL     1       8.658  -3.955  24.196  0.00  0.00    +0.012 A 
ATOM     13  C   UNL     1       9.557  -2.889  23.989  0.00  0.00    +0.046 A 
BRANCH   8  15
ATOM     14  C   UNL     1       9.839   0.078  21.907  0.00  0.00    +0.277 C 
ATOM     15  O   UNL     1      10.182  -0.890  22.901  0.00  0.00    -0.495 OA
ENDBRANCH   8  15
ENDBRANCH   1  11
BRANCH   2  16
ATOM     16  C   UNL     1       5.430  -5.227  26.191  0.00  0.00    +0.044 A 
ATOM     17  C   UNL     1       4.305  -4.535  26.645  0.00  0.00    +0.017 A 
ATOM     18  C   UNL     1       4.045  -4.321  28.003  0.00  0.00    +0.046 A 
ATOM     19  C   UNL     1       4.963  -4.735  28.949  0.00  0.00    +0.120 A 
ATOM     20  C   UNL     1       6.158  -5.309  28.548  0.00  0.00    +0.091 A 
ATOM     21  C   UNL     1       6.388  -5.538  27.184  0.00  0.00    +0.130 A 
BRANCH  19  22
ATOM     22  O   UNL     1       4.655  -4.526  30.258  0.00  0.00    -0.507 OA
ATOM     23  H   UNL     1       4.997  -5.273  30.776  0.00  0.00    +0.292 HD
ENDBRANCH  19  22
BRANCH  21  24
ATOM     24  O   UNL     1       7.622  -6.060  26.876  0.00  0.00    -0.506 OA
ATOM     25  H   UNL     1       8.218  -5.758  27.599  0.00  0.00    +0.292 HD
ENDBRANCH  21  24
ENDBRANCH   2  16
TORSDOF 5
ENDMDL
MODEL 8
REMARK VINA RESULT:      -6.1      3.570      6.864
REMARK  Name = 
REMARK  7 active torsions:
REMARK  status: ('A' for Active; 'I' for Inactive)
REMARK    1  A    between atoms: C_1  and  O_2
REMARK    2  A    between atoms: O_2  and  C_3
REMARK    3  A    between atoms: C_6  and  C_9
REMARK    4  A    between atoms: C_10  and  C_11
REMARK    5  A    between atoms: C_14  and  C_15
REMARK    6  A    between atoms: C_16  and  O_17
REMARK    7  A    between atoms: C_19  and  O_20
REMARK                            x       y       z     vdW  Elec       q    Type
REMARK                         _______ _______ _______ _____ _____    ______ ____
ROOT
ATOM      1  C   UNL     1       8.327  -0.252  22.734  0.00  0.00    +0.030 A 
ATOM      2  C   UNL     1       8.431  -1.700  22.496  0.00  0.00    +0.104 A 
ATOM      3  N   UNL     1       9.571  -1.973  21.828  0.00  0.00    -0.173 NA
ATOM      4  N   UNL     1      10.167  -0.791  21.658  0.00  0.00    -0.281 N 
ATOM      5  H   UNL     1      11.055  -0.769  21.165  0.00  0.00    +0.189 HD
ATOM      6  C   UNL     1       9.470   0.279  22.137  0.00  0.00    +0.041 A 
ATOM      7  C   UNL     1      10.006   1.644  21.931  0.00  0.00    +0.065 C 
ENDROOT
BRANCH   1  11
ATOM      8  C   UNL     1       5.024   1.712  24.625  0.00  0.00    +0.120 A 
ATOM      9  C   UNL     1       5.709   0.682  25.246  0.00  0.00    +0.046 A 
ATOM     10  C   UNL     1       6.888   0.193  24.676  0.00  0.00    +0.012 A 
ATOM     11  C   UNL     1       7.291   0.546  23.396  0.00  0.00    -0.014 A 
ATOM     12  C   UNL     1       6.656   1.652  22.817  0.00  0.00    +0.012 A 
ATOM     13  C   UNL     1       5.559   2.262  23.458  0.00  0.00    +0.046 A 
BRANCH   8  15
ATOM     14  C   UNL     1       3.798   3.702  24.932  0.00  0.00    +0.277 C 
ATOM     15  O   UNL     1       3.891   2.289  25.128  0.00  0.00    -0.495 OA
ENDBRANCH   8  15
ENDBRANCH   1  11
BRANCH   2  16
ATOM     16  C   UNL     1       7.489  -2.844  22.720  0.00  0.00    +0.044 A 
ATOM     17  C   UNL     1       6.157  -2.846  22.301  0.00  0.00    +0.017 A 
ATOM     18  C   UNL     1       5.344  -3.983  22.371  0.00  0.00    +0.046 A 
ATOM     19  C   UNL     1       5.833  -5.140  22.945  0.00  0.00    +0.120 A 
ATOM     20  C   UNL     1       7.104  -5.154  23.497  0.00  0.00    +0.091 A 
ATOM     21  C   UNL     1       7.912  -4.013  23.393  0.00  0.00    +0.130 A 
BRANCH  19  22
ATOM     22  O   UNL     1       5.014  -6.226  22.969  0.00  0.00    -0.507 OA
ATOM     23  H   UNL     1       4.150  -5.966  22.610  0.00  0.00    +0.292 HD
ENDBRANCH  19  22
BRANCH  21  24
ATOM     24  O   UNL     1       9.135  -4.100  24.016  0.00  0.00    -0.506 OA
ATOM     25  H   UNL     1       9.570  -3.232  23.852  0.00  0.00    +0.292 HD
ENDBRANCH  21  24
ENDBRANCH   2  16
TORSDOF 5
ENDMDL
MODEL 9
REMARK VINA RESULT:      -5.9      3.503      6.875
REMARK  Name = 
REMARK  7 active torsions:
REMARK  status: ('A' for Active; 'I' for Inactive)
REMARK    1  A    between atoms: C_1  and  O_2
REMARK    2  A    between atoms: O_2  and  C_3
REMARK    3  A    between atoms: C_6  and  C_9
REMARK    4  A    between atoms: C_10  and  C_11
REMARK    5  A    between atoms: C_14  and  C_15
REMARK    6  A    between atoms: C_16  and  O_17
REMARK    7  A    between atoms: C_19  and  O_20
REMARK                            x       y       z     vdW  Elec       q    Type
REMARK                         _______ _______ _______ _____ _____    ______ ____
ROOT
ATOM      1  C   UNL     1       8.626  -0.396  23.291  0.00  0.00    +0.030 A 
ATOM      2  C   UNL     1       8.962  -1.828  23.284  0.00  0.00    +0.104 A 
ATOM      3  N   UNL     1       9.727  -2.112  22.209  0.00  0.00    -0.173 NA
ATOM      4  N   UNL     1       9.885  -0.949  21.575  0.00  0.00    -0.281 N 
ATOM      5  H   UNL     1      10.435  -0.939  20.722  0.00  0.00    +0.189 HD
ATOM      6  C   UNL     1       9.229   0.106  22.139  0.00  0.00    +0.041 A 
ATOM      7  C   UNL     1       9.274   1.428  21.472  0.00  0.00    +0.065 C 
ENDROOT
BRANCH   1  11
ATOM      8  C   UNL     1       6.112   2.157  25.637  0.00  0.00    +0.120 A 
ATOM      9  C   UNL     1       5.587   1.157  24.837  0.00  0.00    +0.046 A 
ATOM     10  C   UNL     1       6.444   0.234  24.232  0.00  0.00    +0.012 A 
ATOM     11  C   UNL     1       7.822   0.402  24.221  0.00  0.00    -0.014 A 
ATOM     12  C   UNL     1       8.349   1.351  25.107  0.00  0.00    +0.012 A 
ATOM     13  C   UNL     1       7.492   2.187  25.850  0.00  0.00    +0.046 A 
BRANCH   8  15
ATOM     14  C   UNL     1       3.955   2.782  26.356  0.00  0.00    +0.277 C 
ATOM     15  O   UNL     1       5.353   3.076  26.309  0.00  0.00    -0.495 OA
ENDBRANCH   8  15
ENDBRANCH   1  11
BRANCH   2  16
ATOM     16  C   UNL     1       8.519  -2.988  24.123  0.00  0.00    +0.044 A 
ATOM     17  C   UNL     1       8.843  -3.138  25.473  0.00  0.00    +0.017 A 
ATOM     18  C   UNL     1       8.285  -4.138  26.277  0.00  0.00    +0.046 A 
ATOM     19  C   UNL     1       7.436  -5.073  25.718  0.00  0.00    +0.120 A 
ATOM     20  C   UNL     1       7.185  -5.051  24.355  0.00  0.00    +0.091 A 
ATOM     21  C   UNL     1       7.733  -4.026  23.572  0.00  0.00    +0.130 A 
BRANCH  19  22
ATOM     22  O   UNL     1       6.899  -6.010  26.545  0.00  0.00    -0.507 OA
ATOM     23  H   UNL     1       5.943  -5.853  26.608  0.00  0.00    +0.292 HD
ENDBRANCH  19  22
BRANCH  21  24
ATOM     24  O   UNL     1       7.475  -4.115  22.224  0.00  0.00    -0.506 OA
ATOM     25  H   UNL     1       6.807  -3.415  22.042  0.00  0.00    +0.292 HD
ENDBRANCH  21  24
ENDBRANCH   2  16
TORSDOF 5
ENDMDL
