MODEL 1
REMARK VINA RESULT:      -4.7      0.000      0.000
REMARK  Name = 
REMARK  9 active torsions:
REMARK  status: ('A' for Active; 'I' for Inactive)
REMARK    1  A    between atoms: N_1  and  CA_2
REMARK    2  A    between atoms: CA_2  and  C_4
REMARK    3  A    between atoms: CA_2  and  C_12
REMARK    4  A    between atoms: C_4  and  O_6
REMARK    5  A    between atoms: C_4  and  O_7
REMARK    6  A    between atoms: O_7  and  P_8
REMARK    7  A    between atoms: P_8  and  O_9
REMARK    8  A    between atoms: P_8  and  O_10
REMARK    9  A    between atoms: C_12  and  O_13
REMARK                            x       y       z     vdW  Elec       q    Type
REMARK                         _______ _______ _______ _____ _____    ______ ____
ROOT
ATOM      1  C   UNL     1       8.863  -3.733  24.378  0.00  0.00    +0.286 C 
ENDROOT
BRANCH   1   2
ATOM      2  O   UNL     1       8.369  -4.611  23.366  0.00  0.00    -0.365 OA
ATOM      3  H   UNL     1       8.432  -4.097  22.533  0.00  0.00    +0.213 HD
ENDBRANCH   1   2
BRANCH   1   4
ATOM      4  CA  UNL     1       9.185  -4.580  25.640  0.00  0.00    +0.217 C 
BRANCH   4   5
ATOM      5  N   UNL     1      10.288  -5.578  25.460  0.00  0.00    -0.314 NA
ATOM      6  H1  UNL     1       9.980  -6.195  24.691  0.00  0.00    +0.119 HD
ATOM      7  H2  UNL     1      10.241  -6.243  26.242  0.00  0.00    +0.119 HD
ENDBRANCH   4   5
BRANCH   4   8
ATOM      8  C   UNL     1       7.924  -5.298  26.147  0.00  0.00    +0.327 C 
ATOM      9  OXT UNL     1       6.866  -5.380  25.558  0.00  0.00    -0.249 OA
BRANCH   8  10
ATOM     10  O   UNL     1       8.113  -5.811  27.394  0.00  0.00    -0.479 OA
ATOM     11  H   UNL     1       7.588  -5.314  28.061  0.00  0.00    +0.295 HD
ENDBRANCH   8  10
ENDBRANCH   4   8
ENDBRANCH   1   4
BRANCH   1  12
ATOM     12  O   UNL     1      10.007  -3.089  23.822  0.00  0.00    -0.255 OA
BRANCH  12  13
ATOM     13  P   UNL     1       9.846  -1.410  23.438  0.00  0.00    +0.475 P 
ATOM     14  O   UNL     1       9.704   0.093  23.094  0.00  0.00    -0.227 OA
BRANCH  13  15
ATOM     15  O   UNL     1       8.277  -1.751  23.136  0.00  0.00    -0.303 OA
ATOM     16  H   UNL     1       8.218  -2.553  22.585  0.00  0.00    +0.222 HD
ENDBRANCH  13  15
BRANCH  13  17
ATOM     17  O   UNL     1      10.473  -1.795  21.973  0.00  0.00    -0.303 OA
ATOM     18  H   UNL     1      11.208  -1.203  21.739  0.00  0.00    +0.222 HD
ENDBRANCH  13  17
ENDBRANCH  12  13
ENDBRANCH   1  12
TORSDOF 9
ENDMDL
MODEL 2
REMARK VINA RESULT:      -4.7      2.586      5.037
REMARK  Name = 
REMARK  9 active torsions:
REMARK  status: ('A' for Active; 'I' for Inactive)
REMARK    1  A    between atoms: N_1  and  CA_2
REMARK    2  A    between atoms: CA_2  and  C_4
REMARK    3  A    between atoms: CA_2  and  C_12
REMARK    4  A    between atoms: C_4  and  O_6
REMARK    5  A    between atoms: C_4  and  O_7
REMARK    6  A    between atoms: O_7  and  P_8
REMARK    7  A    between atoms: P_8  and  O_9
REMARK    8  A    between atoms: P_8  and  O_10
REMARK    9  A    between atoms: C_12  and  O_13
REMARK                            x       y       z     vdW  Elec       q    Type
REMARK                         _______ _______ _______ _____ _____    ______ ____
ROOT
ATOM      1  C   UNL     1       9.047  -2.117  24.184  0.00  0.00    +0.286 C 
ENDROOT
BRANCH   1   2
ATOM      2  O   UNL     1      10.072  -1.171  24.492  0.00  0.00    -0.365 OA
ATOM      3  H   UNL     1       9.737  -0.316  24.149  0.00  0.00    +0.213 HD
ENDBRANCH   1   2
BRANCH   1   4
ATOM      4  CA  UNL     1       8.398  -1.704  22.834  0.00  0.00    +0.217 C 
BRANCH   4   5
ATOM      5  N   UNL     1       7.697  -2.814  22.111  0.00  0.00    -0.314 NA
ATOM      6  H1  UNL     1       6.727  -2.488  21.977  0.00  0.00    +0.119 HD
ATOM      7  H2  UNL     1       7.532  -3.573  22.784  0.00  0.00    +0.119 HD
ENDBRANCH   4   5
BRANCH   4   8
ATOM      8  C   UNL     1       9.441  -1.066  21.903  0.00  0.00    +0.327 C 
ATOM      9  OXT UNL     1       9.287  -0.056  21.248  0.00  0.00    -0.249 OA
BRANCH   8  10
ATOM     10  O   UNL     1      10.582  -1.807  21.855  0.00  0.00    -0.479 OA
ATOM     11  H   UNL     1      10.810  -2.039  20.927  0.00  0.00    +0.295 HD
ENDBRANCH   8  10
ENDBRANCH   4   8
ENDBRANCH   1   4
BRANCH   1  12
ATOM     12  O   UNL     1       9.682  -3.392  24.141  0.00  0.00    -0.255 OA
BRANCH  12  13
ATOM     13  P   UNL     1       9.003  -4.635  25.134  0.00  0.00    +0.475 P 
ATOM     14  O   UNL     1       8.394  -5.747  26.021  0.00  0.00    -0.227 OA
BRANCH  13  15
ATOM     15  O   UNL     1      10.499  -5.291  25.129  0.00  0.00    -0.303 OA
ATOM     16  H   UNL     1      10.701  -5.649  26.014  0.00  0.00    +0.222 HD
ENDBRANCH  13  15
BRANCH  13  17
ATOM     17  O   UNL     1       8.438  -5.290  23.741  0.00  0.00    -0.303 OA
ATOM     18  H   UNL     1       8.954  -4.984  22.975  0.00  0.00    +0.222 HD
ENDBRANCH  13  17
ENDBRANCH  12  13
ENDBRANCH   1  12
TORSDOF 9
ENDMDL
MODEL 3
REMARK VINA RESULT:      -4.7      3.105      3.790
REMARK  Name = 
REMARK  9 active torsions:
REMARK  status: ('A' for Active; 'I' for Inactive)
REMARK    1  A    between atoms: N_1  and  CA_2
REMARK    2  A    between atoms: CA_2  and  C_4
REMARK    3  A    between atoms: CA_2  and  C_12
REMARK    4  A    between atoms: C_4  and  O_6
REMARK    5  A    between atoms: C_4  and  O_7
REMARK    6  A    between atoms: O_7  and  P_8
REMARK    7  A    between atoms: P_8  and  O_9
REMARK    8  A    between atoms: P_8  and  O_10
REMARK    9  A    between atoms: C_12  and  O_13
REMARK                            x       y       z     vdW  Elec       q    Type
REMARK                         _______ _______ _______ _____ _____    ______ ____
ROOT
ATOM      1  C   UNL     1       7.501  -4.820  24.044  0.00  0.00    +0.286 C 
ENDROOT
BRANCH   1   2
ATOM      2  O   UNL     1       6.354  -5.311  24.740  0.00  0.00    -0.365 OA
ATOM      3  H   UNL     1       5.711  -5.537  24.036  0.00  0.00    +0.213 HD
ENDBRANCH   1   2
BRANCH   1   4
ATOM      4  CA  UNL     1       8.658  -4.659  25.070  0.00  0.00    +0.217 C 
BRANCH   4   5
ATOM      5  N   UNL     1       9.784  -5.633  24.902  0.00  0.00    -0.314 NA
ATOM      6  H1  UNL     1       9.924  -6.057  25.833  0.00  0.00    +0.119 HD
ATOM      7  H2  UNL     1      10.656  -5.095  24.825  0.00  0.00    +0.119 HD
ENDBRANCH   4   5
BRANCH   4   8
ATOM      8  C   UNL     1       8.122  -4.739  26.508  0.00  0.00    +0.327 C 
ATOM      9  OXT UNL     1       7.690  -3.810  27.159  0.00  0.00    -0.249 OA
BRANCH   8  10
ATOM     10  O   UNL     1       8.231  -6.001  27.008  0.00  0.00    -0.479 OA
ATOM     11  H   UNL     1       7.441  -6.539  26.775  0.00  0.00    +0.295 HD
ENDBRANCH   8  10
ENDBRANCH   4   8
ENDBRANCH   1   4
BRANCH   1  12
ATOM     12  O   UNL     1       7.781  -5.770  23.019  0.00  0.00    -0.255 OA
BRANCH  12  13
ATOM     13  P   UNL     1       6.814  -5.680  21.588  0.00  0.00    +0.475 P 
ATOM     14  O   UNL     1       5.947  -5.602  20.308  0.00  0.00    -0.227 OA
BRANCH  13  15
ATOM     15  O   UNL     1       6.288  -4.250  22.176  0.00  0.00    -0.303 OA
ATOM     16  H   UNL     1       6.536  -4.172  23.116  0.00  0.00    +0.222 HD
ENDBRANCH  13  15
BRANCH  13  17
ATOM     17  O   UNL     1       5.765  -6.671  22.365  0.00  0.00    -0.303 OA
ATOM     18  H   UNL     1       5.133  -7.072  21.743  0.00  0.00    +0.222 HD
ENDBRANCH  13  17
ENDBRANCH  12  13
ENDBRANCH   1  12
TORSDOF 9
ENDMDL
MODEL 4
REMARK VINA RESULT:      -4.6      3.155      4.381
REMARK  Name = 
REMARK  9 active torsions:
REMARK  status: ('A' for Active; 'I' for Inactive)
REMARK    1  A    between atoms: N_1  and  CA_2
REMARK    2  A    between atoms: CA_2  and  C_4
REMARK    3  A    between atoms: CA_2  and  C_12
REMARK    4  A    between atoms: C_4  and  O_6
REMARK    5  A    between atoms: C_4  and  O_7
REMARK    6  A    between atoms: O_7  and  P_8
REMARK    7  A    between atoms: P_8  and  O_9
REMARK    8  A    between atoms: P_8  and  O_10
REMARK    9  A    between atoms: C_12  and  O_13
REMARK                            x       y       z     vdW  Elec       q    Type
REMARK                         _______ _______ _______ _____ _____    ______ ____
ROOT
ATOM      1  C   UNL     1      10.312  -0.198  23.661  0.00  0.00    +0.286 C 
ENDROOT
BRANCH   1   2
ATOM      2  O   UNL     1       9.956  -0.451  25.021  0.00  0.00    -0.365 OA
ATOM      3  H   UNL     1       9.296   0.241  25.241  0.00  0.00    +0.213 HD
ENDBRANCH   1   2
BRANCH   1   4
ATOM      4  CA  UNL     1      10.382  -1.561  22.917  0.00  0.00    +0.217 C 
BRANCH   4   5
ATOM      5  N   UNL     1      10.002  -1.504  21.469  0.00  0.00    -0.314 NA
ATOM      6  H1  UNL     1      10.892  -1.559  20.947  0.00  0.00    +0.119 HD
ATOM      7  H2  UNL     1       9.735  -0.536  21.251  0.00  0.00    +0.119 HD
ENDBRANCH   4   5
BRANCH   4   8
ATOM      8  C   UNL     1       9.519  -2.613  23.631  0.00  0.00    +0.327 C 
ATOM      9  OXT UNL     1       9.931  -3.584  24.232  0.00  0.00    -0.249 OA
BRANCH   8  10
ATOM     10  O   UNL     1       8.191  -2.355  23.473  0.00  0.00    -0.479 OA
ATOM     11  H   UNL     1       7.766  -3.040  22.909  0.00  0.00    +0.295 HD
ENDBRANCH   8  10
ENDBRANCH   4   8
ENDBRANCH   1   4
BRANCH   1  12
ATOM     12  O   UNL     1       9.314   0.679  23.144  0.00  0.00    -0.255 OA
BRANCH  12  13
ATOM     13  P   UNL     1       9.621   2.375  23.280  0.00  0.00    +0.475 P 
ATOM     14  O   UNL     1       9.896   3.894  23.402  0.00  0.00    -0.227 OA
BRANCH  13  15
ATOM     15  O   UNL     1      10.099   2.293  21.720  0.00  0.00    -0.303 OA
ATOM     16  H   UNL     1       9.461   1.760  21.210  0.00  0.00    +0.222 HD
ENDBRANCH  13  15
BRANCH  13  17
ATOM     17  O   UNL     1      11.033   1.954  23.997  0.00  0.00    -0.303 OA
ATOM     18  H   UNL     1      10.931   1.892  24.963  0.00  0.00    +0.222 HD
ENDBRANCH  13  17
ENDBRANCH  12  13
ENDBRANCH   1  12
TORSDOF 9
ENDMDL
MODEL 5
REMARK VINA RESULT:      -4.5      4.503      6.491
REMARK  Name = 
REMARK  9 active torsions:
REMARK  status: ('A' for Active; 'I' for Inactive)
REMARK    1  A    between atoms: N_1  and  CA_2
REMARK    2  A    between atoms: CA_2  and  C_4
REMARK    3  A    between atoms: CA_2  and  C_12
REMARK    4  A    between atoms: C_4  and  O_6
REMARK    5  A    between atoms: C_4  and  O_7
REMARK    6  A    between atoms: O_7  and  P_8
REMARK    7  A    between atoms: P_8  and  O_9
REMARK    8  A    between atoms: P_8  and  O_10
REMARK    9  A    between atoms: C_12  and  O_13
REMARK                            x       y       z     vdW  Elec       q    Type
REMARK                         _______ _______ _______ _____ _____    ______ ____
ROOT
ATOM      1  C   UNL     1       9.939   1.009  22.408  0.00  0.00    +0.286 C 
ENDROOT
BRANCH   1   2
ATOM      2  O   UNL     1       9.725   1.973  21.376  0.00  0.00    -0.365 OA
ATOM      3  H   UNL     1      10.299   1.681  20.636  0.00  0.00    +0.213 HD
ENDBRANCH   1   2
BRANCH   1   4
ATOM      4  CA  UNL     1      10.576   1.736  23.625  0.00  0.00    +0.217 C 
BRANCH   4   5
ATOM      5  N   UNL     1      10.121   1.236  24.962  0.00  0.00    -0.314 NA
ATOM      6  H1  UNL     1       9.893   2.081  25.510  0.00  0.00    +0.119 HD
ATOM      7  H2  UNL     1      10.950   0.915  25.477  0.00  0.00    +0.119 HD
ENDBRANCH   4   5
BRANCH   4   8
ATOM      8  C   UNL     1      10.336   3.252  23.537  0.00  0.00    +0.327 C 
ATOM      9  OXT UNL     1       9.321   3.832  23.863  0.00  0.00    -0.249 OA
BRANCH   8  10
ATOM     10  O   UNL     1      11.406   3.892  22.991  0.00  0.00    -0.479 OA
ATOM     11  H   UNL     1      11.912   3.289  22.401  0.00  0.00    +0.295 HD
ENDBRANCH   8  10
ENDBRANCH   4   8
ENDBRANCH   1   4
BRANCH   1  12
ATOM     12  O   UNL     1       8.664   0.440  22.692  0.00  0.00    -0.255 OA
BRANCH  12  13
ATOM     13  P   UNL     1       8.491  -1.260  22.423  0.00  0.00    +0.475 P 
ATOM     14  O   UNL     1       8.336  -2.781  22.182  0.00  0.00    -0.227 OA
BRANCH  13  15
ATOM     15  O   UNL     1       9.352  -1.444  23.799  0.00  0.00    -0.303 OA
ATOM     16  H   UNL     1       9.226  -2.348  24.144  0.00  0.00    +0.222 HD
ENDBRANCH  13  15
BRANCH  13  17
ATOM     17  O   UNL     1       9.735  -1.111  21.367  0.00  0.00    -0.303 OA
ATOM     18  H   UNL     1       9.550  -0.427  20.701  0.00  0.00    +0.222 HD
ENDBRANCH  13  17
ENDBRANCH  12  13
ENDBRANCH   1  12
TORSDOF 9
ENDMDL
MODEL 6
REMARK VINA RESULT:      -4.5      4.523      6.576
REMARK  Name = 
REMARK  9 active torsions:
REMARK  status: ('A' for Active; 'I' for Inactive)
REMARK    1  A    between atoms: N_1  and  CA_2
REMARK    2  A    between atoms: CA_2  and  C_4
REMARK    3  A    between atoms: CA_2  and  C_12
REMARK    4  A    between atoms: C_4  and  O_6
REMARK    5  A    between atoms: C_4  and  O_7
REMARK    6  A    between atoms: O_7  and  P_8
REMARK    7  A    between atoms: P_8  and  O_9
REMARK    8  A    between atoms: P_8  and  O_10
REMARK    9  A    between atoms: C_12  and  O_13
REMARK                            x       y       z     vdW  Elec       q    Type
REMARK                         _______ _______ _______ _____ _____    ______ ____
ROOT
ATOM      1  C   UNL     1       9.454   0.916  23.809  0.00  0.00    +0.286 C 
ENDROOT
BRANCH   1   2
ATOM      2  O   UNL     1      10.249   1.277  24.940  0.00  0.00    -0.365 OA
ATOM      3  H   UNL     1      11.120   1.525  24.566  0.00  0.00    +0.213 HD
ENDBRANCH   1   2
BRANCH   1   4
ATOM      4  CA  UNL     1       9.286   2.176  22.915  0.00  0.00    +0.217 C 
BRANCH   4   5
ATOM      5  N   UNL     1       9.869   2.051  21.540  0.00  0.00    -0.314 NA
ATOM      6  H1  UNL     1      10.402   2.922  21.385  0.00  0.00    +0.119 HD
ATOM      7  H2  UNL     1       9.109   2.191  20.862  0.00  0.00    +0.119 HD
ENDBRANCH   4   5
BRANCH   4   8
ATOM      8  C   UNL     1       9.873   3.416  23.608  0.00  0.00    +0.327 C 
ATOM      9  OXT UNL     1       9.305   4.110  24.425  0.00  0.00    -0.249 OA
BRANCH   8  10
ATOM     10  O   UNL     1      11.128   3.688  23.156  0.00  0.00    -0.479 OA
ATOM     11  H   UNL     1      11.671   2.869  23.117  0.00  0.00    +0.295 HD
ENDBRANCH   8  10
ENDBRANCH   4   8
ENDBRANCH   1   4
BRANCH   1  12
ATOM     12  O   UNL     1      10.143  -0.150  23.161  0.00  0.00    -0.255 OA
BRANCH  12  13
ATOM     13  P   UNL     1       9.185  -1.489  22.631  0.00  0.00    +0.475 P 
ATOM     14  O   UNL     1       8.326  -2.686  22.154  0.00  0.00    -0.227 OA
BRANCH  13  15
ATOM     15  O   UNL     1      10.512  -2.398  22.914  0.00  0.00    -0.303 OA
ATOM     16  H   UNL     1      11.169  -1.872  23.405  0.00  0.00    +0.222 HD
ENDBRANCH  13  15
BRANCH  13  17
ATOM     17  O   UNL     1       9.538  -0.999  21.107  0.00  0.00    -0.303 OA
ATOM     18  H   UNL     1       8.733  -0.739  20.626  0.00  0.00    +0.222 HD
ENDBRANCH  13  17
ENDBRANCH  12  13
ENDBRANCH   1  12
TORSDOF 9
ENDMDL
MODEL 7
REMARK VINA RESULT:      -4.5      2.735      4.596
REMARK  Name = 
REMARK  9 active torsions:
REMARK  status: ('A' for Active; 'I' for Inactive)
REMARK    1  A    between atoms: N_1  and  CA_2
REMARK    2  A    between atoms: CA_2  and  C_4
REMARK    3  A    between atoms: CA_2  and  C_12
REMARK    4  A    between atoms: C_4  and  O_6
REMARK    5  A    between atoms: C_4  and  O_7
REMARK    6  A    between atoms: O_7  and  P_8
REMARK    7  A    between atoms: P_8  and  O_9
REMARK    8  A    between atoms: P_8  and  O_10
REMARK    9  A    between atoms: C_12  and  O_13
REMARK                            x       y       z     vdW  Elec       q    Type
REMARK                         _______ _______ _______ _____ _____    ______ ____
ROOT
ATOM      1  C   UNL     1       8.655  -3.098  23.245  0.00  0.00    +0.286 C 
ENDROOT
BRANCH   1   2
ATOM      2  O   UNL     1       7.370  -3.022  23.864  0.00  0.00    -0.365 OA
ATOM      3  H   UNL     1       6.984  -3.916  23.752  0.00  0.00    +0.213 HD
ENDBRANCH   1   2
BRANCH   1   4
ATOM      4  CA  UNL     1       9.096  -1.657  22.866  0.00  0.00    +0.217 C 
BRANCH   4   5
ATOM      5  N   UNL     1      10.117  -1.582  21.772  0.00  0.00    -0.314 NA
ATOM      6  H1  UNL     1      11.014  -1.841  22.212  0.00  0.00    +0.119 HD
ATOM      7  H2  UNL     1      10.300  -0.589  21.580  0.00  0.00    +0.119 HD
ENDBRANCH   4   5
BRANCH   4   8
ATOM      8  C   UNL     1       9.615  -0.906  24.102  0.00  0.00    +0.327 C 
ATOM      9  OXT UNL     1      10.651  -0.277  24.170  0.00  0.00    -0.249 OA
BRANCH   8  10
ATOM     10  O   UNL     1       8.780  -1.065  25.166  0.00  0.00    -0.479 OA
ATOM     11  H   UNL     1       8.592  -0.201  25.596  0.00  0.00    +0.295 HD
ENDBRANCH   8  10
ENDBRANCH   4   8
ENDBRANCH   1   4
BRANCH   1  12
ATOM     12  O   UNL     1       9.517  -3.723  24.193  0.00  0.00    -0.255 OA
BRANCH  12  13
ATOM     13  P   UNL     1       8.788  -4.851  25.283  0.00  0.00    +0.475 P 
ATOM     14  O   UNL     1       8.137  -5.862  26.258  0.00  0.00    -0.227 OA
BRANCH  13  15
ATOM     15  O   UNL     1       8.906  -3.666  26.401  0.00  0.00    -0.303 OA
ATOM     16  H   UNL     1       9.150  -2.829  25.965  0.00  0.00    +0.222 HD
ENDBRANCH  13  15
BRANCH  13  17
ATOM     17  O   UNL     1      10.286  -5.498  25.445  0.00  0.00    -0.303 OA
ATOM     18  H   UNL     1      10.540  -5.998  24.650  0.00  0.00    +0.222 HD
ENDBRANCH  13  17
ENDBRANCH  12  13
ENDBRANCH   1  12
TORSDOF 9
ENDMDL
MODEL 8
REMARK VINA RESULT:      -4.5      4.025      5.763
REMARK  Name = 
REMARK  9 active torsions:
REMARK  status: ('A' for Active; 'I' for Inactive)
REMARK    1  A    between atoms: N_1  and  CA_2
REMARK    2  A    between atoms: CA_2  and  C_4
REMARK    3  A    between atoms: CA_2  and  C_12
REMARK    4  A    between atoms: C_4  and  O_6
REMARK    5  A    between atoms: C_4  and  O_7
REMARK    6  A    between atoms: O_7  and  P_8
REMARK    7  A    between atoms: P_8  and  O_9
REMARK    8  A    between atoms: P_8  and  O_10
REMARK    9  A    between atoms: C_12  and  O_13
REMARK                            x       y       z     vdW  Elec       q    Type
REMARK                         _______ _______ _______ _____ _____    ______ ____
ROOT
ATOM      1  C   UNL     1       9.671  -0.366  22.471  0.00  0.00    +0.286 C 
ENDROOT
BRANCH   1   2
ATOM      2  O   UNL     1       9.335  -0.650  21.112  0.00  0.00    -0.365 OA
ATOM      3  H   UNL     1      10.009  -1.298  20.816  0.00  0.00    +0.213 HD
ENDBRANCH   1   2
BRANCH   1   4
ATOM      4  CA  UNL     1       9.598   1.173  22.676  0.00  0.00    +0.217 C 
BRANCH   4   5
ATOM      5  N   UNL     1       9.763   1.980  21.425  0.00  0.00    -0.314 NA
ATOM      6  H1  UNL     1       9.931   1.294  20.672  0.00  0.00    +0.119 HD
ATOM      7  H2  UNL     1      10.687   2.428  21.459  0.00  0.00    +0.119 HD
ENDBRANCH   4   5
BRANCH   4   8
ATOM      8  C   UNL     1      10.629   1.631  23.720  0.00  0.00    +0.327 C 
ATOM      9  OXT UNL     1      11.077   2.753  23.833  0.00  0.00    -0.249 OA
BRANCH   8  10
ATOM     10  O   UNL     1      11.034   0.594  24.504  0.00  0.00    -0.479 OA
ATOM     11  H   UNL     1      10.884  -0.267  24.052  0.00  0.00    +0.295 HD
ENDBRANCH   8  10
ENDBRANCH   4   8
ENDBRANCH   1   4
BRANCH   1  12
ATOM     12  O   UNL     1       8.740  -1.089  23.271  0.00  0.00    -0.255 OA
BRANCH  12  13
ATOM     13  P   UNL     1       9.254  -2.630  23.866  0.00  0.00    +0.475 P 
ATOM     14  O   UNL     1       9.714  -4.009  24.399  0.00  0.00    -0.227 OA
BRANCH  13  15
ATOM     15  O   UNL     1      10.633  -2.359  23.032  0.00  0.00    -0.303 OA
ATOM     16  H   UNL     1      10.859  -3.150  22.509  0.00  0.00    +0.222 HD
ENDBRANCH  13  15
BRANCH  13  17
ATOM     17  O   UNL     1       8.354  -3.277  22.659  0.00  0.00    -0.303 OA
ATOM     18  H   UNL     1       8.690  -3.006  21.787  0.00  0.00    +0.222 HD
ENDBRANCH  13  17
ENDBRANCH  12  13
ENDBRANCH   1  12
TORSDOF 9
ENDMDL
MODEL 9
REMARK VINA RESULT:      -4.4      2.757      3.953
REMARK  Name = 
REMARK  9 active torsions:
REMARK  status: ('A' for Active; 'I' for Inactive)
REMARK    1  A    between atoms: N_1  and  CA_2
REMARK    2  A    between atoms: CA_2  and  C_4
REMARK    3  A    between atoms: CA_2  and  C_12
REMARK    4  A    between atoms: C_4  and  O_6
REMARK    5  A    between atoms: C_4  and  O_7
REMARK    6  A    between atoms: O_7  and  P_8
REMARK    7  A    between atoms: P_8  and  O_9
REMARK    8  A    between atoms: P_8  and  O_10
REMARK    9  A    between atoms: C_12  and  O_13
REMARK                            x       y       z     vdW  Elec       q    Type
REMARK                         _______ _______ _______ _____ _____    ______ ____
ROOT
ATOM      1  C   UNL     1       9.359  -0.871  22.309  0.00  0.00    +0.286 C 
ENDROOT
BRANCH   1   2
ATOM      2  O   UNL     1      10.275  -1.788  21.710  0.00  0.00    -0.365 OA
ATOM      3  H   UNL     1      10.483  -1.400  20.834  0.00  0.00    +0.213 HD
ENDBRANCH   1   2
BRANCH   1   4
ATOM      4  CA  UNL     1       8.939  -1.439  23.693  0.00  0.00    +0.217 C 
BRANCH   4   5
ATOM      5  N   UNL     1       9.653  -0.832  24.862  0.00  0.00    -0.314 NA
ATOM      6  H1  UNL     1       8.974  -0.187  25.297  0.00  0.00    +0.119 HD
ATOM      7  H2  UNL     1      10.329  -0.149  24.498  0.00  0.00    +0.119 HD
ENDBRANCH   4   5
BRANCH   4   8
ATOM      8  C   UNL     1       9.110  -2.966  23.727  0.00  0.00    +0.327 C 
ATOM      9  OXT UNL     1      10.037  -3.568  24.228  0.00  0.00    -0.249 OA
BRANCH   8  10
ATOM     10  O   UNL     1       8.095  -3.593  23.070  0.00  0.00    -0.479 OA
ATOM     11  H   UNL     1       8.376  -3.861  22.167  0.00  0.00    +0.295 HD
ENDBRANCH   8  10
ENDBRANCH   4   8
ENDBRANCH   1   4
BRANCH   1  12
ATOM     12  O   UNL     1      10.043   0.377  22.393  0.00  0.00    -0.255 OA
BRANCH  12  13
ATOM     13  P   UNL     1       9.083   1.806  22.221  0.00  0.00    +0.475 P 
ATOM     14  O   UNL     1       8.225   3.085  22.068  0.00  0.00    -0.227 OA
BRANCH  13  15
ATOM     15  O   UNL     1       8.653   1.198  20.767  0.00  0.00    -0.303 OA
ATOM     16  H   UNL     1       9.370   1.352  20.124  0.00  0.00    +0.222 HD
ENDBRANCH  13  15
BRANCH  13  17
ATOM     17  O   UNL     1      10.472   2.556  21.779  0.00  0.00    -0.303 OA
ATOM     18  H   UNL     1      10.561   3.418  22.220  0.00  0.00    +0.222 HD
ENDBRANCH  13  17
ENDBRANCH  12  13
ENDBRANCH   1  12
TORSDOF 9
ENDMDL
