MODEL 1
REMARK VINA RESULT:      -7.1      0.000      0.000
REMARK  Name = 
REMARK  5 active torsions:
REMARK  status: ('A' for Active; 'I' for Inactive)
REMARK    1  A    between atoms: C_2  and  C_3
REMARK    2  A    between atoms: C_2  and  C_5
REMARK    3  A    between atoms: C_2  and  C_12
REMARK    4  A    between atoms: C_3  and  N_4
REMARK    5  A    between atoms: C_15  and  C_18
REMARK                            x       y       z     vdW  Elec       q    Type
REMARK                         _______ _______ _______ _____ _____    ______ ____
ROOT
ATOM      1  C   UNL     1       8.337  -4.657  24.067  0.00  0.00    +0.062 C 
ENDROOT
BRANCH   1   2
ATOM      2  C   UNL     1       6.895  -5.111  23.801  0.00  0.00    -0.039 A 
ATOM      3  C   UNL     1       5.884  -4.919  24.761  0.00  0.00    +0.006 A 
ATOM      4  C   UNL     1       4.561  -5.266  24.486  0.00  0.00    +0.020 A 
ATOM      5  C   UNL     1       4.238  -5.828  23.257  0.00  0.00    +0.041 A 
ATOM      6 CL   UNL     1       2.602  -6.233  22.908  0.00  0.00    -0.084 Cl
ATOM      7  C   UNL     1       5.228  -6.053  22.303  0.00  0.00    +0.020 A 
ATOM      8  C   UNL     1       6.553  -5.696  22.572  0.00  0.00    +0.006 A 
ENDBRANCH   1   2
BRANCH   1   9
ATOM      9  C   UNL     1       8.459  -3.147  23.832  0.00  0.00    -0.039 A 
ATOM     10  C   UNL     1       8.882  -2.325  24.889  0.00  0.00    +0.005 A 
ATOM     11  C   UNL     1       9.237  -0.991  24.661  0.00  0.00    +0.009 A 
ATOM     12  C   UNL     1       9.180  -0.448  23.372  0.00  0.00    -0.015 A 
ATOM     13  C   UNL     1       8.670  -1.236  22.335  0.00  0.00    +0.009 A 
ATOM     14  C   UNL     1       8.311  -2.568  22.562  0.00  0.00    +0.005 A 
BRANCH  12  15
ATOM     15  C   UNL     1       9.745   0.864  23.108  0.00  0.00    +0.019 A 
ATOM     16  C   UNL     1      10.399   1.765  23.982  0.00  0.00    +0.142 A 
ATOM     17  N   UNL     1      10.849   2.857  23.360  0.00  0.00    -0.182 NA
ATOM     18  N   UNL     1      10.500   2.654  22.080  0.00  0.00    -0.284 N 
ATOM     19  H   UNL     1      10.757   3.356  21.396  0.00  0.00    +0.188 HD
ATOM     20  C   UNL     1       9.836   1.477  21.876  0.00  0.00    +0.113 A 
ENDBRANCH  12  15
ENDBRANCH   1   9
BRANCH   1  21
ATOM     21  C   UNL     1       8.854  -5.132  25.455  0.00  0.00    +0.090 C 
BRANCH  21  22
ATOM     22  N   UNL     1      10.240  -5.621  25.459  0.00  0.00    -0.329 NA
ATOM     23  H   UNL     1      10.821  -4.962  25.981  0.00  0.00    +0.118 HD
ATOM     24  H   UNL     1      10.294  -6.501  25.968  0.00  0.00    +0.118 HD
ENDBRANCH  21  22
ENDBRANCH   1  21
TORSDOF 5
ENDMDL
MODEL 2
REMARK VINA RESULT:      -6.7      0.895      1.705
REMARK  Name = 
REMARK  5 active torsions:
REMARK  status: ('A' for Active; 'I' for Inactive)
REMARK    1  A    between atoms: C_2  and  C_3
REMARK    2  A    between atoms: C_2  and  C_5
REMARK    3  A    between atoms: C_2  and  C_12
REMARK    4  A    between atoms: C_3  and  N_4
REMARK    5  A    between atoms: C_15  and  C_18
REMARK                            x       y       z     vdW  Elec       q    Type
REMARK                         _______ _______ _______ _____ _____    ______ ____
ROOT
ATOM      1  C   UNL     1       8.313  -4.458  23.948  0.00  0.00    +0.062 C 
ENDROOT
BRANCH   1   2
ATOM      2  C   UNL     1       6.803  -4.614  23.720  0.00  0.00    -0.039 A 
ATOM      3  C   UNL     1       6.302  -5.540  22.787  0.00  0.00    +0.006 A 
ATOM      4  C   UNL     1       4.928  -5.732  22.637  0.00  0.00    +0.020 A 
ATOM      5  C   UNL     1       4.041  -4.984  23.403  0.00  0.00    +0.041 A 
ATOM      6 CL   UNL     1       2.347  -5.238  23.235  0.00  0.00    -0.084 Cl
ATOM      7  C   UNL     1       4.516  -4.042  24.312  0.00  0.00    +0.020 A 
ATOM      8  C   UNL     1       5.892  -3.856  24.472  0.00  0.00    +0.006 A 
ENDBRANCH   1   2
BRANCH   1   9
ATOM      9  C   UNL     1       8.729  -3.002  23.707  0.00  0.00    -0.039 A 
ATOM     10  C   UNL     1       8.528  -2.437  22.437  0.00  0.00    +0.005 A 
ATOM     11  C   UNL     1       8.666  -1.060  22.237  0.00  0.00    +0.009 A 
ATOM     12  C   UNL     1       9.003  -0.214  23.300  0.00  0.00    -0.015 A 
ATOM     13  C   UNL     1       9.295  -0.785  24.542  0.00  0.00    +0.009 A 
ATOM     14  C   UNL     1       9.164  -2.162  24.744  0.00  0.00    +0.005 A 
BRANCH  12  15
ATOM     15  C   UNL     1       8.939   1.228  23.133  0.00  0.00    +0.019 A 
ATOM     16  C   UNL     1       9.392   2.262  23.986  0.00  0.00    +0.142 A 
ATOM     17  N   UNL     1       9.222   3.478  23.462  0.00  0.00    -0.182 NA
ATOM     18  N   UNL     1       8.673   3.228  22.263  0.00  0.00    -0.284 N 
ATOM     19  H   UNL     1       8.465   4.014  21.658  0.00  0.00    +0.188 HD
ATOM     20  C   UNL     1       8.482   1.897  22.018  0.00  0.00    +0.113 A 
ENDBRANCH  12  15
ENDBRANCH   1   9
BRANCH   1  21
ATOM     21  C   UNL     1       8.760  -5.031  25.323  0.00  0.00    +0.090 C 
BRANCH  21  22
ATOM     22  N   UNL     1      10.090  -5.656  25.325  0.00  0.00    -0.329 NA
ATOM     23  H   UNL     1      10.509  -5.546  24.399  0.00  0.00    +0.118 HD
ATOM     24  H   UNL     1      10.704  -5.160  25.967  0.00  0.00    +0.118 HD
ENDBRANCH  21  22
ENDBRANCH   1  21
TORSDOF 5
ENDMDL
MODEL 3
REMARK VINA RESULT:      -6.4      4.289      8.460
REMARK  Name = 
REMARK  5 active torsions:
REMARK  status: ('A' for Active; 'I' for Inactive)
REMARK    1  A    between atoms: C_2  and  C_3
REMARK    2  A    between atoms: C_2  and  C_5
REMARK    3  A    between atoms: C_2  and  C_12
REMARK    4  A    between atoms: C_3  and  N_4
REMARK    5  A    between atoms: C_15  and  C_18
REMARK                            x       y       z     vdW  Elec       q    Type
REMARK                         _______ _______ _______ _____ _____    ______ ____
ROOT
ATOM      1  C   UNL     1      11.123   3.938  23.780  0.00  0.00    +0.062 C 
ENDROOT
BRANCH   1   2
ATOM      2  C   UNL     1       9.795   4.702  23.874  0.00  0.00    -0.039 A 
ATOM      3  C   UNL     1       9.675   6.012  23.374  0.00  0.00    +0.006 A 
ATOM      4  C   UNL     1       8.447   6.676  23.394  0.00  0.00    +0.020 A 
ATOM      5  C   UNL     1       7.333   6.044  23.932  0.00  0.00    +0.041 A 
ATOM      6 CL   UNL     1       5.813   6.853  23.935  0.00  0.00    -0.084 Cl
ATOM      7  C   UNL     1       7.436   4.758  24.458  0.00  0.00    +0.020 A 
ATOM      8  C   UNL     1       8.663   4.088  24.430  0.00  0.00    +0.006 A 
ENDBRANCH   1   2
BRANCH   1   9
ATOM      9  C   UNL     1      10.855   2.467  23.444  0.00  0.00    -0.039 A 
ATOM     10  C   UNL     1      11.071   1.491  24.430  0.00  0.00    +0.005 A 
ATOM     11  C   UNL     1      10.618   0.180  24.252  0.00  0.00    +0.009 A 
ATOM     12  C   UNL     1       9.935  -0.187  23.087  0.00  0.00    -0.015 A 
ATOM     13  C   UNL     1       9.801   0.757  22.064  0.00  0.00    +0.009 A 
ATOM     14  C   UNL     1      10.259   2.067  22.238  0.00  0.00    +0.005 A 
BRANCH  12  15
ATOM     15  C   UNL     1       9.287  -1.484  22.999  0.00  0.00    +0.019 A 
ATOM     16  C   UNL     1       9.514  -2.666  23.745  0.00  0.00    +0.142 A 
ATOM     17  N   UNL     1       8.668  -3.649  23.428  0.00  0.00    -0.182 NA
ATOM     18  N   UNL     1       7.886  -3.098  22.488  0.00  0.00    -0.284 N 
ATOM     19  H   UNL     1       7.138  -3.659  22.097  0.00  0.00    +0.188 HD
ATOM     20  C   UNL     1       8.215  -1.804  22.194  0.00  0.00    +0.113 A 
ENDBRANCH  12  15
ENDBRANCH   1   9
BRANCH   1  21
ATOM     21  C   UNL     1      12.135   4.638  22.828  0.00  0.00    +0.090 C 
BRANCH  21  22
ATOM     22  N   UNL     1      13.429   4.966  23.443  0.00  0.00    -0.329 NA
ATOM     23  H   UNL     1      14.093   5.211  22.705  0.00  0.00    +0.118 HD
ATOM     24  H   UNL     1      13.336   5.800  24.019  0.00  0.00    +0.118 HD
ENDBRANCH  21  22
ENDBRANCH   1  21
TORSDOF 5
ENDMDL
MODEL 4
REMARK VINA RESULT:      -6.3      1.663      2.160
REMARK  Name = 
REMARK  5 active torsions:
REMARK  status: ('A' for Active; 'I' for Inactive)
REMARK    1  A    between atoms: C_2  and  C_3
REMARK    2  A    between atoms: C_2  and  C_5
REMARK    3  A    between atoms: C_2  and  C_12
REMARK    4  A    between atoms: C_3  and  N_4
REMARK    5  A    between atoms: C_15  and  C_18
REMARK                            x       y       z     vdW  Elec       q    Type
REMARK                         _______ _______ _______ _____ _____    ______ ____
ROOT
ATOM      1  C   UNL     1       6.812  -4.818  25.143  0.00  0.00    +0.062 C 
ENDROOT
BRANCH   1   2
ATOM      2  C   UNL     1       5.377  -4.985  24.623  0.00  0.00    -0.039 A 
ATOM      3  C   UNL     1       4.344  -4.133  25.057  0.00  0.00    +0.006 A 
ATOM      4  C   UNL     1       3.058  -4.241  24.526  0.00  0.00    +0.020 A 
ATOM      5  C   UNL     1       2.787  -5.213  23.572  0.00  0.00    +0.041 A 
ATOM      6 CL   UNL     1       1.207  -5.330  22.899  0.00  0.00    -0.084 Cl
ATOM      7  C   UNL     1       3.788  -6.084  23.149  0.00  0.00    +0.020 A 
ATOM      8  C   UNL     1       5.079  -5.972  23.672  0.00  0.00    +0.006 A 
ENDBRANCH   1   2
BRANCH   1   9
ATOM      9  C   UNL     1       7.438  -3.552  24.547  0.00  0.00    -0.039 A 
ATOM     10  C   UNL     1       7.893  -3.577  23.219  0.00  0.00    +0.005 A 
ATOM     11  C   UNL     1       8.247  -2.394  22.562  0.00  0.00    +0.009 A 
ATOM     12  C   UNL     1       8.152  -1.159  23.213  0.00  0.00    -0.015 A 
ATOM     13  C   UNL     1       7.789  -1.141  24.564  0.00  0.00    +0.009 A 
ATOM     14  C   UNL     1       7.440  -2.323  25.225  0.00  0.00    +0.005 A 
BRANCH  12  15
ATOM     15  C   UNL     1       8.318   0.075  22.465  0.00  0.00    +0.019 A 
ATOM     16  C   UNL     1       7.510   1.237  22.436  0.00  0.00    +0.142 A 
ATOM     17  N   UNL     1       8.023   2.207  21.676  0.00  0.00    -0.182 NA
ATOM     18  N   UNL     1       9.171   1.677  21.226  0.00  0.00    -0.284 N 
ATOM     19  H   UNL     1       9.760   2.246  20.629  0.00  0.00    +0.188 HD
ATOM     20  C   UNL     1       9.394   0.403  21.667  0.00  0.00    +0.113 A 
ENDBRANCH  12  15
ENDBRANCH   1   9
BRANCH   1  21
ATOM     21  C   UNL     1       6.885  -4.898  26.695  0.00  0.00    +0.090 C 
BRANCH  21  22
ATOM     22  N   UNL     1       7.981  -5.726  27.216  0.00  0.00    -0.329 NA
ATOM     23  H   UNL     1       7.708  -6.709  27.162  0.00  0.00    +0.118 HD
ATOM     24  H   UNL     1       8.799  -5.633  26.616  0.00  0.00    +0.118 HD
ENDBRANCH  21  22
ENDBRANCH   1  21
TORSDOF 5
ENDMDL
MODEL 5
REMARK VINA RESULT:      -6.2      3.317      7.320
REMARK  Name = 
REMARK  5 active torsions:
REMARK  status: ('A' for Active; 'I' for Inactive)
REMARK    1  A    between atoms: C_2  and  C_3
REMARK    2  A    between atoms: C_2  and  C_5
REMARK    3  A    between atoms: C_2  and  C_12
REMARK    4  A    between atoms: C_3  and  N_4
REMARK    5  A    between atoms: C_15  and  C_18
REMARK                            x       y       z     vdW  Elec       q    Type
REMARK                         _______ _______ _______ _____ _____    ______ ____
ROOT
ATOM      1  C   UNL     1       9.627   1.076  23.735  0.00  0.00    +0.062 C 
ENDROOT
BRANCH   1   2
ATOM      2  C   UNL     1       8.385   1.933  24.018  0.00  0.00    -0.039 A 
ATOM      3  C   UNL     1       8.458   3.065  24.851  0.00  0.00    +0.006 A 
ATOM      4  C   UNL     1       7.344   3.883  25.046  0.00  0.00    +0.020 A 
ATOM      5  C   UNL     1       6.141   3.566  24.428  0.00  0.00    +0.041 A 
ATOM      6 CL   UNL     1       4.774   4.588  24.648  0.00  0.00    -0.084 Cl
ATOM      7  C   UNL     1       6.039   2.434  23.622  0.00  0.00    +0.020 A 
ATOM      8  C   UNL     1       7.157   1.619  23.417  0.00  0.00    +0.006 A 
ENDBRANCH   1   2
BRANCH   1   9
ATOM      9  C   UNL     1       9.474  -0.298  24.396  0.00  0.00    -0.039 A 
ATOM     10  C   UNL     1       8.958  -0.374  25.699  0.00  0.00    +0.005 A 
ATOM     11  C   UNL     1       8.578  -1.603  26.248  0.00  0.00    +0.009 A 
ATOM     12  C   UNL     1       8.700  -2.784  25.508  0.00  0.00    -0.015 A 
ATOM     13  C   UNL     1       9.300  -2.724  24.246  0.00  0.00    +0.009 A 
ATOM     14  C   UNL     1       9.686  -1.497  23.697  0.00  0.00    +0.005 A 
BRANCH  12  15
ATOM     15  C   UNL     1       8.113  -4.019  26.000  0.00  0.00    +0.019 A 
ATOM     16  C   UNL     1       6.835  -4.577  25.759  0.00  0.00    +0.142 A 
ATOM     17  N   UNL     1       6.675  -5.772  26.332  0.00  0.00    -0.182 NA
ATOM     18  N   UNL     1       7.856  -5.992  26.931  0.00  0.00    -0.284 N 
ATOM     19  H   UNL     1       7.985  -6.866  27.428  0.00  0.00    +0.188 HD
ATOM     20  C   UNL     1       8.750  -4.973  26.764  0.00  0.00    +0.113 A 
ENDBRANCH  12  15
ENDBRANCH   1   9
BRANCH   1  21
ATOM     21  C   UNL     1       9.967   1.023  22.218  0.00  0.00    +0.090 C 
BRANCH  21  22
ATOM     22  N   UNL     1      10.255   2.328  21.607  0.00  0.00    -0.329 NA
ATOM     23  H   UNL     1       9.416   2.662  21.128  0.00  0.00    +0.118 HD
ATOM     24  H   UNL     1      10.450   3.014  22.334  0.00  0.00    +0.118 HD
ENDBRANCH  21  22
ENDBRANCH   1  21
TORSDOF 5
ENDMDL
MODEL 6
REMARK VINA RESULT:      -6.2      3.302      7.356
REMARK  Name = 
REMARK  5 active torsions:
REMARK  status: ('A' for Active; 'I' for Inactive)
REMARK    1  A    between atoms: C_2  and  C_3
REMARK    2  A    between atoms: C_2  and  C_5
REMARK    3  A    between atoms: C_2  and  C_12
REMARK    4  A    between atoms: C_3  and  N_4
REMARK    5  A    between atoms: C_15  and  C_18
REMARK                            x       y       z     vdW  Elec       q    Type
REMARK                         _______ _______ _______ _____ _____    ______ ____
ROOT
ATOM      1  C   UNL     1       9.835   2.569  24.126  0.00  0.00    +0.062 C 
ENDROOT
BRANCH   1   2
ATOM      2  C   UNL     1       8.414   3.016  23.756  0.00  0.00    -0.039 A 
ATOM      3  C   UNL     1       7.575   3.629  24.705  0.00  0.00    +0.006 A 
ATOM      4  C   UNL     1       6.312   4.101  24.345  0.00  0.00    +0.020 A 
ATOM      5  C   UNL     1       5.866   3.944  23.038  0.00  0.00    +0.041 A 
ATOM      6 CL   UNL     1       4.318   4.548  22.589  0.00  0.00    -0.084 Cl
ATOM      7  C   UNL     1       6.669   3.315  22.090  0.00  0.00    +0.020 A 
ATOM      8  C   UNL     1       7.939   2.851  22.446  0.00  0.00    +0.006 A 
ENDBRANCH   1   2
BRANCH   1   9
ATOM      9  C   UNL     1       9.895   1.040  24.216  0.00  0.00    -0.039 A 
ATOM     10  C   UNL     1       9.311   0.399  25.320  0.00  0.00    +0.005 A 
ATOM     11  C   UNL     1       9.129  -0.988  25.329  0.00  0.00    +0.009 A 
ATOM     12  C   UNL     1       9.521  -1.766  24.234  0.00  0.00    -0.015 A 
ATOM     13  C   UNL     1      10.188  -1.143  23.174  0.00  0.00    +0.009 A 
ATOM     14  C   UNL     1      10.376   0.243  23.166  0.00  0.00    +0.005 A 
BRANCH  12  15
ATOM     15  C   UNL     1       9.141  -3.166  24.161  0.00  0.00    +0.019 A 
ATOM     16  C   UNL     1       9.661  -4.287  24.852  0.00  0.00    +0.142 A 
ATOM     17  N   UNL     1       9.006  -5.416  24.575  0.00  0.00    -0.182 NA
ATOM     18  N   UNL     1       8.053  -5.023  23.716  0.00  0.00    -0.284 N 
ATOM     19  H   UNL     1       7.403  -5.719  23.370  0.00  0.00    +0.188 HD
ATOM     20  C   UNL     1       8.091  -3.686  23.435  0.00  0.00    +0.113 A 
ENDBRANCH  12  15
ENDBRANCH   1   9
BRANCH   1  21
ATOM     21  C   UNL     1      10.908   3.197  23.191  0.00  0.00    +0.090 C 
BRANCH  21  22
ATOM     22  N   UNL     1      11.065   4.652  23.327  0.00  0.00    -0.329 NA
ATOM     23  H   UNL     1      10.141   5.076  23.434  0.00  0.00    +0.118 HD
ATOM     24  H   UNL     1      11.569   4.866  24.185  0.00  0.00    +0.118 HD
ENDBRANCH  21  22
ENDBRANCH   1  21
TORSDOF 5
ENDMDL
MODEL 7
REMARK VINA RESULT:      -6.2      4.505      8.195
REMARK  Name = 
REMARK  5 active torsions:
REMARK  status: ('A' for Active; 'I' for Inactive)
REMARK    1  A    between atoms: C_2  and  C_3
REMARK    2  A    between atoms: C_2  and  C_5
REMARK    3  A    between atoms: C_2  and  C_12
REMARK    4  A    between atoms: C_3  and  N_4
REMARK    5  A    between atoms: C_15  and  C_18
REMARK                            x       y       z     vdW  Elec       q    Type
REMARK                         _______ _______ _______ _____ _____    ______ ____
ROOT
ATOM      1  C   UNL     1       7.711   1.613  23.598  0.00  0.00    +0.062 C 
ENDROOT
BRANCH   1   2
ATOM      2  C   UNL     1       8.884   2.600  23.673  0.00  0.00    -0.039 A 
ATOM      3  C   UNL     1      10.179   2.222  23.272  0.00  0.00    +0.006 A 
ATOM      4  C   UNL     1      11.226   3.144  23.272  0.00  0.00    +0.020 A 
ATOM      5  C   UNL     1      10.995   4.448  23.693  0.00  0.00    +0.041 A 
ATOM      6 CL   UNL     1      12.282   5.591  23.670  0.00  0.00    -0.084 Cl
ATOM      7  C   UNL     1       9.728   4.836  24.121  0.00  0.00    +0.020 A 
ATOM      8  C   UNL     1       8.675   3.917  24.112  0.00  0.00    +0.006 A 
ENDBRANCH   1   2
BRANCH   1   9
ATOM      9  C   UNL     1       8.141   0.250  24.150  0.00  0.00    -0.039 A 
ATOM     10  C   UNL     1       8.326   0.102  25.534  0.00  0.00    +0.005 A 
ATOM     11  C   UNL     1       8.481  -1.166  26.104  0.00  0.00    +0.009 A 
ATOM     12  C   UNL     1       8.452  -2.316  25.306  0.00  0.00    -0.015 A 
ATOM     13  C   UNL     1       8.362  -2.166  23.919  0.00  0.00    +0.009 A 
ATOM     14  C   UNL     1       8.212  -0.899  23.346  0.00  0.00    +0.005 A 
BRANCH  12  15
ATOM     15  C   UNL     1       8.403  -3.630  25.923  0.00  0.00    +0.019 A 
ATOM     16  C   UNL     1       7.513  -4.146  26.895  0.00  0.00    +0.142 A 
ATOM     17  N   UNL     1       7.736  -5.432  27.172  0.00  0.00    -0.182 NA
ATOM     18  N   UNL     1       8.761  -5.752  26.368  0.00  0.00    -0.284 N 
ATOM     19  H   UNL     1       9.106  -6.705  26.386  0.00  0.00    +0.188 HD
ATOM     20  C   UNL     1       9.199  -4.709  25.601  0.00  0.00    +0.113 A 
ENDBRANCH  12  15
ENDBRANCH   1   9
BRANCH   1  21
ATOM     21  C   UNL     1       6.420   2.189  24.248  0.00  0.00    +0.090 C 
BRANCH  21  22
ATOM     22  N   UNL     1       5.218   1.365  24.057  0.00  0.00    -0.329 NA
ATOM     23  H   UNL     1       4.407   1.980  23.963  0.00  0.00    +0.118 HD
ATOM     24  H   UNL     1       5.283   0.857  23.177  0.00  0.00    +0.118 HD
ENDBRANCH  21  22
ENDBRANCH   1  21
TORSDOF 5
ENDMDL
MODEL 8
REMARK VINA RESULT:      -6.2      3.698      7.970
REMARK  Name = 
REMARK  5 active torsions:
REMARK  status: ('A' for Active; 'I' for Inactive)
REMARK    1  A    between atoms: C_2  and  C_3
REMARK    2  A    between atoms: C_2  and  C_5
REMARK    3  A    between atoms: C_2  and  C_12
REMARK    4  A    between atoms: C_3  and  N_4
REMARK    5  A    between atoms: C_15  and  C_18
REMARK                            x       y       z     vdW  Elec       q    Type
REMARK                         _______ _______ _______ _____ _____    ______ ____
ROOT
ATOM      1  C   UNL     1       9.868   0.684  23.214  0.00  0.00    +0.062 C 
ENDROOT
BRANCH   1   2
ATOM      2  C   UNL     1       9.489   2.082  23.724  0.00  0.00    -0.039 A 
ATOM      3  C   UNL     1       8.343   2.279  24.517  0.00  0.00    +0.006 A 
ATOM      4  C   UNL     1       8.042   3.538  25.039  0.00  0.00    +0.020 A 
ATOM      5  C   UNL     1       8.872   4.616  24.757  0.00  0.00    +0.041 A 
ATOM      6 CL   UNL     1       8.515   6.163  25.422  0.00  0.00    -0.084 Cl
ATOM      7  C   UNL     1       9.996   4.448  23.952  0.00  0.00    +0.020 A 
ATOM      8  C   UNL     1      10.305   3.186  23.436  0.00  0.00    +0.006 A 
ENDBRANCH   1   2
BRANCH   1   9
ATOM      9  C   UNL     1       9.119  -0.384  24.018  0.00  0.00    -0.039 A 
ATOM     10  C   UNL     1       8.278  -1.282  23.342  0.00  0.00    +0.005 A 
ATOM     11  C   UNL     1       7.768  -2.412  23.989  0.00  0.00    +0.009 A 
ATOM     12  C   UNL     1       8.088  -2.674  25.326  0.00  0.00    -0.015 A 
ATOM     13  C   UNL     1       8.848  -1.734  26.029  0.00  0.00    +0.009 A 
ATOM     14  C   UNL     1       9.355  -0.601  25.385  0.00  0.00    +0.005 A 
BRANCH  12  15
ATOM     15  C   UNL     1       7.730  -3.948  25.926  0.00  0.00    +0.019 A 
ATOM     16  C   UNL     1       6.545  -4.712  25.798  0.00  0.00    +0.142 A 
ATOM     17  N   UNL     1       6.606  -5.875  26.449  0.00  0.00    -0.182 NA
ATOM     18  N   UNL     1       7.836  -5.870  26.985  0.00  0.00    -0.284 N 
ATOM     19  H   UNL     1       8.128  -6.678  27.523  0.00  0.00    +0.188 HD
ATOM     20  C   UNL     1       8.549  -4.739  26.703  0.00  0.00    +0.113 A 
ENDBRANCH  12  15
ENDBRANCH   1   9
BRANCH   1  21
ATOM     21  C   UNL     1       9.702   0.559  21.673  0.00  0.00    +0.090 C 
BRANCH  21  22
ATOM     22  N   UNL     1       8.693   1.454  21.089  0.00  0.00    -0.329 NA
ATOM     23  H   UNL     1       7.839   0.921  20.915  0.00  0.00    +0.118 HD
ATOM     24  H   UNL     1       8.438   2.173  21.764  0.00  0.00    +0.118 HD
ENDBRANCH  21  22
ENDBRANCH   1  21
TORSDOF 5
ENDMDL
MODEL 9
REMARK VINA RESULT:      -6.2      4.223      7.608
REMARK  Name = 
REMARK  5 active torsions:
REMARK  status: ('A' for Active; 'I' for Inactive)
REMARK    1  A    between atoms: C_2  and  C_3
REMARK    2  A    between atoms: C_2  and  C_5
REMARK    3  A    between atoms: C_2  and  C_12
REMARK    4  A    between atoms: C_3  and  N_4
REMARK    5  A    between atoms: C_15  and  C_18
REMARK                            x       y       z     vdW  Elec       q    Type
REMARK                         _______ _______ _______ _____ _____    ______ ____
ROOT
ATOM      1  C   UNL     1       7.377  -3.317  22.651  0.00  0.00    +0.062 C 
ENDROOT
BRANCH   1   2
ATOM      2  C   UNL     1       8.144  -1.990  22.733  0.00  0.00    -0.039 A 
ATOM      3  C   UNL     1       9.113  -1.650  21.771  0.00  0.00    +0.006 A 
ATOM      4  C   UNL     1       9.754  -0.412  21.807  0.00  0.00    +0.020 A 
ATOM      5  C   UNL     1       9.449   0.492  22.817  0.00  0.00    +0.041 A 
ATOM      6 CL   UNL     1      10.222   2.030  22.848  0.00  0.00    -0.084 Cl
ATOM      7  C   UNL     1       8.513   0.166  23.796  0.00  0.00    +0.020 A 
ATOM      8  C   UNL     1       7.862  -1.071  23.756  0.00  0.00    +0.006 A 
ENDBRANCH   1   2
BRANCH   1   9
ATOM      9  C   UNL     1       7.081  -3.836  24.063  0.00  0.00    -0.039 A 
ATOM     10  C   UNL     1       5.788  -3.687  24.587  0.00  0.00    +0.005 A 
ATOM     11  C   UNL     1       5.409  -4.350  25.759  0.00  0.00    +0.009 A 
ATOM     12  C   UNL     1       6.313  -5.180  26.433  0.00  0.00    -0.015 A 
ATOM     13  C   UNL     1       7.628  -5.256  25.966  0.00  0.00    +0.009 A 
ATOM     14  C   UNL     1       8.010  -4.590  24.797  0.00  0.00    +0.005 A 
BRANCH  12  15
ATOM     15  C   UNL     1       5.854  -6.025  27.523  0.00  0.00    +0.019 A 
ATOM     16  C   UNL     1       6.326  -6.129  28.853  0.00  0.00    +0.142 A 
ATOM     17  N   UNL     1       5.604  -6.971  29.595  0.00  0.00    -0.182 NA
ATOM     18  N   UNL     1       4.655  -7.399  28.748  0.00  0.00    -0.284 N 
ATOM     19  H   UNL     1       3.960  -8.049  29.096  0.00  0.00    +0.188 HD
ATOM     20  C   UNL     1       4.761  -6.864  27.495  0.00  0.00    +0.113 A 
ENDBRANCH  12  15
ENDBRANCH   1   9
BRANCH   1  21
ATOM     21  C   UNL     1       6.125  -3.213  21.733  0.00  0.00    +0.090 C 
BRANCH  21  22
ATOM     22  N   UNL     1       5.798  -4.444  21.000  0.00  0.00    -0.329 NA
ATOM     23  H   UNL     1       5.753  -5.221  21.663  0.00  0.00    +0.118 HD
ATOM     24  H   UNL     1       4.866  -4.369  20.598  0.00  0.00    +0.118 HD
ENDBRANCH  21  22
ENDBRANCH   1  21
TORSDOF 5
ENDMDL
