MODEL 1
REMARK VINA RESULT:      -5.4      0.000      0.000
REMARK  Name = 
REMARK  3 active torsions:
REMARK  status: ('A' for Active; 'I' for Inactive)
REMARK    1  A    between atoms: N_4  and  N_5
REMARK    2  A    between atoms: C_6  and  C_7
REMARK    3  A    between atoms: C_10  and  N_12
REMARK                            x       y       z     vdW  Elec       q    Type
REMARK                         _______ _______ _______ _____ _____    ______ ____
ROOT
ATOM      1  N   UNL     1       9.501  -0.943  22.676  0.00  0.00    -0.183 NA
ATOM      2  C   UNL     1       9.336  -1.726  23.693  0.00  0.00    +0.176 C 
ENDROOT
BRANCH   1   7
ATOM      3  N   UNL     1       9.030   1.186  21.190  0.00  0.00    -0.312 N 
ATOM      4  H   UNL     1       8.539   0.304  21.165  0.00  0.00    +0.147 HD
ATOM      5  H   UNL     1       8.760   1.965  20.611  0.00  0.00    +0.147 HD
ATOM      6  C   UNL     1       9.964   1.344  22.162  0.00  0.00    +0.317 C 
ATOM      7  N   UNL     1      10.183   0.218  22.917  0.00  0.00    -0.191 N 
ATOM      8  H   UNL     1      10.881   0.288  23.650  0.00  0.00    +0.179 HD
ATOM      9  O   UNL     1      10.559   2.399  22.345  0.00  0.00    -0.251 OA
ENDBRANCH   1   7
BRANCH   2  10
ATOM     10  C   UNL     1       8.643  -2.970  23.509  0.00  0.00    +0.154 A 
ATOM     11  O   UNL     1       7.809  -3.111  22.433  0.00  0.00    -0.399 OA
ATOM     12  C   UNL     1       7.295  -4.370  22.517  0.00  0.00    +0.438 A 
ATOM     13  C   UNL     1       7.773  -5.044  23.615  0.00  0.00    +0.132 A 
ATOM     14  C   UNL     1       8.649  -4.136  24.256  0.00  0.00    +0.058 A 
BRANCH  12  15
ATOM     15  N   UNL     1       6.382  -4.765  21.490  0.00  0.00    +0.119 N 
ATOM     16  O   UNL     1       5.639  -3.898  21.015  0.00  0.00    +0.045 OA
ATOM     17  O   UNL     1       6.414  -5.958  21.159  0.00  0.00    -0.573 OA
ENDBRANCH  12  15
ENDBRANCH   2  10
TORSDOF 3
ENDMDL
MODEL 2
REMARK VINA RESULT:      -5.3      3.064      4.646
REMARK  Name = 
REMARK  3 active torsions:
REMARK  status: ('A' for Active; 'I' for Inactive)
REMARK    1  A    between atoms: N_4  and  N_5
REMARK    2  A    between atoms: C_6  and  C_7
REMARK    3  A    between atoms: C_10  and  N_12
REMARK                            x       y       z     vdW  Elec       q    Type
REMARK                         _______ _______ _______ _____ _____    ______ ____
ROOT
ATOM      1  N   UNL     1      10.794   3.341  23.136  0.00  0.00    -0.183 NA
ATOM      2  C   UNL     1      10.500   2.247  23.761  0.00  0.00    +0.176 C 
ENDROOT
BRANCH   1   7
ATOM      3  N   UNL     1      12.419   5.161  22.132  0.00  0.00    -0.312 N 
ATOM      4  H   UNL     1      11.981   4.397  21.639  0.00  0.00    +0.147 HD
ATOM      5  H   UNL     1      13.000   5.837  21.662  0.00  0.00    +0.147 HD
ATOM      6  C   UNL     1      12.058   5.349  23.427  0.00  0.00    +0.317 C 
ATOM      7  N   UNL     1      11.210   4.385  23.916  0.00  0.00    -0.191 N 
ATOM      8  H   UNL     1      10.921   4.479  24.884  0.00  0.00    +0.179 HD
ATOM      9  O   UNL     1      12.455   6.293  24.097  0.00  0.00    -0.251 OA
ENDBRANCH   1   7
BRANCH   2  10
ATOM     10  C   UNL     1      10.070   1.106  23.003  0.00  0.00    +0.154 A 
ATOM     11  O   UNL     1       9.967  -0.106  23.631  0.00  0.00    -0.399 OA
ATOM     12  C   UNL     1       9.550  -0.990  22.681  0.00  0.00    +0.438 A 
ATOM     13  C   UNL     1       9.381  -0.383  21.460  0.00  0.00    +0.132 A 
ATOM     14  C   UNL     1       9.717   0.977  21.670  0.00  0.00    +0.058 A 
BRANCH  12  15
ATOM     15  N   UNL     1       9.363  -2.344  23.096  0.00  0.00    +0.119 N 
ATOM     16  O   UNL     1       8.309  -2.906  22.776  0.00  0.00    +0.045 OA
ATOM     17  O   UNL     1      10.287  -2.848  23.750  0.00  0.00    -0.573 OA
ENDBRANCH  12  15
ENDBRANCH   2  10
TORSDOF 3
ENDMDL
MODEL 3
REMARK VINA RESULT:      -5.3      4.599      6.631
REMARK  Name = 
REMARK  3 active torsions:
REMARK  status: ('A' for Active; 'I' for Inactive)
REMARK    1  A    between atoms: N_4  and  N_5
REMARK    2  A    between atoms: C_6  and  C_7
REMARK    3  A    between atoms: C_10  and  N_12
REMARK                            x       y       z     vdW  Elec       q    Type
REMARK                         _______ _______ _______ _____ _____    ______ ____
ROOT
ATOM      1  N   UNL     1       6.932  -6.027  26.854  0.00  0.00    -0.183 NA
ATOM      2  C   UNL     1       7.626  -5.094  26.286  0.00  0.00    +0.176 C 
ENDROOT
BRANCH   1   7
ATOM      3  N   UNL     1       5.174  -7.381  28.281  0.00  0.00    -0.312 N 
ATOM      4  H   UNL     1       5.184  -7.264  27.279  0.00  0.00    +0.147 HD
ATOM      5  H   UNL     1       4.484  -7.950  28.746  0.00  0.00    +0.147 HD
ATOM      6  C   UNL     1       6.231  -6.885  28.971  0.00  0.00    +0.317 C 
ATOM      7  N   UNL     1       7.127  -6.187  28.198  0.00  0.00    -0.191 N 
ATOM      8  H   UNL     1       7.929  -5.789  28.674  0.00  0.00    +0.179 HD
ATOM      9  O   UNL     1       6.371  -7.044  30.177  0.00  0.00    -0.251 OA
ENDBRANCH   1   7
BRANCH   2  10
ATOM     10  C   UNL     1       7.459  -4.859  24.880  0.00  0.00    +0.154 A 
ATOM     11  O   UNL     1       6.386  -5.415  24.237  0.00  0.00    -0.399 OA
ATOM     12  C   UNL     1       6.486  -5.032  22.933  0.00  0.00    +0.438 A 
ATOM     13  C   UNL     1       7.592  -4.247  22.717  0.00  0.00    +0.132 A 
ATOM     14  C   UNL     1       8.221  -4.133  23.980  0.00  0.00    +0.058 A 
BRANCH  12  15
ATOM     15  N   UNL     1       5.466  -5.493  22.045  0.00  0.00    +0.119 N 
ATOM     16  O   UNL     1       5.787  -5.740  20.877  0.00  0.00    +0.045 OA
ATOM     17  O   UNL     1       4.331  -5.606  22.528  0.00  0.00    -0.573 OA
ENDBRANCH  12  15
ENDBRANCH   2  10
TORSDOF 3
ENDMDL
MODEL 4
REMARK VINA RESULT:      -5.2      2.244      2.667
REMARK  Name = 
REMARK  3 active torsions:
REMARK  status: ('A' for Active; 'I' for Inactive)
REMARK    1  A    between atoms: N_4  and  N_5
REMARK    2  A    between atoms: C_6  and  C_7
REMARK    3  A    between atoms: C_10  and  N_12
REMARK                            x       y       z     vdW  Elec       q    Type
REMARK                         _______ _______ _______ _____ _____    ______ ____
ROOT
ATOM      1  N   UNL     1       9.480   0.607  23.717  0.00  0.00    -0.183 NA
ATOM      2  C   UNL     1      10.013  -0.560  23.886  0.00  0.00    +0.176 C 
ENDROOT
BRANCH   1   7
ATOM      3  N   UNL     1      10.156   2.355  21.860  0.00  0.00    -0.312 N 
ATOM      4  H   UNL     1       9.522   1.576  21.762  0.00  0.00    +0.147 HD
ATOM      5  H   UNL     1      10.331   3.001  21.106  0.00  0.00    +0.147 HD
ATOM      6  C   UNL     1      10.637   2.606  23.104  0.00  0.00    +0.317 C 
ATOM      7  N   UNL     1      10.265   1.678  24.045  0.00  0.00    -0.191 N 
ATOM      8  H   UNL     1      10.610   1.820  24.989  0.00  0.00    +0.179 HD
ATOM      9  O   UNL     1      11.342   3.574  23.360  0.00  0.00    -0.251 OA
ENDBRANCH   1   7
BRANCH   2  10
ATOM     10  C   UNL     1       9.252  -1.729  23.546  0.00  0.00    +0.154 A 
ATOM     11  O   UNL     1       9.310  -2.821  24.370  0.00  0.00    -0.399 OA
ATOM     12  C   UNL     1       8.505  -3.764  23.805  0.00  0.00    +0.438 A 
ATOM     13  C   UNL     1       7.930  -3.312  22.642  0.00  0.00    +0.132 A 
ATOM     14  C   UNL     1       8.413  -1.992  22.476  0.00  0.00    +0.058 A 
BRANCH  12  15
ATOM     15  N   UNL     1       8.397  -5.014  24.489  0.00  0.00    +0.119 N 
ATOM     16  O   UNL     1       9.444  -5.609  24.772  0.00  0.00    +0.045 OA
ATOM     17  O   UNL     1       7.248  -5.400  24.744  0.00  0.00    -0.573 OA
ENDBRANCH  12  15
ENDBRANCH   2  10
TORSDOF 3
ENDMDL
MODEL 5
REMARK VINA RESULT:      -5.2      2.339      2.973
REMARK  Name = 
REMARK  3 active torsions:
REMARK  status: ('A' for Active; 'I' for Inactive)
REMARK    1  A    between atoms: N_4  and  N_5
REMARK    2  A    between atoms: C_6  and  C_7
REMARK    3  A    between atoms: C_10  and  N_12
REMARK                            x       y       z     vdW  Elec       q    Type
REMARK                         _______ _______ _______ _____ _____    ______ ____
ROOT
ATOM      1  N   UNL     1       9.483  -1.441  22.212  0.00  0.00    -0.183 NA
ATOM      2  C   UNL     1       8.292  -1.945  22.172  0.00  0.00    +0.176 C 
ENDROOT
BRANCH   1   7
ATOM      3  N   UNL     1      10.352   0.609  23.628  0.00  0.00    -0.312 N 
ATOM      4  H   UNL     1      10.274  -0.351  23.930  0.00  0.00    +0.147 HD
ATOM      5  H   UNL     1      10.732   1.327  24.224  0.00  0.00    +0.147 HD
ATOM      6  C   UNL     1      10.087   0.869  22.323  0.00  0.00    +0.317 C 
ATOM      7  N   UNL     1       9.638  -0.220  21.616  0.00  0.00    -0.191 N 
ATOM      8  H   UNL     1       9.417  -0.070  20.637  0.00  0.00    +0.179 HD
ATOM      9  O   UNL     1      10.233   1.977  21.824  0.00  0.00    -0.251 OA
ENDBRANCH   1   7
BRANCH   2  10
ATOM     10  C   UNL     1       8.052  -3.217  22.793  0.00  0.00    +0.154 A 
ATOM     11  O   UNL     1       8.676  -3.505  23.977  0.00  0.00    -0.399 OA
ATOM     12  C   UNL     1       8.272  -4.760  24.322  0.00  0.00    +0.438 A 
ATOM     13  C   UNL     1       7.407  -5.289  23.395  0.00  0.00    +0.132 A 
ATOM     14  C   UNL     1       7.263  -4.287  22.405  0.00  0.00    +0.058 A 
BRANCH  12  15
ATOM     15  N   UNL     1       8.793  -5.294  25.541  0.00  0.00    +0.119 N 
ATOM     16  O   UNL     1      10.013  -5.224  25.726  0.00  0.00    +0.045 OA
ATOM     17  O   UNL     1       7.966  -5.788  26.319  0.00  0.00    -0.573 OA
ENDBRANCH  12  15
ENDBRANCH   2  10
TORSDOF 3
ENDMDL
MODEL 6
REMARK VINA RESULT:      -5.1      3.169      6.261
REMARK  Name = 
REMARK  3 active torsions:
REMARK  status: ('A' for Active; 'I' for Inactive)
REMARK    1  A    between atoms: N_4  and  N_5
REMARK    2  A    between atoms: C_6  and  C_7
REMARK    3  A    between atoms: C_10  and  N_12
REMARK                            x       y       z     vdW  Elec       q    Type
REMARK                         _______ _______ _______ _____ _____    ______ ____
ROOT
ATOM      1  N   UNL     1       8.419  -2.970  25.556  0.00  0.00    -0.183 NA
ATOM      2  C   UNL     1       7.813  -2.611  24.471  0.00  0.00    +0.176 C 
ENDROOT
BRANCH   1   7
ATOM      3  N   UNL     1       9.375  -5.317  26.293  0.00  0.00    -0.312 N 
ATOM      4  H   UNL     1       9.842  -4.616  25.736  0.00  0.00    +0.147 HD
ATOM      5  H   UNL     1       9.828  -6.175  26.562  0.00  0.00    +0.147 HD
ATOM      6  C   UNL     1       8.167  -4.985  26.815  0.00  0.00    +0.317 C 
ATOM      7  N   UNL     1       7.701  -3.757  26.413  0.00  0.00    -0.191 N 
ATOM      8  H   UNL     1       6.796  -3.472  26.771  0.00  0.00    +0.179 HD
ATOM      9  O   UNL     1       7.549  -5.719  27.576  0.00  0.00    -0.251 OA
ENDBRANCH   1   7
BRANCH   2  10
ATOM     10  C   UNL     1       8.513  -1.796  23.518  0.00  0.00    +0.154 A 
ATOM     11  O   UNL     1       9.060  -0.612  23.934  0.00  0.00    -0.399 OA
ATOM     12  C   UNL     1       9.648  -0.061  22.835  0.00  0.00    +0.438 A 
ATOM     13  C   UNL     1       9.496  -0.855  21.724  0.00  0.00    +0.132 A 
ATOM     14  C   UNL     1       8.762  -1.981  22.169  0.00  0.00    +0.058 A 
BRANCH  12  15
ATOM     15  N   UNL     1      10.299   1.199  23.014  0.00  0.00    +0.119 N 
ATOM     16  O   UNL     1      10.267   2.002  22.074  0.00  0.00    +0.045 OA
ATOM     17  O   UNL     1      10.846   1.380  24.109  0.00  0.00    -0.573 OA
ENDBRANCH  12  15
ENDBRANCH   2  10
TORSDOF 3
ENDMDL
MODEL 7
REMARK VINA RESULT:      -5.0      3.393      4.569
REMARK  Name = 
REMARK  3 active torsions:
REMARK  status: ('A' for Active; 'I' for Inactive)
REMARK    1  A    between atoms: N_4  and  N_5
REMARK    2  A    between atoms: C_6  and  C_7
REMARK    3  A    between atoms: C_10  and  N_12
REMARK                            x       y       z     vdW  Elec       q    Type
REMARK                         _______ _______ _______ _____ _____    ______ ____
ROOT
ATOM      1  N   UNL     1       8.301   2.749  22.347  0.00  0.00    -0.183 NA
ATOM      2  C   UNL     1       9.414   2.130  22.573  0.00  0.00    +0.176 C 
ENDROOT
BRANCH   1   7
ATOM      3  N   UNL     1       6.118   4.161  21.898  0.00  0.00    -0.312 N 
ATOM      4  H   UNL     1       6.194   3.156  21.949  0.00  0.00    +0.147 HD
ATOM      5  H   UNL     1       5.233   4.624  21.759  0.00  0.00    +0.147 HD
ATOM      6  C   UNL     1       7.229   4.880  22.197  0.00  0.00    +0.317 C 
ATOM      7  N   UNL     1       8.346   4.114  22.427  0.00  0.00    -0.191 N 
ATOM      8  H   UNL     1       9.203   4.610  22.645  0.00  0.00    +0.179 HD
ATOM      9  O   UNL     1       7.233   6.103  22.255  0.00  0.00    -0.251 OA
ENDBRANCH   1   7
BRANCH   2  10
ATOM     10  C   UNL     1       9.444   0.697  22.490  0.00  0.00    +0.154 A 
ATOM     11  O   UNL     1       9.456  -0.034  23.647  0.00  0.00    -0.399 OA
ATOM     12  C   UNL     1       9.489  -1.342  23.267  0.00  0.00    +0.438 A 
ATOM     13  C   UNL     1       9.498  -1.475  21.900  0.00  0.00    +0.132 A 
ATOM     14  C   UNL     1       9.467  -0.153  21.396  0.00  0.00    +0.058 A 
BRANCH  12  15
ATOM     15  N   UNL     1       9.506  -2.318  24.312  0.00  0.00    +0.119 N 
ATOM     16  O   UNL     1      10.095  -3.383  24.096  0.00  0.00    +0.045 OA
ATOM     17  O   UNL     1       8.921  -2.008  25.359  0.00  0.00    -0.573 OA
ENDBRANCH  12  15
ENDBRANCH   2  10
TORSDOF 3
ENDMDL
MODEL 8
REMARK VINA RESULT:      -5.0      4.387      6.856
REMARK  Name = 
REMARK  3 active torsions:
REMARK  status: ('A' for Active; 'I' for Inactive)
REMARK    1  A    between atoms: N_4  and  N_5
REMARK    2  A    between atoms: C_6  and  C_7
REMARK    3  A    between atoms: C_10  and  N_12
REMARK                            x       y       z     vdW  Elec       q    Type
REMARK                         _______ _______ _______ _____ _____    ______ ____
ROOT
ATOM      1  N   UNL     1       7.507  -4.696  27.145  0.00  0.00    -0.183 NA
ATOM      2  C   UNL     1       8.577  -4.444  26.462  0.00  0.00    +0.176 C 
ENDROOT
BRANCH   1   7
ATOM      3  N   UNL     1       5.665  -5.235  28.955  0.00  0.00    -0.312 N 
ATOM      4  H   UNL     1       5.789  -4.369  28.451  0.00  0.00    +0.147 HD
ATOM      5  H   UNL     1       4.908  -5.371  29.606  0.00  0.00    +0.147 HD
ATOM      6  C   UNL     1       6.456  -6.277  28.596  0.00  0.00    +0.317 C 
ATOM      7  N   UNL     1       7.402  -5.962  27.651  0.00  0.00    -0.191 N 
ATOM      8  H   UNL     1       8.023  -6.709  27.359  0.00  0.00    +0.179 HD
ATOM      9  O   UNL     1       6.336  -7.397  29.075  0.00  0.00    -0.251 OA
ENDBRANCH   1   7
BRANCH   2  10
ATOM     10  C   UNL     1       8.761  -3.130  25.914  0.00  0.00    +0.154 A 
ATOM     11  O   UNL     1       9.269  -3.004  24.649  0.00  0.00    -0.399 OA
ATOM     12  C   UNL     1       9.336  -1.666  24.400  0.00  0.00    +0.438 A 
ATOM     13  C   UNL     1       8.886  -0.927  25.467  0.00  0.00    +0.132 A 
ATOM     14  C   UNL     1       8.511  -1.877  26.447  0.00  0.00    +0.058 A 
BRANCH  12  15
ATOM     15  N   UNL     1       9.841  -1.271  23.123  0.00  0.00    +0.119 N 
ATOM     16  O   UNL     1       9.424  -0.212  22.640  0.00  0.00    +0.045 OA
ATOM     17  O   UNL     1      10.666  -2.034  22.601  0.00  0.00    -0.573 OA
ENDBRANCH  12  15
ENDBRANCH   2  10
TORSDOF 3
ENDMDL
MODEL 9
REMARK VINA RESULT:      -4.9      3.198      5.001
REMARK  Name = 
REMARK  3 active torsions:
REMARK  status: ('A' for Active; 'I' for Inactive)
REMARK    1  A    between atoms: N_4  and  N_5
REMARK    2  A    between atoms: C_6  and  C_7
REMARK    3  A    between atoms: C_10  and  N_12
REMARK                            x       y       z     vdW  Elec       q    Type
REMARK                         _______ _______ _______ _____ _____    ______ ____
ROOT
ATOM      1  N   UNL     1       8.046   3.611  22.591  0.00  0.00    -0.183 NA
ATOM      2  C   UNL     1       8.234   2.516  21.929  0.00  0.00    +0.176 C 
ENDROOT
BRANCH   1   7
ATOM      3  N   UNL     1       8.715   6.161  22.708  0.00  0.00    -0.312 N 
ATOM      4  H   UNL     1       9.253   5.374  23.039  0.00  0.00    +0.147 HD
ATOM      5  H   UNL     1       9.063   7.105  22.757  0.00  0.00    +0.147 HD
ATOM      6  C   UNL     1       7.572   5.886  22.030  0.00  0.00    +0.317 C 
ATOM      7  N   UNL     1       7.255   4.550  21.987  0.00  0.00    -0.191 N 
ATOM      8  H   UNL     1       6.403   4.298  21.499  0.00  0.00    +0.179 HD
ATOM      9  O   UNL     1       6.886   6.753  21.506  0.00  0.00    -0.251 OA
ENDBRANCH   1   7
BRANCH   2  10
ATOM     10  C   UNL     1       9.041   1.480  22.510  0.00  0.00    +0.154 A 
ATOM     11  O   UNL     1       8.687   0.173  22.310  0.00  0.00    -0.399 OA
ATOM     12  C   UNL     1       9.616  -0.575  22.970  0.00  0.00    +0.438 A 
ATOM     13  C   UNL     1      10.557   0.212  23.588  0.00  0.00    +0.132 A 
ATOM     14  C   UNL     1      10.185   1.544  23.287  0.00  0.00    +0.058 A 
BRANCH  12  15
ATOM     15  N   UNL     1       9.462  -1.995  22.910  0.00  0.00    +0.119 N 
ATOM     16  O   UNL     1      10.250  -2.688  23.565  0.00  0.00    +0.045 OA
ATOM     17  O   UNL     1       8.540  -2.415  22.199  0.00  0.00    -0.573 OA
ENDBRANCH  12  15
ENDBRANCH   2  10
TORSDOF 3
ENDMDL
