MODEL 1
REMARK VINA RESULT:      -6.2      0.000      0.000
REMARK  Name = 
REMARK  3 active torsions:
REMARK  status: ('A' for Active; 'I' for Inactive)
REMARK    1  A    between atoms: O_1  and  C_2
REMARK    2  A    between atoms: C_6  and  N_7
REMARK    3  A    between atoms: C_8  and  C_10
REMARK                            x       y       z     vdW  Elec       q    Type
REMARK                         _______ _______ _______ _____ _____    ______ ____
ROOT
ATOM      1  N   UNL     1       9.187   1.499  23.859  0.00  0.00    -0.281 N 
ATOM      2  H   UNL     1       8.288   1.334  23.418  0.00  0.00    +0.155 HD
ATOM      3  C   UNL     1       9.837   0.404  24.404  0.00  0.00    +0.250 C 
ATOM      4  O   UNL     1      10.845   0.460  25.103  0.00  0.00    -0.270 OA
ENDROOT
BRANCH   1   9
ATOM      5  C   UNL     1      10.293   5.553  24.328  0.00  0.00    +0.145 A 
ATOM      6  C   UNL     1       9.089   5.070  24.841  0.00  0.00    +0.062 A 
ATOM      7 BR   UNL     1       7.911   6.193  25.817  0.00  0.00    -0.046 Br
ATOM      8  C   UNL     1       8.729   3.727  24.658  0.00  0.00    +0.042 A 
ATOM      9  C   UNL     1       9.586   2.850  23.980  0.00  0.00    +0.036 A 
ATOM     10  C   UNL     1      10.782   3.346  23.455  0.00  0.00    +0.042 A 
ATOM     11  C   UNL     1      11.132   4.686  23.627  0.00  0.00    +0.062 A 
ATOM     12 BR   UNL     1      12.768   5.303  22.889  0.00  0.00    -0.046 Br
BRANCH   5  13
ATOM     13  O   UNL     1      10.639   6.864  24.516  0.00  0.00    -0.505 OA
ATOM     14  H   UNL     1      10.055   7.229  25.207  0.00  0.00    +0.292 HD
ENDBRANCH   5  13
ENDBRANCH   1   9
BRANCH   3  15
ATOM     15  C   UNL     1       9.285  -0.953  24.119  0.00  0.00    +0.057 A 
ATOM     16  C   UNL     1       9.046  -1.497  22.850  0.00  0.00    +0.053 A 
ATOM     17 CL   UNL     1       9.357  -0.657  21.371  0.00  0.00    -0.083 Cl
ATOM     18  C   UNL     1       8.489  -2.779  22.730  0.00  0.00    +0.022 A 
ATOM     19  C   UNL     1       8.166  -3.524  23.867  0.00  0.00    +0.021 A 
ATOM     20  C   UNL     1       8.394  -2.988  25.127  0.00  0.00    +0.042 A 
ATOM     21 CL   UNL     1       7.990  -3.894  26.531  0.00  0.00    -0.084 Cl
ATOM     22  C   UNL     1       8.945  -1.715  25.258  0.00  0.00    +0.034 A 
ENDBRANCH   3  15
TORSDOF 3
ENDMDL
MODEL 2
REMARK VINA RESULT:      -6.2      4.425      7.543
REMARK  Name = 
REMARK  3 active torsions:
REMARK  status: ('A' for Active; 'I' for Inactive)
REMARK    1  A    between atoms: O_1  and  C_2
REMARK    2  A    between atoms: C_6  and  N_7
REMARK    3  A    between atoms: C_8  and  C_10
REMARK                            x       y       z     vdW  Elec       q    Type
REMARK                         _______ _______ _______ _____ _____    ______ ____
ROOT
ATOM      1  N   UNL     1       8.657   0.066  23.959  0.00  0.00    -0.281 N 
ATOM      2  H   UNL     1       8.225   0.536  24.747  0.00  0.00    +0.155 HD
ATOM      3  C   UNL     1       9.297   0.858  23.020  0.00  0.00    +0.250 C 
ATOM      4  O   UNL     1       9.727   0.463  21.941  0.00  0.00    -0.270 OA
ENDROOT
BRANCH   1   9
ATOM      5  C   UNL     1       7.898  -4.071  23.524  0.00  0.00    +0.145 A 
ATOM      6  C   UNL     1       7.171  -3.125  22.802  0.00  0.00    +0.062 A 
ATOM      7 BR   UNL     1       5.841  -3.646  21.553  0.00  0.00    -0.046 Br
ATOM      8  C   UNL     1       7.422  -1.756  22.974  0.00  0.00    +0.042 A 
ATOM      9  C   UNL     1       8.423  -1.325  23.854  0.00  0.00    +0.036 A 
ATOM     10  C   UNL     1       9.135  -2.278  24.587  0.00  0.00    +0.042 A 
ATOM     11  C   UNL     1       8.874  -3.640  24.423  0.00  0.00    +0.062 A 
ATOM     12 BR   UNL     1       9.870  -4.889  25.447  0.00  0.00    -0.046 Br
BRANCH   5  13
ATOM     13  O   UNL     1       7.649  -5.406  23.346  0.00  0.00    -0.505 OA
ATOM     14  H   UNL     1       7.743  -5.844  24.213  0.00  0.00    +0.292 HD
ENDBRANCH   5  13
ENDBRANCH   1   9
BRANCH   3  15
ATOM     15  C   UNL     1       9.493   2.303  23.339  0.00  0.00    +0.057 A 
ATOM     16  C   UNL     1       8.488   3.214  23.690  0.00  0.00    +0.053 A 
ATOM     17 CL   UNL     1       6.814   2.799  23.808  0.00  0.00    -0.083 Cl
ATOM     18  C   UNL     1       8.812   4.558  23.930  0.00  0.00    +0.022 A 
ATOM     19  C   UNL     1      10.132   5.002  23.822  0.00  0.00    +0.021 A 
ATOM     20  C   UNL     1      11.132   4.105  23.468  0.00  0.00    +0.042 A 
ATOM     21 CL   UNL     1      12.757   4.647  23.323  0.00  0.00    -0.084 Cl
ATOM     22  C   UNL     1      10.820   2.770  23.225  0.00  0.00    +0.034 A 
ENDBRANCH   3  15
TORSDOF 3
ENDMDL
MODEL 3
REMARK VINA RESULT:      -6.0      0.206      2.119
REMARK  Name = 
REMARK  3 active torsions:
REMARK  status: ('A' for Active; 'I' for Inactive)
REMARK    1  A    between atoms: O_1  and  C_2
REMARK    2  A    between atoms: C_6  and  N_7
REMARK    3  A    between atoms: C_8  and  C_10
REMARK                            x       y       z     vdW  Elec       q    Type
REMARK                         _______ _______ _______ _____ _____    ______ ____
ROOT
ATOM      1  N   UNL     1       9.085   1.589  23.874  0.00  0.00    -0.281 N 
ATOM      2  H   UNL     1       8.209   1.429  23.388  0.00  0.00    +0.155 HD
ATOM      3  C   UNL     1       9.740   0.481  24.384  0.00  0.00    +0.250 C 
ATOM      4  O   UNL     1      10.717   0.520  25.127  0.00  0.00    -0.270 OA
ENDROOT
BRANCH   1   9
ATOM      5  C   UNL     1      10.243   5.621  24.404  0.00  0.00    +0.145 A 
ATOM      6  C   UNL     1      11.040   4.731  23.684  0.00  0.00    +0.062 A 
ATOM      7 BR   UNL     1      12.656   5.294  22.864  0.00  0.00    -0.046 Br
ATOM      8  C   UNL     1      10.650   3.392  23.536  0.00  0.00    +0.042 A 
ATOM      9  C   UNL     1       9.444   2.941  24.088  0.00  0.00    +0.036 A 
ATOM     10  C   UNL     1       8.660   3.834  24.822  0.00  0.00    +0.042 A 
ATOM     11  C   UNL     1       9.057   5.163  24.978  0.00  0.00    +0.062 A 
ATOM     12 BR   UNL     1       7.954   6.331  25.988  0.00  0.00    -0.046 Br
BRANCH   5  13
ATOM     13  O   UNL     1      10.629   6.928  24.539  0.00  0.00    -0.505 OA
ATOM     14  H   UNL     1      11.577   6.982  24.314  0.00  0.00    +0.292 HD
ENDBRANCH   5  13
ENDBRANCH   1   9
BRANCH   3  15
ATOM     15  C   UNL     1       9.235  -0.871  24.002  0.00  0.00    +0.057 A 
ATOM     16  C   UNL     1       9.054  -1.345  22.695  0.00  0.00    +0.053 A 
ATOM     17 CL   UNL     1       9.393  -0.412  21.280  0.00  0.00    -0.083 Cl
ATOM     18  C   UNL     1       8.536  -2.631  22.482  0.00  0.00    +0.022 A 
ATOM     19  C   UNL     1       8.194  -3.449  23.560  0.00  0.00    +0.021 A 
ATOM     20  C   UNL     1       8.364  -2.982  24.858  0.00  0.00    +0.042 A 
ATOM     21 CL   UNL     1       7.935  -3.979  26.191  0.00  0.00    -0.084 Cl
ATOM     22  C   UNL     1       8.875  -1.706  25.081  0.00  0.00    +0.034 A 
ENDBRANCH   3  15
TORSDOF 3
ENDMDL
MODEL 4
REMARK VINA RESULT:      -6.0      4.499      7.671
REMARK  Name = 
REMARK  3 active torsions:
REMARK  status: ('A' for Active; 'I' for Inactive)
REMARK    1  A    between atoms: O_1  and  C_2
REMARK    2  A    between atoms: C_6  and  N_7
REMARK    3  A    between atoms: C_8  and  C_10
REMARK                            x       y       z     vdW  Elec       q    Type
REMARK                         _______ _______ _______ _____ _____    ______ ____
ROOT
ATOM      1  N   UNL     1       8.498  -0.078  23.797  0.00  0.00    -0.281 N 
ATOM      2  H   UNL     1       8.098   0.348  24.626  0.00  0.00    +0.155 HD
ATOM      3  C   UNL     1       9.082   0.768  22.868  0.00  0.00    +0.250 C 
ATOM      4  O   UNL     1       9.464   0.430  21.751  0.00  0.00    -0.270 OA
ENDROOT
BRANCH   1   9
ATOM      5  C   UNL     1       7.891  -4.247  23.444  0.00  0.00    +0.145 A 
ATOM      6  C   UNL     1       8.812  -3.727  24.353  0.00  0.00    +0.062 A 
ATOM      7 BR   UNL     1       9.802  -4.859  25.511  0.00  0.00    -0.046 Br
ATOM      8  C   UNL     1       9.016  -2.343  24.442  0.00  0.00    +0.042 A 
ATOM      9  C   UNL     1       8.277  -1.466  23.637  0.00  0.00    +0.036 A 
ATOM     10  C   UNL     1       7.369  -1.995  22.717  0.00  0.00    +0.042 A 
ATOM     11  C   UNL     1       7.178  -3.375  22.621  0.00  0.00    +0.062 A 
ATOM     12 BR   UNL     1       5.934  -4.037  21.351  0.00  0.00    -0.046 Br
BRANCH   5  13
ATOM     13  O   UNL     1       7.696  -5.600  23.368  0.00  0.00    -0.505 OA
ATOM     14  H   UNL     1       7.995  -5.894  22.487  0.00  0.00    +0.292 HD
ENDBRANCH   5  13
ENDBRANCH   1   9
BRANCH   3  15
ATOM     15  C   UNL     1       9.274   2.199  23.245  0.00  0.00    +0.057 A 
ATOM     16  C   UNL     1       8.264   3.096  23.620  0.00  0.00    +0.053 A 
ATOM     17 CL   UNL     1       6.589   2.678  23.703  0.00  0.00    -0.083 Cl
ATOM     18  C   UNL     1       8.586   4.429  23.918  0.00  0.00    +0.022 A 
ATOM     19  C   UNL     1       9.907   4.876  23.842  0.00  0.00    +0.021 A 
ATOM     20  C   UNL     1      10.911   3.994  23.464  0.00  0.00    +0.042 A 
ATOM     21 CL   UNL     1      12.538   4.540  23.359  0.00  0.00    -0.084 Cl
ATOM     22  C   UNL     1      10.602   2.669  23.165  0.00  0.00    +0.034 A 
ENDBRANCH   3  15
TORSDOF 3
ENDMDL
MODEL 5
REMARK VINA RESULT:      -5.9      2.338      2.744
REMARK  Name = 
REMARK  3 active torsions:
REMARK  status: ('A' for Active; 'I' for Inactive)
REMARK    1  A    between atoms: O_1  and  C_2
REMARK    2  A    between atoms: C_6  and  N_7
REMARK    3  A    between atoms: C_8  and  C_10
REMARK                            x       y       z     vdW  Elec       q    Type
REMARK                         _______ _______ _______ _____ _____    ______ ____
ROOT
ATOM      1  N   UNL     1       8.183  -0.251  23.788  0.00  0.00    -0.281 N 
ATOM      2  H   UNL     1       7.944  -0.526  24.735  0.00  0.00    +0.155 HD
ATOM      3  C   UNL     1       8.452  -1.263  22.882  0.00  0.00    +0.250 C 
ATOM      4  O   UNL     1       8.905  -1.095  21.753  0.00  0.00    -0.270 OA
ENDROOT
BRANCH   1   9
ATOM      5  C   UNL     1       8.539   3.913  23.141  0.00  0.00    +0.145 A 
ATOM      6  C   UNL     1       7.295   3.281  23.103  0.00  0.00    +0.062 A 
ATOM      7 BR   UNL     1       5.698   4.263  22.809  0.00  0.00    -0.046 Br
ATOM      8  C   UNL     1       7.199   1.896  23.299  0.00  0.00    +0.042 A 
ATOM      9  C   UNL     1       8.346   1.136  23.561  0.00  0.00    +0.036 A 
ATOM     10  C   UNL     1       9.589   1.774  23.580  0.00  0.00    +0.042 A 
ATOM     11  C   UNL     1       9.684   3.151  23.372  0.00  0.00    +0.062 A 
ATOM     12 BR   UNL     1      11.399   3.961  23.406  0.00  0.00    -0.046 Br
BRANCH   5  13
ATOM     13  O   UNL     1       8.623   5.266  22.953  0.00  0.00    -0.505 OA
ATOM     14  H   UNL     1       7.833   5.672  23.357  0.00  0.00    +0.292 HD
ENDBRANCH   5  13
ENDBRANCH   1   9
BRANCH   3  15
ATOM     15  C   UNL     1       8.165  -2.668  23.294  0.00  0.00    +0.057 A 
ATOM     16  C   UNL     1       7.042  -3.423  22.928  0.00  0.00    +0.053 A 
ATOM     17 CL   UNL     1       5.772  -2.827  21.918  0.00  0.00    -0.083 Cl
ATOM     18  C   UNL     1       6.883  -4.727  23.420  0.00  0.00    +0.022 A 
ATOM     19  C   UNL     1       7.835  -5.286  24.276  0.00  0.00    +0.021 A 
ATOM     20  C   UNL     1       8.947  -4.541  24.647  0.00  0.00    +0.042 A 
ATOM     21 CL   UNL     1      10.117  -5.219  25.708  0.00  0.00    -0.084 Cl
ATOM     22  C   UNL     1       9.113  -3.244  24.167  0.00  0.00    +0.034 A 
ENDBRANCH   3  15
TORSDOF 3
ENDMDL
MODEL 6
REMARK VINA RESULT:      -5.9      2.735      3.534
REMARK  Name = 
REMARK  3 active torsions:
REMARK  status: ('A' for Active; 'I' for Inactive)
REMARK    1  A    between atoms: O_1  and  C_2
REMARK    2  A    between atoms: C_6  and  N_7
REMARK    3  A    between atoms: C_8  and  C_10
REMARK                            x       y       z     vdW  Elec       q    Type
REMARK                         _______ _______ _______ _____ _____    ______ ____
ROOT
ATOM      1  N   UNL     1       7.783  -0.566  23.431  0.00  0.00    -0.281 N 
ATOM      2  H   UNL     1       7.288  -0.863  24.265  0.00  0.00    +0.155 HD
ATOM      3  C   UNL     1       8.307  -1.556  22.617  0.00  0.00    +0.250 C 
ATOM      4  O   UNL     1       9.060  -1.363  21.667  0.00  0.00    -0.270 OA
ENDROOT
BRANCH   1   9
ATOM      5  C   UNL     1       8.274   3.615  23.035  0.00  0.00    +0.145 A 
ATOM      6  C   UNL     1       7.015   3.023  22.924  0.00  0.00    +0.062 A 
ATOM      7 BR   UNL     1       5.456   4.067  22.642  0.00  0.00    -0.046 Br
ATOM      8  C   UNL     1       6.874   1.633  23.038  0.00  0.00    +0.042 A 
ATOM      9  C   UNL     1       7.991   0.826  23.289  0.00  0.00    +0.036 A 
ATOM     10  C   UNL     1       9.251   1.424  23.380  0.00  0.00    +0.042 A 
ATOM     11  C   UNL     1       9.390   2.807  23.254  0.00  0.00    +0.062 A 
ATOM     12 BR   UNL     1      11.126   3.564  23.384  0.00  0.00    -0.046 Br
BRANCH   5  13
ATOM     13  O   UNL     1       8.402   4.974  22.927  0.00  0.00    -0.505 OA
ATOM     14  H   UNL     1       8.236   5.215  21.996  0.00  0.00    +0.292 HD
ENDBRANCH   5  13
ENDBRANCH   1   9
BRANCH   3  15
ATOM     15  C   UNL     1       7.927  -2.972  22.902  0.00  0.00    +0.057 A 
ATOM     16  C   UNL     1       8.196  -3.677  24.083  0.00  0.00    +0.053 A 
ATOM     17 CL   UNL     1       9.039  -3.002  25.434  0.00  0.00    -0.083 Cl
ATOM     18  C   UNL     1       7.809  -5.020  24.201  0.00  0.00    +0.022 A 
ATOM     19  C   UNL     1       7.157  -5.668  23.150  0.00  0.00    +0.021 A 
ATOM     20  C   UNL     1       6.893  -4.977  21.974  0.00  0.00    +0.042 A 
ATOM     21 CL   UNL     1       6.100  -5.771  20.672  0.00  0.00    -0.084 Cl
ATOM     22  C   UNL     1       7.276  -3.644  21.845  0.00  0.00    +0.034 A 
ENDBRANCH   3  15
TORSDOF 3
ENDMDL
MODEL 7
REMARK VINA RESULT:      -5.9      4.906      7.854
REMARK  Name = 
REMARK  3 active torsions:
REMARK  status: ('A' for Active; 'I' for Inactive)
REMARK    1  A    between atoms: O_1  and  C_2
REMARK    2  A    between atoms: C_6  and  N_7
REMARK    3  A    between atoms: C_8  and  C_10
REMARK                            x       y       z     vdW  Elec       q    Type
REMARK                         _______ _______ _______ _____ _____    ______ ____
ROOT
ATOM      1  N   UNL     1       8.156  -1.475  24.054  0.00  0.00    -0.281 N 
ATOM      2  H   UNL     1       9.156  -1.461  24.229  0.00  0.00    +0.155 HD
ATOM      3  C   UNL     1       7.537  -0.260  23.812  0.00  0.00    +0.250 C 
ATOM      4  O   UNL     1       6.323  -0.090  23.742  0.00  0.00    -0.270 OA
ENDROOT
BRANCH   1   9
ATOM      5  C   UNL     1       6.165  -5.153  24.675  0.00  0.00    +0.145 A 
ATOM      6  C   UNL     1       6.395  -4.271  25.731  0.00  0.00    +0.062 A 
ATOM      7 BR   UNL     1       5.784  -4.652  27.486  0.00  0.00    -0.046 Br
ATOM      8  C   UNL     1       7.076  -3.065  25.510  0.00  0.00    +0.042 A 
ATOM      9  C   UNL     1       7.509  -2.721  24.223  0.00  0.00    +0.036 A 
ATOM     10  C   UNL     1       7.290  -3.618  23.174  0.00  0.00    +0.042 A 
ATOM     11  C   UNL     1       6.624  -4.824  23.399  0.00  0.00    +0.062 A 
ATOM     12 BR   UNL     1       6.357  -6.005  21.937  0.00  0.00    -0.046 Br
BRANCH   5  13
ATOM     13  O   UNL     1       5.496  -6.327  24.899  0.00  0.00    -0.505 OA
ATOM     14  H   UNL     1       5.615  -6.891  24.112  0.00  0.00    +0.292 HD
ENDBRANCH   5  13
ENDBRANCH   1   9
BRANCH   3  15
ATOM     15  C   UNL     1       8.401   0.940  23.612  0.00  0.00    +0.057 A 
ATOM     16  C   UNL     1       9.449   1.058  22.688  0.00  0.00    +0.053 A 
ATOM     17 CL   UNL     1       9.923  -0.205  21.607  0.00  0.00    -0.083 Cl
ATOM     18  C   UNL     1      10.204   2.239  22.631  0.00  0.00    +0.022 A 
ATOM     19  C   UNL     1       9.925   3.304  23.490  0.00  0.00    +0.021 A 
ATOM     20  C   UNL     1       8.892   3.191  24.413  0.00  0.00    +0.042 A 
ATOM     21 CL   UNL     1       8.550   4.494  25.480  0.00  0.00    -0.084 Cl
ATOM     22  C   UNL     1       8.138   2.022  24.479  0.00  0.00    +0.034 A 
ENDBRANCH   3  15
TORSDOF 3
ENDMDL
MODEL 8
REMARK VINA RESULT:      -5.9      2.382      3.374
REMARK  Name = 
REMARK  3 active torsions:
REMARK  status: ('A' for Active; 'I' for Inactive)
REMARK    1  A    between atoms: O_1  and  C_2
REMARK    2  A    between atoms: C_6  and  N_7
REMARK    3  A    between atoms: C_8  and  C_10
REMARK                            x       y       z     vdW  Elec       q    Type
REMARK                         _______ _______ _______ _____ _____    ______ ____
ROOT
ATOM      1  N   UNL     1       8.023  -0.272  23.833  0.00  0.00    -0.281 N 
ATOM      2  H   UNL     1       7.828  -0.569  24.784  0.00  0.00    +0.155 HD
ATOM      3  C   UNL     1       8.302  -1.261  22.904  0.00  0.00    +0.250 C 
ATOM      4  O   UNL     1       8.710  -1.061  21.764  0.00  0.00    -0.270 OA
ENDROOT
BRANCH   1   9
ATOM      5  C   UNL     1       8.451   3.881  23.163  0.00  0.00    +0.145 A 
ATOM      6  C   UNL     1       9.560   3.073  23.418  0.00  0.00    +0.062 A 
ATOM      7 BR   UNL     1      11.318   3.787  23.427  0.00  0.00    -0.046 Br
ATOM      8  C   UNL     1       9.397   1.702  23.658  0.00  0.00    +0.042 A 
ATOM      9  C   UNL     1       8.122   1.122  23.620  0.00  0.00    +0.036 A 
ATOM     10  C   UNL     1       7.015   1.941  23.382  0.00  0.00    +0.042 A 
ATOM     11  C   UNL     1       7.179   3.309  23.156  0.00  0.00    +0.062 A 
ATOM     12 BR   UNL     1       5.638   4.371  22.841  0.00  0.00    -0.046 Br
BRANCH   5  13
ATOM     13  O   UNL     1       8.620   5.218  22.925  0.00  0.00    -0.505 OA
ATOM     14  H   UNL     1       9.172   5.310  22.126  0.00  0.00    +0.292 HD
ENDBRANCH   5  13
ENDBRANCH   1   9
BRANCH   3  15
ATOM     15  C   UNL     1       8.087  -2.682  23.307  0.00  0.00    +0.057 A 
ATOM     16  C   UNL     1       7.019  -3.499  22.910  0.00  0.00    +0.053 A 
ATOM     17 CL   UNL     1       5.744  -2.975  21.868  0.00  0.00    -0.083 Cl
ATOM     18  C   UNL     1       6.924  -4.812  23.395  0.00  0.00    +0.022 A 
ATOM     19  C   UNL     1       7.885  -5.318  24.274  0.00  0.00    +0.021 A 
ATOM     20  C   UNL     1       8.941  -4.511  24.676  0.00  0.00    +0.042 A 
ATOM     21 CL   UNL     1      10.121  -5.123  25.766  0.00  0.00    -0.084 Cl
ATOM     22  C   UNL     1       9.044  -3.206  24.203  0.00  0.00    +0.034 A 
ENDBRANCH   3  15
TORSDOF 3
ENDMDL
MODEL 9
REMARK VINA RESULT:      -5.9      5.247      8.240
REMARK  Name = 
REMARK  3 active torsions:
REMARK  status: ('A' for Active; 'I' for Inactive)
REMARK    1  A    between atoms: O_1  and  C_2
REMARK    2  A    between atoms: C_6  and  N_7
REMARK    3  A    between atoms: C_8  and  C_10
REMARK                            x       y       z     vdW  Elec       q    Type
REMARK                         _______ _______ _______ _____ _____    ______ ____
ROOT
ATOM      1  N   UNL     1       6.624  -1.186  23.153  0.00  0.00    -0.281 N 
ATOM      2  H   UNL     1       6.336  -0.537  22.429  0.00  0.00    +0.155 HD
ATOM      3  C   UNL     1       7.710  -0.824  23.934  0.00  0.00    +0.250 C 
ATOM      4  O   UNL     1       8.276  -1.559  24.737  0.00  0.00    -0.270 OA
ENDROOT
BRANCH   1   9
ATOM      5  C   UNL     1       4.755  -4.979  23.138  0.00  0.00    +0.145 A 
ATOM      6  C   UNL     1       5.719  -4.646  22.186  0.00  0.00    +0.062 A 
ATOM      7 BR   UNL     1       6.277  -5.893  20.868  0.00  0.00    -0.046 Br
ATOM      8  C   UNL     1       6.313  -3.376  22.193  0.00  0.00    +0.042 A 
ATOM      9  C   UNL     1       5.964  -2.437  23.173  0.00  0.00    +0.036 A 
ATOM     10  C   UNL     1       4.986  -2.771  24.111  0.00  0.00    +0.042 A 
ATOM     11  C   UNL     1       4.386  -4.032  24.094  0.00  0.00    +0.062 A 
ATOM     12 BR   UNL     1       3.060  -4.429  25.392  0.00  0.00    -0.046 Br
BRANCH   5  13
ATOM     13  O   UNL     1       4.184  -6.223  23.125  0.00  0.00    -0.505 OA
ATOM     14  H   UNL     1       4.759  -6.808  22.599  0.00  0.00    +0.292 HD
ENDBRANCH   5  13
ENDBRANCH   1   9
BRANCH   3  15
ATOM     15  C   UNL     1       8.235   0.567  23.803  0.00  0.00    +0.057 A 
ATOM     16  C   UNL     1       9.115   1.027  22.813  0.00  0.00    +0.053 A 
ATOM     17 CL   UNL     1       9.753   0.028  21.555  0.00  0.00    -0.083 Cl
ATOM     18  C   UNL     1       9.555   2.359  22.832  0.00  0.00    +0.022 A 
ATOM     19  C   UNL     1       9.128   3.237  23.830  0.00  0.00    +0.021 A 
ATOM     20  C   UNL     1       8.262   2.785  24.818  0.00  0.00    +0.042 A 
ATOM     21 CL   UNL     1       7.740   3.857  26.056  0.00  0.00    -0.084 Cl
ATOM     22  C   UNL     1       7.820   1.464  24.810  0.00  0.00    +0.034 A 
ENDBRANCH   3  15
TORSDOF 3
ENDMDL
