MODEL 1
REMARK VINA RESULT:      -6.4      0.000      0.000
REMARK  Name = 
REMARK  13 active torsions:
REMARK  status: ('A' for Active; 'I' for Inactive)
REMARK    1  A    between atoms: C_2  and  N_3
REMARK    2  A    between atoms: C_2  and  C_4
REMARK    3  A    between atoms: C_2  and  C_24
REMARK    4  A    between atoms: C_4  and  S_5
REMARK    5  A    between atoms: S_5  and  S_6
REMARK    6  A    between atoms: S_6  and  C_7
REMARK    7  A    between atoms: C_7  and  C_8
REMARK    8  A    between atoms: C_9  and  C_10
REMARK    9  A    between atoms: C_16  and  C_17
REMARK   10  A    between atoms: C_16  and  C_18
REMARK   11  A    between atoms: C_21  and  C_22
REMARK   12  A    between atoms: C_21  and  C_23
REMARK   13  A    between atoms: C_24  and  O_25
REMARK                            x       y       z     vdW  Elec       q    Type
REMARK                         _______ _______ _______ _____ _____    ______ ____
ROOT
ATOM      1  C   UNK     1       6.788  -1.480  24.347  0.00  0.00    +0.025 C 
ATOM      2  C   UNK     1       7.347  -0.120  24.713  0.00  0.00    +0.230 C 
ATOM      3  C   UNK     1       6.411   1.045  24.398  0.00  0.00    +0.099 C 
ATOM      4  C   UNK     1       7.932  -0.029  26.122  0.00  0.00    +0.099 C 
ATOM      5  N   UNK     1       8.505  -0.066  23.771  0.00  0.00    +0.020 N 
ATOM      6  O   UNK     1       9.120   0.965  23.545  0.00  0.00    +0.022 OA
ATOM      7  C   UNK     1       8.843  -1.371  23.129  0.00  0.00    +0.233 C 
ATOM      8  C   UNK     1      10.103  -1.883  23.823  0.00  0.00    +0.099 C 
ATOM      9  C   UNK     1       9.062  -1.129  21.638  0.00  0.00    +0.099 C 
ATOM     10  C   UNK     1       7.592  -2.141  23.486  0.00  0.00    +0.040 C 
ENDROOT
BRANCH  10  11
ATOM     11  C   UNK     1       7.286  -3.446  22.895  0.00  0.00    -0.015 A 
ATOM     12  C   UNK     1       7.879  -4.609  23.400  0.00  0.00    +0.008 A 
ATOM     13  C   UNK     1       7.540  -5.861  22.878  0.00  0.00    +0.001 A 
ATOM     14  C   UNK     1       6.606  -5.958  21.848  0.00  0.00    +0.000 A 
ATOM     15  C   UNK     1       6.010  -4.806  21.340  0.00  0.00    +0.001 A 
ATOM     16  C   UNK     1       6.345  -3.555  21.863  0.00  0.00    +0.008 A 
ENDBRANCH  10  11
BRANCH   1  17
ATOM     17  C   UNK     1       5.421  -1.890  24.796  0.00  0.00    +0.119 C 
BRANCH  17  18
ATOM     18  S   UNK     1       5.497  -2.973  26.249  0.00  0.00    -0.088 S 
BRANCH  18  19
ATOM     19  S   UNK     1       4.751  -4.725  25.462  0.00  0.00    -0.091 S 
BRANCH  19  20
ATOM     20  C   UNK     1       5.639  -6.036  26.394  0.00  0.00    +0.111 C 
BRANCH  20  21
ATOM     21  C   UNK     1       6.449  -5.551  27.599  0.00  0.00    +0.171 C 
BRANCH  21  22
ATOM     22  N   UNK     1       7.902  -5.634  27.294  0.00  0.00    -0.318 NA
ATOM     23  H   UNK     1       8.417  -5.257  28.093  0.00  0.00    +0.119 HD
ATOM     24  H   UNK     1       8.165  -6.625  27.284  0.00  0.00    +0.119 HD
ENDBRANCH  21  22
BRANCH  21  25
ATOM     25  C   UNK     1       6.131  -6.414  28.825  0.00  0.00    +0.323 C 
ATOM     26  O   UNK     1       6.375  -6.071  29.976  0.00  0.00    -0.249 OA
BRANCH  25  27
ATOM     27  O   UNK     1       5.524  -7.586  28.535  0.00  0.00    -0.480 OA
ATOM     28  H   UNK     1       4.867  -7.525  27.811  0.00  0.00    +0.295 HD
ENDBRANCH  25  27
ENDBRANCH  21  25
ENDBRANCH  20  21
ENDBRANCH  19  20
ENDBRANCH  18  19
ENDBRANCH  17  18
ENDBRANCH   1  17
TORSDOF 9
ENDMDL
MODEL 2
REMARK VINA RESULT:      -6.0      2.837      4.413
REMARK  Name = 
REMARK  13 active torsions:
REMARK  status: ('A' for Active; 'I' for Inactive)
REMARK    1  A    between atoms: C_2  and  N_3
REMARK    2  A    between atoms: C_2  and  C_4
REMARK    3  A    between atoms: C_2  and  C_24
REMARK    4  A    between atoms: C_4  and  S_5
REMARK    5  A    between atoms: S_5  and  S_6
REMARK    6  A    between atoms: S_6  and  C_7
REMARK    7  A    between atoms: C_7  and  C_8
REMARK    8  A    between atoms: C_9  and  C_10
REMARK    9  A    between atoms: C_16  and  C_17
REMARK   10  A    between atoms: C_16  and  C_18
REMARK   11  A    between atoms: C_21  and  C_22
REMARK   12  A    between atoms: C_21  and  C_23
REMARK   13  A    between atoms: C_24  and  O_25
REMARK                            x       y       z     vdW  Elec       q    Type
REMARK                         _______ _______ _______ _____ _____    ______ ____
ROOT
ATOM      1  C   UNK     1       8.948   0.455  24.006  0.00  0.00    +0.025 C 
ATOM      2  C   UNK     1       9.589   1.619  23.276  0.00  0.00    +0.230 C 
ATOM      3  C   UNK     1      10.825   2.187  23.971  0.00  0.00    +0.099 C 
ATOM      4  C   UNK     1       9.819   1.387  21.784  0.00  0.00    +0.099 C 
ATOM      5  N   UNK     1       8.484   2.617  23.384  0.00  0.00    +0.020 N 
ATOM      6  O   UNK     1       8.644   3.802  23.134  0.00  0.00    +0.022 OA
ATOM      7  C   UNK     1       7.175   2.049  23.824  0.00  0.00    +0.233 C 
ATOM      8  C   UNK     1       6.291   1.982  22.581  0.00  0.00    +0.099 C 
ATOM      9  C   UNK     1       6.593   2.963  24.899  0.00  0.00    +0.099 C 
ATOM     10  C   UNK     1       7.655   0.699  24.307  0.00  0.00    +0.040 C 
ENDROOT
BRANCH  10  11
ATOM     11  C   UNK     1       6.791  -0.205  25.072  0.00  0.00    -0.015 A 
ATOM     12  C   UNK     1       5.946  -1.104  24.412  0.00  0.00    +0.008 A 
ATOM     13  C   UNK     1       5.170  -2.010  25.141  0.00  0.00    +0.001 A 
ATOM     14  C   UNK     1       5.233  -2.023  26.533  0.00  0.00    +0.000 A 
ATOM     15  C   UNK     1       6.072  -1.131  27.198  0.00  0.00    +0.001 A 
ATOM     16  C   UNK     1       6.851  -0.228  26.471  0.00  0.00    +0.008 A 
ENDBRANCH  10  11
BRANCH   1  17
ATOM     17  C   UNK     1       9.770  -0.713  24.451  0.00  0.00    +0.119 C 
BRANCH  17  18
ATOM     18  S   UNK     1       9.968  -1.929  23.120  0.00  0.00    -0.088 S 
BRANCH  18  19
ATOM     19  S   UNK     1       8.643  -3.385  23.729  0.00  0.00    -0.091 S 
BRANCH  19  20
ATOM     20  C   UNK     1       8.767  -3.351  25.562  0.00  0.00    +0.111 C 
BRANCH  20  21
ATOM     21  C   UNK     1       9.054  -4.699  26.226  0.00  0.00    +0.171 C 
BRANCH  21  22
ATOM     22  N   UNK     1       9.871  -5.544  25.315  0.00  0.00    -0.318 NA
ATOM     23  H   UNK     1      10.575  -4.947  24.873  0.00  0.00    +0.119 HD
ATOM     24  H   UNK     1      10.426  -6.183  25.893  0.00  0.00    +0.119 HD
ENDBRANCH  21  22
BRANCH  21  25
ATOM     25  C   UNK     1       7.738  -5.415  26.549  0.00  0.00    +0.323 C 
ATOM     26  O   UNK     1       6.805  -5.506  25.760  0.00  0.00    -0.249 OA
BRANCH  25  27
ATOM     27  O   UNK     1       7.699  -5.973  27.779  0.00  0.00    -0.480 OA
ATOM     28  H   UNK     1       8.338  -6.705  27.904  0.00  0.00    +0.295 HD
ENDBRANCH  25  27
ENDBRANCH  21  25
ENDBRANCH  20  21
ENDBRANCH  19  20
ENDBRANCH  18  19
ENDBRANCH  17  18
ENDBRANCH   1  17
TORSDOF 9
ENDMDL
MODEL 3
REMARK VINA RESULT:      -5.9      1.533      1.969
REMARK  Name = 
REMARK  13 active torsions:
REMARK  status: ('A' for Active; 'I' for Inactive)
REMARK    1  A    between atoms: C_2  and  N_3
REMARK    2  A    between atoms: C_2  and  C_4
REMARK    3  A    between atoms: C_2  and  C_24
REMARK    4  A    between atoms: C_4  and  S_5
REMARK    5  A    between atoms: S_5  and  S_6
REMARK    6  A    between atoms: S_6  and  C_7
REMARK    7  A    between atoms: C_7  and  C_8
REMARK    8  A    between atoms: C_9  and  C_10
REMARK    9  A    between atoms: C_16  and  C_17
REMARK   10  A    between atoms: C_16  and  C_18
REMARK   11  A    between atoms: C_21  and  C_22
REMARK   12  A    between atoms: C_21  and  C_23
REMARK   13  A    between atoms: C_24  and  O_25
REMARK                            x       y       z     vdW  Elec       q    Type
REMARK                         _______ _______ _______ _____ _____    ______ ____
ROOT
ATOM      1  C   UNK     1       6.900  -1.657  24.370  0.00  0.00    +0.025 C 
ATOM      2  C   UNK     1       7.551  -0.353  24.785  0.00  0.00    +0.230 C 
ATOM      3  C   UNK     1       6.679   0.880  24.559  0.00  0.00    +0.099 C 
ATOM      4  C   UNK     1       8.181  -0.370  26.177  0.00  0.00    +0.099 C 
ATOM      5  N   UNK     1       8.681  -0.319  23.810  0.00  0.00    +0.020 N 
ATOM      6  O   UNK     1       9.351   0.685  23.616  0.00  0.00    +0.022 OA
ATOM      7  C   UNK     1       8.921  -1.607  23.092  0.00  0.00    +0.233 C 
ATOM      8  C   UNK     1      10.167  -2.227  23.719  0.00  0.00    +0.099 C 
ATOM      9  C   UNK     1       9.111  -1.301  21.610  0.00  0.00    +0.099 C 
ATOM     10  C   UNK     1       7.636  -2.318  23.451  0.00  0.00    +0.040 C 
ENDROOT
BRANCH  10  11
ATOM     11  C   UNK     1       7.236  -3.571  22.805  0.00  0.00    -0.015 A 
ATOM     12  C   UNK     1       6.325  -3.561  21.743  0.00  0.00    +0.008 A 
ATOM     13  C   UNK     1       5.991  -4.749  21.085  0.00  0.00    +0.001 A 
ATOM     14  C   UNK     1       6.565  -5.954  21.486  0.00  0.00    +0.000 A 
ATOM     15  C   UNK     1       7.473  -5.974  22.542  0.00  0.00    +0.001 A 
ATOM     16  C   UNK     1       7.811  -4.787  23.197  0.00  0.00    +0.008 A 
ENDBRANCH  10  11
BRANCH   1  17
ATOM     17  C   UNK     1       5.525  -2.008  24.842  0.00  0.00    +0.119 C 
BRANCH  17  18
ATOM     18  S   UNK     1       5.572  -3.271  26.142  0.00  0.00    -0.088 S 
BRANCH  18  19
ATOM     19  S   UNK     1       3.618  -3.925  26.114  0.00  0.00    -0.091 S 
BRANCH  19  20
ATOM     20  C   UNK     1       3.607  -5.216  24.806  0.00  0.00    +0.111 C 
BRANCH  20  21
ATOM     21  C   UNK     1       4.662  -6.314  24.959  0.00  0.00    +0.171 C 
BRANCH  21  22
ATOM     22  N   UNK     1       4.404  -7.398  23.974  0.00  0.00    -0.318 NA
ATOM     23  H   UNK     1       4.498  -7.003  23.035  0.00  0.00    +0.119 HD
ATOM     24  H   UNK     1       5.180  -8.066  24.033  0.00  0.00    +0.119 HD
ENDBRANCH  21  22
BRANCH  21  25
ATOM     25  C   UNK     1       4.619  -6.889  26.379  0.00  0.00    +0.323 C 
ATOM     26  O   UNK     1       5.563  -6.842  27.158  0.00  0.00    -0.249 OA
BRANCH  25  27
ATOM     27  O   UNK     1       3.430  -7.434  26.719  0.00  0.00    -0.480 OA
ATOM     28  H   UNK     1       3.468  -8.006  27.515  0.00  0.00    +0.295 HD
ENDBRANCH  25  27
ENDBRANCH  21  25
ENDBRANCH  20  21
ENDBRANCH  19  20
ENDBRANCH  18  19
ENDBRANCH  17  18
ENDBRANCH   1  17
TORSDOF 9
ENDMDL
MODEL 4
REMARK VINA RESULT:      -5.9      1.233      1.600
REMARK  Name = 
REMARK  13 active torsions:
REMARK  status: ('A' for Active; 'I' for Inactive)
REMARK    1  A    between atoms: C_2  and  N_3
REMARK    2  A    between atoms: C_2  and  C_4
REMARK    3  A    between atoms: C_2  and  C_24
REMARK    4  A    between atoms: C_4  and  S_5
REMARK    5  A    between atoms: S_5  and  S_6
REMARK    6  A    between atoms: S_6  and  C_7
REMARK    7  A    between atoms: C_7  and  C_8
REMARK    8  A    between atoms: C_9  and  C_10
REMARK    9  A    between atoms: C_16  and  C_17
REMARK   10  A    between atoms: C_16  and  C_18
REMARK   11  A    between atoms: C_21  and  C_22
REMARK   12  A    between atoms: C_21  and  C_23
REMARK   13  A    between atoms: C_24  and  O_25
REMARK                            x       y       z     vdW  Elec       q    Type
REMARK                         _______ _______ _______ _____ _____    ______ ____
ROOT
ATOM      1  C   UNK     1       7.143  -0.398  24.259  0.00  0.00    +0.025 C 
ATOM      2  C   UNK     1       7.425   1.087  24.152  0.00  0.00    +0.230 C 
ATOM      3  C   UNK     1       6.274   1.900  23.563  0.00  0.00    +0.099 C 
ATOM      4  C   UNK     1       7.994   1.721  25.420  0.00  0.00    +0.099 C 
ATOM      5  N   UNK     1       8.540   1.055  23.158  0.00  0.00    +0.020 N 
ATOM      6  O   UNK     1       8.936   2.059  22.585  0.00  0.00    +0.022 OA
ATOM      7  C   UNK     1       9.123  -0.299  22.922  0.00  0.00    +0.233 C 
ATOM      8  C   UNK     1      10.466  -0.325  23.649  0.00  0.00    +0.099 C 
ATOM      9  C   UNK     1       9.275  -0.500  21.418  0.00  0.00    +0.099 C 
ATOM     10  C   UNK     1       8.053  -1.135  23.586  0.00  0.00    +0.040 C 
ENDROOT
BRANCH  10  11
ATOM     11  C   UNK     1       8.006  -2.593  23.445  0.00  0.00    -0.015 A 
ATOM     12  C   UNK     1       8.735  -3.412  24.314  0.00  0.00    +0.008 A 
ATOM     13  C   UNK     1       8.641  -4.804  24.221  0.00  0.00    +0.001 A 
ATOM     14  C   UNK     1       7.818  -5.385  23.257  0.00  0.00    +0.000 A 
ATOM     15  C   UNK     1       7.088  -4.577  22.388  0.00  0.00    +0.001 A 
ATOM     16  C   UNK     1       7.178  -3.187  22.483  0.00  0.00    +0.008 A 
ENDBRANCH  10  11
BRANCH   1  17
ATOM     17  C   UNK     1       5.889  -0.892  24.908  0.00  0.00    +0.119 C 
BRANCH  17  18
ATOM     18  S   UNK     1       6.208  -1.514  26.581  0.00  0.00    -0.088 S 
BRANCH  18  19
ATOM     19  S   UNK     1       4.825  -3.037  26.696  0.00  0.00    -0.091 S 
BRANCH  19  20
ATOM     20  C   UNK     1       5.801  -4.544  26.304  0.00  0.00    +0.111 C 
BRANCH  20  21
ATOM     21  C   UNK     1       6.109  -5.455  27.494  0.00  0.00    +0.171 C 
BRANCH  21  22
ATOM     22  N   UNK     1       7.556  -5.795  27.505  0.00  0.00    -0.318 NA
ATOM     23  H   UNK     1       8.065  -5.007  27.914  0.00  0.00    +0.119 HD
ATOM     24  H   UNK     1       7.696  -6.550  28.185  0.00  0.00    +0.119 HD
ENDBRANCH  21  22
BRANCH  21  25
ATOM     25  C   UNK     1       5.280  -6.741  27.398  0.00  0.00    +0.323 C 
ATOM     26  O   UNK     1       4.619  -7.049  26.413  0.00  0.00    -0.249 OA
BRANCH  25  27
ATOM     27  O   UNK     1       5.360  -7.534  28.489  0.00  0.00    -0.480 OA
ATOM     28  H   UNK     1       5.999  -8.271  28.399  0.00  0.00    +0.295 HD
ENDBRANCH  25  27
ENDBRANCH  21  25
ENDBRANCH  20  21
ENDBRANCH  19  20
ENDBRANCH  18  19
ENDBRANCH  17  18
ENDBRANCH   1  17
TORSDOF 9
ENDMDL
MODEL 5
REMARK VINA RESULT:      -5.9      3.356      6.423
REMARK  Name = 
REMARK  13 active torsions:
REMARK  status: ('A' for Active; 'I' for Inactive)
REMARK    1  A    between atoms: C_2  and  N_3
REMARK    2  A    between atoms: C_2  and  C_4
REMARK    3  A    between atoms: C_2  and  C_24
REMARK    4  A    between atoms: C_4  and  S_5
REMARK    5  A    between atoms: S_5  and  S_6
REMARK    6  A    between atoms: S_6  and  C_7
REMARK    7  A    between atoms: C_7  and  C_8
REMARK    8  A    between atoms: C_9  and  C_10
REMARK    9  A    between atoms: C_16  and  C_17
REMARK   10  A    between atoms: C_16  and  C_18
REMARK   11  A    between atoms: C_21  and  C_22
REMARK   12  A    between atoms: C_21  and  C_23
REMARK   13  A    between atoms: C_24  and  O_25
REMARK                            x       y       z     vdW  Elec       q    Type
REMARK                         _______ _______ _______ _____ _____    ______ ____
ROOT
ATOM      1  C   UNK     1       7.476  -1.617  23.817  0.00  0.00    +0.025 C 
ATOM      2  C   UNK     1       8.990  -1.566  23.765  0.00  0.00    +0.230 C 
ATOM      3  C   UNK     1       9.559  -1.319  22.370  0.00  0.00    +0.099 C 
ATOM      4  C   UNK     1       9.635  -0.669  24.821  0.00  0.00    +0.099 C 
ATOM      5  N   UNK     1       9.299  -2.973  24.161  0.00  0.00    +0.020 N 
ATOM      6  O   UNK     1      10.410  -3.463  24.028  0.00  0.00    +0.022 OA
ATOM      7  C   UNK     1       8.140  -3.727  24.727  0.00  0.00    +0.233 C 
ATOM      8  C   UNK     1       8.368  -3.805  26.235  0.00  0.00    +0.099 C 
ATOM      9  C   UNK     1       8.102  -5.106  24.075  0.00  0.00    +0.099 C 
ATOM     10  C   UNK     1       7.028  -2.786  24.323  0.00  0.00    +0.040 C 
ENDROOT
BRANCH  10  11
ATOM     11  C   UNK     1       5.615  -3.160  24.433  0.00  0.00    -0.015 A 
ATOM     12  C   UNK     1       5.002  -3.916  23.428  0.00  0.00    +0.008 A 
ATOM     13  C   UNK     1       3.673  -4.327  23.563  0.00  0.00    +0.001 A 
ATOM     14  C   UNK     1       2.947  -3.984  24.702  0.00  0.00    +0.000 A 
ATOM     15  C   UNK     1       3.550  -3.232  25.709  0.00  0.00    +0.001 A 
ATOM     16  C   UNK     1       4.879  -2.824  25.577  0.00  0.00    +0.008 A 
ENDBRANCH  10  11
BRANCH   1  17
ATOM     17  C   UNK     1       6.654  -0.529  23.202  0.00  0.00    +0.119 C 
BRANCH  17  18
ATOM     18  S   UNK     1       6.055   0.638  24.453  0.00  0.00    -0.088 S 
BRANCH  18  19
ATOM     19  S   UNK     1       6.017   2.386  23.362  0.00  0.00    -0.091 S 
BRANCH  19  20
ATOM     20  C   UNK     1       7.644   2.403  22.508  0.00  0.00    +0.111 C 
BRANCH  20  21
ATOM     21  C   UNK     1       8.762   3.148  23.241  0.00  0.00    +0.171 C 
BRANCH  21  22
ATOM     22  N   UNK     1       8.749   4.583  22.852  0.00  0.00    -0.318 NA
ATOM     23  H   UNK     1       9.318   4.690  22.009  0.00  0.00    +0.119 HD
ATOM     24  H   UNK     1       7.801   4.813  22.534  0.00  0.00    +0.119 HD
ENDBRANCH  21  22
BRANCH  21  25
ATOM     25  C   UNK     1      10.121   2.532  22.887  0.00  0.00    +0.323 C 
ATOM     26  O   UNK     1      11.020   2.362  23.703  0.00  0.00    -0.249 OA
BRANCH  25  27
ATOM     27  O   UNK     1      10.240   2.159  21.594  0.00  0.00    -0.480 OA
ATOM     28  H   UNK     1      11.008   2.559  21.135  0.00  0.00    +0.295 HD
ENDBRANCH  25  27
ENDBRANCH  21  25
ENDBRANCH  20  21
ENDBRANCH  19  20
ENDBRANCH  18  19
ENDBRANCH  17  18
ENDBRANCH   1  17
TORSDOF 9
ENDMDL
MODEL 6
REMARK VINA RESULT:      -5.9      2.536      6.690
REMARK  Name = 
REMARK  13 active torsions:
REMARK  status: ('A' for Active; 'I' for Inactive)
REMARK    1  A    between atoms: C_2  and  N_3
REMARK    2  A    between atoms: C_2  and  C_4
REMARK    3  A    between atoms: C_2  and  C_24
REMARK    4  A    between atoms: C_4  and  S_5
REMARK    5  A    between atoms: S_5  and  S_6
REMARK    6  A    between atoms: S_6  and  C_7
REMARK    7  A    between atoms: C_7  and  C_8
REMARK    8  A    between atoms: C_9  and  C_10
REMARK    9  A    between atoms: C_16  and  C_17
REMARK   10  A    between atoms: C_16  and  C_18
REMARK   11  A    between atoms: C_21  and  C_22
REMARK   12  A    between atoms: C_21  and  C_23
REMARK   13  A    between atoms: C_24  and  O_25
REMARK                            x       y       z     vdW  Elec       q    Type
REMARK                         _______ _______ _______ _____ _____    ______ ____
ROOT
ATOM      1  C   UNK     1       6.272  -2.913  24.980  0.00  0.00    +0.025 C 
ATOM      2  C   UNK     1       5.197  -3.925  25.325  0.00  0.00    +0.230 C 
ATOM      3  C   UNK     1       5.294  -4.477  26.746  0.00  0.00    +0.099 C 
ATOM      4  C   UNK     1       3.776  -3.495  24.966  0.00  0.00    +0.099 C 
ATOM      5  N   UNK     1       5.565  -5.012  24.369  0.00  0.00    +0.020 N 
ATOM      6  O   UNK     1       5.107  -6.141  24.452  0.00  0.00    +0.022 OA
ATOM      7  C   UNK     1       6.537  -4.605  23.310  0.00  0.00    +0.233 C 
ATOM      8  C   UNK     1       5.735  -4.454  22.020  0.00  0.00    +0.099 C 
ATOM      9  C   UNK     1       7.609  -5.686  23.203  0.00  0.00    +0.099 C 
ATOM     10  C   UNK     1       6.994  -3.292  23.904  0.00  0.00    +0.040 C 
ENDROOT
BRANCH  10  11
ATOM     11  C   UNK     1       8.146  -2.558  23.372  0.00  0.00    -0.015 A 
ATOM     12  C   UNK     1       9.412  -2.712  23.949  0.00  0.00    +0.008 A 
ATOM     13  C   UNK     1      10.522  -2.061  23.403  0.00  0.00    +0.001 A 
ATOM     14  C   UNK     1      10.375  -1.252  22.278  0.00  0.00    +0.000 A 
ATOM     15  C   UNK     1       9.118  -1.094  21.696  0.00  0.00    +0.001 A 
ATOM     16  C   UNK     1       8.009  -1.747  22.238  0.00  0.00    +0.008 A 
ENDBRANCH  10  11
BRANCH   1  17
ATOM     17  C   UNK     1       6.540  -1.748  25.879  0.00  0.00    +0.119 C 
BRANCH  17  18
ATOM     18  S   UNK     1       5.983  -0.192  25.132  0.00  0.00    -0.088 S 
BRANCH  18  19
ATOM     19  S   UNK     1       7.763   0.840  25.022  0.00  0.00    -0.091 S 
BRANCH  19  20
ATOM     20  C   UNK     1       7.609   1.813  23.470  0.00  0.00    +0.111 C 
BRANCH  20  21
ATOM     21  C   UNK     1       8.588   2.980  23.327  0.00  0.00    +0.171 C 
BRANCH  21  22
ATOM     22  N   UNK     1       8.118   3.902  22.259  0.00  0.00    -0.318 NA
ATOM     23  H   UNK     1       8.844   4.605  22.103  0.00  0.00    +0.119 HD
ATOM     24  H   UNK     1       8.099   3.377  21.378  0.00  0.00    +0.119 HD
ENDBRANCH  21  22
BRANCH  21  25
ATOM     25  C   UNK     1       9.983   2.454  22.975  0.00  0.00    +0.323 C 
ATOM     26  O   UNK     1      10.832   2.173  23.813  0.00  0.00    -0.249 OA
BRANCH  25  27
ATOM     27  O   UNK     1      10.196   2.293  21.651  0.00  0.00    -0.480 OA
ATOM     28  H   UNK     1      10.356   3.131  21.169  0.00  0.00    +0.295 HD
ENDBRANCH  25  27
ENDBRANCH  21  25
ENDBRANCH  20  21
ENDBRANCH  19  20
ENDBRANCH  18  19
ENDBRANCH  17  18
ENDBRANCH   1  17
TORSDOF 9
ENDMDL
MODEL 7
REMARK VINA RESULT:      -5.8      2.803      6.884
REMARK  Name = 
REMARK  13 active torsions:
REMARK  status: ('A' for Active; 'I' for Inactive)
REMARK    1  A    between atoms: C_2  and  N_3
REMARK    2  A    between atoms: C_2  and  C_4
REMARK    3  A    between atoms: C_2  and  C_24
REMARK    4  A    between atoms: C_4  and  S_5
REMARK    5  A    between atoms: S_5  and  S_6
REMARK    6  A    between atoms: S_6  and  C_7
REMARK    7  A    between atoms: C_7  and  C_8
REMARK    8  A    between atoms: C_9  and  C_10
REMARK    9  A    between atoms: C_16  and  C_17
REMARK   10  A    between atoms: C_16  and  C_18
REMARK   11  A    between atoms: C_21  and  C_22
REMARK   12  A    between atoms: C_21  and  C_23
REMARK   13  A    between atoms: C_24  and  O_25
REMARK                            x       y       z     vdW  Elec       q    Type
REMARK                         _______ _______ _______ _____ _____    ______ ____
ROOT
ATOM      1  C   UNK     1       6.492  -4.600  24.774  0.00  0.00    +0.025 C 
ATOM      2  C   UNK     1       7.630  -4.657  25.774  0.00  0.00    +0.230 C 
ATOM      3  C   UNK     1       8.808  -5.521  25.329  0.00  0.00    +0.099 C 
ATOM      4  C   UNK     1       8.078  -3.298  26.309  0.00  0.00    +0.099 C 
ATOM      5  N   UNK     1       6.935  -5.347  26.901  0.00  0.00    +0.020 N 
ATOM      6  O   UNK     1       7.538  -5.821  27.852  0.00  0.00    +0.022 OA
ATOM      7  C   UNK     1       5.449  -5.413  26.767  0.00  0.00    +0.233 C 
ATOM      8  C   UNK     1       4.879  -4.380  27.737  0.00  0.00    +0.099 C 
ATOM      9  C   UNK     1       4.999  -6.831  27.103  0.00  0.00    +0.099 C 
ATOM     10  C   UNK     1       5.326  -5.019  25.312  0.00  0.00    +0.040 C 
ENDROOT
BRANCH  10  11
ATOM     11  C   UNK     1       4.066  -5.145  24.576  0.00  0.00    -0.015 A 
ATOM     12  C   UNK     1       3.872  -6.201  23.678  0.00  0.00    +0.008 A 
ATOM     13  C   UNK     1       2.647  -6.358  23.023  0.00  0.00    +0.001 A 
ATOM     14  C   UNK     1       1.608  -5.460  23.262  0.00  0.00    +0.000 A 
ATOM     15  C   UNK     1       1.791  -4.406  24.155  0.00  0.00    +0.001 A 
ATOM     16  C   UNK     1       3.014  -4.251  24.812  0.00  0.00    +0.008 A 
ENDBRANCH  10  11
BRANCH   1  17
ATOM     17  C   UNK     1       6.753  -4.270  23.339  0.00  0.00    +0.119 C 
BRANCH  17  18
ATOM     18  S   UNK     1       6.675  -2.482  23.044  0.00  0.00    -0.088 S 
BRANCH  18  19
ATOM     19  S   UNK     1       8.653  -2.073  22.635  0.00  0.00    -0.091 S 
BRANCH  19  20
ATOM     20  C   UNK     1       8.931  -0.433  23.416  0.00  0.00    +0.111 C 
BRANCH  20  21
ATOM     21  C   UNK     1      10.116   0.363  22.864  0.00  0.00    +0.171 C 
BRANCH  21  22
ATOM     22  N   UNK     1      10.818   1.054  23.978  0.00  0.00    -0.318 NA
ATOM     23  H   UNK     1      11.711   1.404  23.623  0.00  0.00    +0.119 HD
ATOM     24  H   UNK     1      10.295   1.908  24.198  0.00  0.00    +0.119 HD
ENDBRANCH  21  22
BRANCH  21  25
ATOM     25  C   UNK     1       9.624   1.398  21.847  0.00  0.00    +0.323 C 
ATOM     26  O   UNK     1       8.571   1.293  21.229  0.00  0.00    -0.249 OA
BRANCH  25  27
ATOM     27  O   UNK     1      10.439   2.466  21.705  0.00  0.00    -0.480 OA
ATOM     28  H   UNK     1      10.299   3.166  22.377  0.00  0.00    +0.295 HD
ENDBRANCH  25  27
ENDBRANCH  21  25
ENDBRANCH  20  21
ENDBRANCH  19  20
ENDBRANCH  18  19
ENDBRANCH  17  18
ENDBRANCH   1  17
TORSDOF 9
ENDMDL
MODEL 8
REMARK VINA RESULT:      -5.7      3.503      7.690
REMARK  Name = 
REMARK  13 active torsions:
REMARK  status: ('A' for Active; 'I' for Inactive)
REMARK    1  A    between atoms: C_2  and  N_3
REMARK    2  A    between atoms: C_2  and  C_4
REMARK    3  A    between atoms: C_2  and  C_24
REMARK    4  A    between atoms: C_4  and  S_5
REMARK    5  A    between atoms: S_5  and  S_6
REMARK    6  A    between atoms: S_6  and  C_7
REMARK    7  A    between atoms: C_7  and  C_8
REMARK    8  A    between atoms: C_9  and  C_10
REMARK    9  A    between atoms: C_16  and  C_17
REMARK   10  A    between atoms: C_16  and  C_18
REMARK   11  A    between atoms: C_21  and  C_22
REMARK   12  A    between atoms: C_21  and  C_23
REMARK   13  A    between atoms: C_24  and  O_25
REMARK                            x       y       z     vdW  Elec       q    Type
REMARK                         _______ _______ _______ _____ _____    ______ ____
ROOT
ATOM      1  C   UNK     1       7.011  -0.882  25.009  0.00  0.00    +0.025 C 
ATOM      2  C   UNK     1       6.452  -2.252  25.339  0.00  0.00    +0.230 C 
ATOM      3  C   UNK     1       6.469  -2.592  26.828  0.00  0.00    +0.099 C 
ATOM      4  C   UNK     1       5.106  -2.566  24.688  0.00  0.00    +0.099 C 
ATOM      5  N   UNK     1       7.465  -3.105  24.647  0.00  0.00    +0.020 N 
ATOM      6  O   UNK     1       7.551  -4.308  24.840  0.00  0.00    +0.022 OA
ATOM      7  C   UNK     1       8.361  -2.366  23.708  0.00  0.00    +0.233 C 
ATOM      8  C   UNK     1       7.882  -2.702  22.297  0.00  0.00    +0.099 C 
ATOM      9  C   UNK     1       9.796  -2.823  23.955  0.00  0.00    +0.099 C 
ATOM     10  C   UNK     1       8.044  -0.953  24.142  0.00  0.00    +0.040 C 
ENDROOT
BRANCH  10  11
ATOM     11  C   UNK     1       8.834   0.195  23.690  0.00  0.00    -0.015 A 
ATOM     12  C   UNK     1       9.813   0.751  24.521  0.00  0.00    +0.008 A 
ATOM     13  C   UNK     1      10.611   1.806  24.066  0.00  0.00    +0.001 A 
ATOM     14  C   UNK     1      10.434   2.311  22.779  0.00  0.00    +0.000 A 
ATOM     15  C   UNK     1       9.462   1.762  21.945  0.00  0.00    +0.001 A 
ATOM     16  C   UNK     1       8.667   0.706  22.397  0.00  0.00    +0.008 A 
ENDBRANCH  10  11
BRANCH   1  17
ATOM     17  C   UNK     1       6.528   0.333  25.735  0.00  0.00    +0.119 C 
BRANCH  17  18
ATOM     18  S   UNK     1       5.607   1.441  24.634  0.00  0.00    -0.088 S 
BRANCH  18  19
ATOM     19  S   UNK     1       6.160   3.278  25.384  0.00  0.00    -0.091 S 
BRANCH  19  20
ATOM     20  C   UNK     1       7.349   3.920  24.139  0.00  0.00    +0.111 C 
BRANCH  20  21
ATOM     21  C   UNK     1       6.727   4.705  22.982  0.00  0.00    +0.171 C 
BRANCH  21  22
ATOM     22  N   UNK     1       6.406   3.780  21.862  0.00  0.00    -0.318 NA
ATOM     23  H   UNK     1       7.235   3.699  21.268  0.00  0.00    +0.119 HD
ATOM     24  H   UNK     1       6.298   2.838  22.254  0.00  0.00    +0.119 HD
ENDBRANCH  21  22
BRANCH  21  25
ATOM     25  C   UNK     1       7.703   5.782  22.495  0.00  0.00    +0.323 C 
ATOM     26  O   UNK     1       8.646   6.192  23.161  0.00  0.00    -0.249 OA
BRANCH  25  27
ATOM     27  O   UNK     1       7.456   6.227  21.243  0.00  0.00    -0.480 OA
ATOM     28  H   UNK     1       7.608   5.556  20.545  0.00  0.00    +0.295 HD
ENDBRANCH  25  27
ENDBRANCH  21  25
ENDBRANCH  20  21
ENDBRANCH  19  20
ENDBRANCH  18  19
ENDBRANCH  17  18
ENDBRANCH   1  17
TORSDOF 9
ENDMDL
MODEL 9
REMARK VINA RESULT:      -5.6      3.219      5.582
REMARK  Name = 
REMARK  13 active torsions:
REMARK  status: ('A' for Active; 'I' for Inactive)
REMARK    1  A    between atoms: C_2  and  N_3
REMARK    2  A    between atoms: C_2  and  C_4
REMARK    3  A    between atoms: C_2  and  C_24
REMARK    4  A    between atoms: C_4  and  S_5
REMARK    5  A    between atoms: S_5  and  S_6
REMARK    6  A    between atoms: S_6  and  C_7
REMARK    7  A    between atoms: C_7  and  C_8
REMARK    8  A    between atoms: C_9  and  C_10
REMARK    9  A    between atoms: C_16  and  C_17
REMARK   10  A    between atoms: C_16  and  C_18
REMARK   11  A    between atoms: C_21  and  C_22
REMARK   12  A    between atoms: C_21  and  C_23
REMARK   13  A    between atoms: C_24  and  O_25
REMARK                            x       y       z     vdW  Elec       q    Type
REMARK                         _______ _______ _______ _____ _____    ______ ____
ROOT
ATOM      1  C   UNK     1       8.498   0.963  24.278  0.00  0.00    +0.025 C 
ATOM      2  C   UNK     1       9.806   1.221  23.557  0.00  0.00    +0.230 C 
ATOM      3  C   UNK     1      11.038   0.706  24.297  0.00  0.00    +0.099 C 
ATOM      4  C   UNK     1       9.809   0.828  22.081  0.00  0.00    +0.099 C 
ATOM      5  N   UNK     1       9.819   2.714  23.597  0.00  0.00    +0.020 N 
ATOM      6  O   UNK     1      10.816   3.369  23.334  0.00  0.00    +0.022 OA
ATOM      7  C   UNK     1       8.518   3.336  23.988  0.00  0.00    +0.233 C 
ATOM      8  C   UNK     1       7.903   3.896  22.708  0.00  0.00    +0.099 C 
ATOM      9  C   UNK     1       8.799   4.425  25.019  0.00  0.00    +0.099 C 
ATOM     10  C   UNK     1       7.818   2.105  24.516  0.00  0.00    +0.040 C 
ENDROOT
BRANCH  10  11
ATOM     11  C   UNK     1       6.556   2.186  25.257  0.00  0.00    -0.015 A 
ATOM     12  C   UNK     1       5.337   2.258  24.574  0.00  0.00    +0.008 A 
ATOM     13  C   UNK     1       4.130   2.271  25.279  0.00  0.00    +0.001 A 
ATOM     14  C   UNK     1       4.134   2.212  26.672  0.00  0.00    +0.000 A 
ATOM     15  C   UNK     1       5.344   2.139  27.360  0.00  0.00    +0.001 A 
ATOM     16  C   UNK     1       6.550   2.122  26.656  0.00  0.00    +0.008 A 
ENDBRANCH  10  11
BRANCH   1  17
ATOM     17  C   UNK     1       8.160  -0.406  24.779  0.00  0.00    +0.119 C 
BRANCH  17  18
ATOM     18  S   UNK     1       7.062  -1.280  23.631  0.00  0.00    -0.088 S 
BRANCH  18  19
ATOM     19  S   UNK     1       6.253  -2.704  24.882  0.00  0.00    -0.091 S 
BRANCH  19  20
ATOM     20  C   UNK     1       7.657  -3.182  25.967  0.00  0.00    +0.111 C 
BRANCH  20  21
ATOM     21  C   UNK     1       8.169  -4.613  25.785  0.00  0.00    +0.171 C 
BRANCH  21  22
ATOM     22  N   UNK     1       8.304  -5.270  27.111  0.00  0.00    -0.318 NA
ATOM     23  H   UNK     1       7.478  -5.038  27.668  0.00  0.00    +0.119 HD
ATOM     24  H   UNK     1       8.222  -6.282  26.970  0.00  0.00    +0.119 HD
ENDBRANCH  21  22
BRANCH  21  25
ATOM     25  C   UNK     1       9.529  -4.597  25.078  0.00  0.00    +0.323 C 
ATOM     26  O   UNK     1       9.889  -3.702  24.322  0.00  0.00    -0.249 OA
BRANCH  25  27
ATOM     27  O   UNK     1      10.323  -5.647  25.381  0.00  0.00    -0.480 OA
ATOM     28  H   UNK     1      10.552  -5.710  26.332  0.00  0.00    +0.295 HD
ENDBRANCH  25  27
ENDBRANCH  21  25
ENDBRANCH  20  21
ENDBRANCH  19  20
ENDBRANCH  18  19
ENDBRANCH  17  18
ENDBRANCH   1  17
TORSDOF 9
ENDMDL
