MODEL 1
REMARK VINA RESULT:      -4.4      0.000      0.000
REMARK  Name = 
REMARK  7 active torsions:
REMARK  status: ('A' for Active; 'I' for Inactive)
REMARK    1  A    between atoms: C_1  and  O_2
REMARK    2  A    between atoms: O_2  and  C_3
REMARK    3  A    between atoms: C_6  and  C_8
REMARK    4  A    between atoms: C_8  and  O_9
REMARK    5  A    between atoms: C_10  and  S_12
REMARK    6  A    between atoms: C_13  and  O_15
REMARK    7  A    between atoms: C_16  and  O_18
REMARK                            x       y       z     vdW  Elec       q    Type
REMARK                         _______ _______ _______ _____ _____    ______ ____
ROOT
ATOM      1  C   UNL     1       7.143  -4.065  23.569  0.00  0.00    +0.281 C 
ATOM      2  C   UNL     1       8.583  -3.503  23.519  0.00  0.00    +0.200 C 
ATOM      3  C   UNL     1       9.343  -3.829  24.816  0.00  0.00    +0.163 C 
ATOM      4  C   UNL     1       8.537  -3.474  26.074  0.00  0.00    +0.105 C 
ATOM      5  C   UNL     1       7.109  -4.043  26.016  0.00  0.00    +0.162 C 
ATOM      6  O   UNL     1       6.439  -3.759  24.777  0.00  0.00    -0.342 OA
ENDROOT
BRANCH   1   8
ATOM      7  C   UNL     1       7.168  -5.793  21.960  0.00  0.00    +0.197 C 
ATOM      8  O   UNL     1       7.195  -5.478  23.349  0.00  0.00    -0.352 OA
ENDBRANCH   1   8
BRANCH   2   9
ATOM      9  O   UNL     1       8.583  -2.102  23.222  0.00  0.00    -0.384 OA
ATOM     10  H   UNL     1       7.846  -1.673  23.702  0.00  0.00    +0.210 HD
ENDBRANCH   2   9
BRANCH   3  11
ATOM     11  O   UNL     1       9.710  -5.217  24.876  0.00  0.00    -0.388 OA
ATOM     12  H   UNL     1       9.765  -5.489  25.814  0.00  0.00    +0.210 HD
ENDBRANCH   3  11
BRANCH   4  13
ATOM     13  S   UNL     1       8.488  -1.641  26.313  0.00  0.00    -0.170 S 
ATOM     14  H   UNL     1       7.861  -1.643  27.500  0.00  0.00    +0.102 HD
ENDBRANCH   4  13
BRANCH   5  15
ATOM     15  C   UNL     1       7.060  -5.540  26.390  0.00  0.00    +0.188 C 
BRANCH  15  16
ATOM     16  O   UNL     1       8.030  -5.829  27.399  0.00  0.00    -0.392 OA
ATOM     17  H   UNL     1       8.564  -5.022  27.508  0.00  0.00    +0.210 HD
ENDBRANCH  15  16
ENDBRANCH   5  15
TORSDOF 6
ENDMDL
MODEL 2
REMARK VINA RESULT:      -4.3      4.999      6.708
REMARK  Name = 
REMARK  7 active torsions:
REMARK  status: ('A' for Active; 'I' for Inactive)
REMARK    1  A    between atoms: C_1  and  O_2
REMARK    2  A    between atoms: O_2  and  C_3
REMARK    3  A    between atoms: C_6  and  C_8
REMARK    4  A    between atoms: C_8  and  O_9
REMARK    5  A    between atoms: C_10  and  S_12
REMARK    6  A    between atoms: C_13  and  O_15
REMARK    7  A    between atoms: C_16  and  O_18
REMARK                            x       y       z     vdW  Elec       q    Type
REMARK                         _______ _______ _______ _____ _____    ______ ____
ROOT
ATOM      1  C   UNL     1       8.802   0.080  23.660  0.00  0.00    +0.281 C 
ATOM      2  C   UNL     1       7.778   0.506  22.582  0.00  0.00    +0.200 C 
ATOM      3  C   UNL     1       8.083   1.921  22.065  0.00  0.00    +0.163 C 
ATOM      4  C   UNL     1       8.302   2.928  23.204  0.00  0.00    +0.105 C 
ATOM      5  C   UNL     1       9.307   2.403  24.244  0.00  0.00    +0.162 C 
ATOM      6  O   UNL     1       9.020   1.063  24.678  0.00  0.00    -0.342 OA
ENDROOT
BRANCH   1   8
ATOM      7  C   UNL     1       9.888  -1.447  22.223  0.00  0.00    +0.197 C 
ATOM      8  O   UNL     1      10.029  -0.270  23.013  0.00  0.00    -0.352 OA
ENDBRANCH   1   8
BRANCH   2   9
ATOM      9  O   UNL     1       6.434   0.377  23.064  0.00  0.00    -0.384 OA
ATOM     10  H   UNL     1       6.190   1.190  23.549  0.00  0.00    +0.210 HD
ENDBRANCH   2   9
BRANCH   3  11
ATOM     11  O   UNL     1       9.236   1.931  21.208  0.00  0.00    -0.388 OA
ATOM     12  H   UNL     1       8.987   1.557  20.339  0.00  0.00    +0.210 HD
ENDBRANCH   3  11
BRANCH   4  13
ATOM     13  S   UNL     1       6.694   3.343  24.017  0.00  0.00    -0.170 S 
ATOM     14  H   UNL     1       5.892   2.781  23.099  0.00  0.00    +0.102 HD
ENDBRANCH   4  13
BRANCH   5  15
ATOM     15  C   UNL     1      10.770   2.580  23.785  0.00  0.00    +0.188 C 
BRANCH  15  16
ATOM     16  O   UNL     1      10.895   3.751  22.975  0.00  0.00    -0.392 OA
ATOM     17  H   UNL     1      11.848   3.945  22.915  0.00  0.00    +0.210 HD
ENDBRANCH  15  16
ENDBRANCH   5  15
TORSDOF 6
ENDMDL
MODEL 3
REMARK VINA RESULT:      -4.3      2.721      3.135
REMARK  Name = 
REMARK  7 active torsions:
REMARK  status: ('A' for Active; 'I' for Inactive)
REMARK    1  A    between atoms: C_1  and  O_2
REMARK    2  A    between atoms: O_2  and  C_3
REMARK    3  A    between atoms: C_6  and  C_8
REMARK    4  A    between atoms: C_8  and  O_9
REMARK    5  A    between atoms: C_10  and  S_12
REMARK    6  A    between atoms: C_13  and  O_15
REMARK    7  A    between atoms: C_16  and  O_18
REMARK                            x       y       z     vdW  Elec       q    Type
REMARK                         _______ _______ _______ _____ _____    ______ ____
ROOT
ATOM      1  C   UNL     1       7.874  -1.633  22.350  0.00  0.00    +0.281 C 
ATOM      2  C   UNL     1       9.392  -1.811  22.107  0.00  0.00    +0.200 C 
ATOM      3  C   UNL     1      10.141  -1.987  23.438  0.00  0.00    +0.163 C 
ATOM      4  C   UNL     1       9.757  -0.920  24.474  0.00  0.00    +0.105 C 
ATOM      5  C   UNL     1       8.231  -0.790  24.619  0.00  0.00    +0.162 C 
ATOM      6  O   UNL     1       7.553  -0.669  23.357  0.00  0.00    -0.342 OA
ENDROOT
BRANCH   1   8
ATOM      7  C   UNL     1       5.947  -2.995  22.250  0.00  0.00    +0.197 C 
ATOM      8  O   UNL     1       7.308  -2.910  22.661  0.00  0.00    -0.352 OA
ENDBRANCH   1   8
BRANCH   2   9
ATOM      9  O   UNL     1       9.920  -0.738  21.319  0.00  0.00    -0.384 OA
ATOM     10  H   UNL     1      10.306  -0.064  21.914  0.00  0.00    +0.210 HD
ENDBRANCH   2   9
BRANCH   3  11
ATOM     11  O   UNL     1       9.913  -3.288  24.004  0.00  0.00    -0.388 OA
ATOM     12  H   UNL     1      10.285  -3.964  23.402  0.00  0.00    +0.210 HD
ENDBRANCH   3  11
BRANCH   4  13
ATOM     13  S   UNL     1      10.501   0.712  24.027  0.00  0.00    -0.170 S 
ATOM     14  H   UNL     1      11.207   0.290  22.967  0.00  0.00    +0.102 HD
ENDBRANCH   4  13
BRANCH   5  15
ATOM     15  C   UNL     1       7.631  -1.896  25.514  0.00  0.00    +0.188 C 
BRANCH  15  16
ATOM     16  O   UNL     1       8.560  -2.260  26.538  0.00  0.00    -0.392 OA
ATOM     17  H   UNL     1       8.295  -1.771  27.337  0.00  0.00    +0.210 HD
ENDBRANCH  15  16
ENDBRANCH   5  15
TORSDOF 6
ENDMDL
MODEL 4
REMARK VINA RESULT:      -4.3      4.294      5.323
REMARK  Name = 
REMARK  7 active torsions:
REMARK  status: ('A' for Active; 'I' for Inactive)
REMARK    1  A    between atoms: C_1  and  O_2
REMARK    2  A    between atoms: O_2  and  C_3
REMARK    3  A    between atoms: C_6  and  C_8
REMARK    4  A    between atoms: C_8  and  O_9
REMARK    5  A    between atoms: C_10  and  S_12
REMARK    6  A    between atoms: C_13  and  O_15
REMARK    7  A    between atoms: C_16  and  O_18
REMARK                            x       y       z     vdW  Elec       q    Type
REMARK                         _______ _______ _______ _____ _____    ______ ____
ROOT
ATOM      1  C   UNL     1       8.951   0.195  22.338  0.00  0.00    +0.281 C 
ATOM      2  C   UNL     1      10.168   1.143  22.444  0.00  0.00    +0.200 C 
ATOM      3  C   UNL     1      10.405   1.569  23.902  0.00  0.00    +0.163 C 
ATOM      4  C   UNL     1       9.121   2.062  24.586  0.00  0.00    +0.105 C 
ATOM      5  C   UNL     1       7.958   1.073  24.395  0.00  0.00    +0.162 C 
ATOM      6  O   UNL     1       7.787   0.660  23.029  0.00  0.00    -0.342 OA
ENDROOT
BRANCH   1   8
ATOM      7  C   UNL     1       8.501  -2.122  22.266  0.00  0.00    +0.197 C 
ATOM      8  O   UNL     1       9.339  -1.102  22.801  0.00  0.00    -0.352 OA
ENDBRANCH   1   8
BRANCH   2   9
ATOM      9  O   UNL     1      10.032   2.264  21.561  0.00  0.00    -0.384 OA
ATOM     10  H   UNL     1      10.178   3.088  22.067  0.00  0.00    +0.210 HD
ENDBRANCH   2   9
BRANCH   3  11
ATOM     11  O   UNL     1      10.964   0.498  24.680  0.00  0.00    -0.388 OA
ATOM     12  H   UNL     1      10.432   0.387  25.493  0.00  0.00    +0.210 HD
ENDBRANCH   3  11
BRANCH   4  13
ATOM     13  S   UNL     1       8.652   3.734  23.951  0.00  0.00    -0.170 S 
ATOM     14  H   UNL     1       9.669   4.414  24.503  0.00  0.00    +0.102 HD
ENDBRANCH   4  13
BRANCH   5  15
ATOM     15  C   UNL     1       8.038  -0.120  25.372  0.00  0.00    +0.188 C 
BRANCH  15  16
ATOM     16  O   UNL     1       8.652   0.286  26.597  0.00  0.00    -0.392 OA
ATOM     17  H   UNL     1       9.424  -0.295  26.725  0.00  0.00    +0.210 HD
ENDBRANCH  15  16
ENDBRANCH   5  15
TORSDOF 6
ENDMDL
MODEL 5
REMARK VINA RESULT:      -4.3      4.289      6.269
REMARK  Name = 
REMARK  7 active torsions:
REMARK  status: ('A' for Active; 'I' for Inactive)
REMARK    1  A    between atoms: C_1  and  O_2
REMARK    2  A    between atoms: O_2  and  C_3
REMARK    3  A    between atoms: C_6  and  C_8
REMARK    4  A    between atoms: C_8  and  O_9
REMARK    5  A    between atoms: C_10  and  S_12
REMARK    6  A    between atoms: C_13  and  O_15
REMARK    7  A    between atoms: C_16  and  O_18
REMARK                            x       y       z     vdW  Elec       q    Type
REMARK                         _______ _______ _______ _____ _____    ______ ____
ROOT
ATOM      1  C   UNL     1      10.015  -0.036  24.789  0.00  0.00    +0.281 C 
ATOM      2  C   UNL     1       8.511  -0.026  25.153  0.00  0.00    +0.200 C 
ATOM      3  C   UNL     1       7.710   0.812  24.144  0.00  0.00    +0.163 C 
ATOM      4  C   UNL     1       8.340   2.190  23.893  0.00  0.00    +0.105 C 
ATOM      5  C   UNL     1       9.841   2.082  23.575  0.00  0.00    +0.162 C 
ATOM      6  O   UNL     1      10.557   1.258  24.511  0.00  0.00    -0.342 OA
ENDROOT
BRANCH   1   8
ATOM      7  C   UNL     1       9.841  -2.260  24.011  0.00  0.00    +0.197 C 
ATOM      8  O   UNL     1      10.211  -0.924  23.684  0.00  0.00    -0.352 OA
ENDBRANCH   1   8
BRANCH   2   9
ATOM      9  O   UNL     1       8.309   0.404  26.505  0.00  0.00    -0.384 OA
ATOM     10  H   UNL     1       8.767   1.258  26.641  0.00  0.00    +0.210 HD
ENDBRANCH   2   9
BRANCH   3  11
ATOM     11  O   UNL     1       7.568   0.130  22.887  0.00  0.00    -0.388 OA
ATOM     12  H   UNL     1       6.863   0.566  22.369  0.00  0.00    +0.210 HD
ENDBRANCH   3  11
BRANCH   4  13
ATOM     13  S   UNL     1       8.071   3.299  25.348  0.00  0.00    -0.170 S 
ATOM     14  H   UNL     1       8.770   2.578  26.239  0.00  0.00    +0.102 HD
ENDBRANCH   4  13
BRANCH   5  15
ATOM     15  C   UNL     1      10.101   1.678  22.107  0.00  0.00    +0.188 C 
BRANCH  15  16
ATOM     16  O   UNL     1       9.041   2.147  21.272  0.00  0.00    -0.392 OA
ATOM     17  H   UNL     1       8.805   3.035  21.596  0.00  0.00    +0.210 HD
ENDBRANCH  15  16
ENDBRANCH   5  15
TORSDOF 6
ENDMDL
MODEL 6
REMARK VINA RESULT:      -4.2      3.676      5.555
REMARK  Name = 
REMARK  7 active torsions:
REMARK  status: ('A' for Active; 'I' for Inactive)
REMARK    1  A    between atoms: C_1  and  O_2
REMARK    2  A    between atoms: O_2  and  C_3
REMARK    3  A    between atoms: C_6  and  C_8
REMARK    4  A    between atoms: C_8  and  O_9
REMARK    5  A    between atoms: C_10  and  S_12
REMARK    6  A    between atoms: C_13  and  O_15
REMARK    7  A    between atoms: C_16  and  O_18
REMARK                            x       y       z     vdW  Elec       q    Type
REMARK                         _______ _______ _______ _____ _____    ______ ____
ROOT
ATOM      1  C   UNL     1       9.184  -0.739  24.598  0.00  0.00    +0.281 C 
ATOM      2  C   UNL     1       8.031   0.220  24.977  0.00  0.00    +0.200 C 
ATOM      3  C   UNL     1       7.506   0.962  23.737  0.00  0.00    +0.163 C 
ATOM      4  C   UNL     1       8.636   1.583  22.902  0.00  0.00    +0.105 C 
ATOM      5  C   UNL     1       9.751   0.566  22.606  0.00  0.00    +0.162 C 
ATOM      6  O   UNL     1      10.193  -0.142  23.776  0.00  0.00    -0.342 OA
ENDROOT
BRANCH   1   8
ATOM      7  C   UNL     1       9.302  -3.086  24.367  0.00  0.00    +0.197 C 
ATOM      8  O   UNL     1       8.627  -1.897  23.968  0.00  0.00    -0.352 OA
ENDBRANCH   1   8
BRANCH   2   9
ATOM      9  O   UNL     1       8.425   1.115  26.025  0.00  0.00    -0.384 OA
ATOM     10  H   UNL     1       8.774   0.594  26.776  0.00  0.00    +0.210 HD
ENDBRANCH   2   9
BRANCH   3  11
ATOM     11  O   UNL     1       6.727   0.096  22.896  0.00  0.00    -0.388 OA
ATOM     12  H   UNL     1       7.139  -0.791  22.889  0.00  0.00    +0.210 HD
ENDBRANCH   3  11
BRANCH   4  13
ATOM     13  S   UNL     1       9.331   3.067  23.757  0.00  0.00    -0.170 S 
ATOM     14  H   UNL     1       9.527   2.494  24.955  0.00  0.00    +0.102 HD
ENDBRANCH   4  13
BRANCH   5  15
ATOM     15  C   UNL     1       9.388  -0.379  21.440  0.00  0.00    +0.188 C 
BRANCH  15  16
ATOM     16  O   UNL     1      10.263  -1.509  21.430  0.00  0.00    -0.392 OA
ATOM     17  H   UNL     1       9.787  -2.232  21.877  0.00  0.00    +0.210 HD
ENDBRANCH  15  16
ENDBRANCH   5  15
TORSDOF 6
ENDMDL
MODEL 7
REMARK VINA RESULT:      -4.2      3.308      4.576
REMARK  Name = 
REMARK  7 active torsions:
REMARK  status: ('A' for Active; 'I' for Inactive)
REMARK    1  A    between atoms: C_1  and  O_2
REMARK    2  A    between atoms: O_2  and  C_3
REMARK    3  A    between atoms: C_6  and  C_8
REMARK    4  A    between atoms: C_8  and  O_9
REMARK    5  A    between atoms: C_10  and  S_12
REMARK    6  A    between atoms: C_13  and  O_15
REMARK    7  A    between atoms: C_16  and  O_18
REMARK                            x       y       z     vdW  Elec       q    Type
REMARK                         _______ _______ _______ _____ _____    ______ ____
ROOT
ATOM      1  C   UNL     1       9.028  -2.137  23.435  0.00  0.00    +0.281 C 
ATOM      2  C   UNL     1      10.258  -1.405  22.848  0.00  0.00    +0.200 C 
ATOM      3  C   UNL     1      10.363   0.023  23.408  0.00  0.00    +0.163 C 
ATOM      4  C   UNL     1       9.033   0.787  23.320  0.00  0.00    +0.105 C 
ATOM      5  C   UNL     1       7.865  -0.033  23.893  0.00  0.00    +0.162 C 
ATOM      6  O   UNL     1       7.817  -1.377  23.384  0.00  0.00    -0.342 OA
ENDROOT
BRANCH   1   8
ATOM      7  C   UNL     1       9.064  -3.919  24.985  0.00  0.00    +0.197 C 
ATOM      8  O   UNL     1       9.329  -2.535  24.776  0.00  0.00    -0.352 OA
ENDBRANCH   1   8
BRANCH   2   9
ATOM      9  O   UNL     1      10.243  -1.432  21.416  0.00  0.00    -0.384 OA
ATOM     10  H   UNL     1      11.070  -1.845  21.095  0.00  0.00    +0.210 HD
ENDBRANCH   2   9
BRANCH   3  11
ATOM     11  O   UNL     1      10.809   0.022  24.774  0.00  0.00    -0.388 OA
ATOM     12  H   UNL     1      11.332   0.833  24.935  0.00  0.00    +0.210 HD
ENDBRANCH   3  11
BRANCH   4  13
ATOM     13  S   UNL     1       8.680   1.271  21.571  0.00  0.00    -0.170 S 
ATOM     14  H   UNL     1       7.383   0.925  21.559  0.00  0.00    +0.102 HD
ENDBRANCH   4  13
BRANCH   5  15
ATOM     15  C   UNL     1       7.812   0.021  25.435  0.00  0.00    +0.188 C 
BRANCH  15  16
ATOM     16  O   UNL     1       8.324   1.271  25.902  0.00  0.00    -0.392 OA
ATOM     17  H   UNL     1       9.078   1.062  26.481  0.00  0.00    +0.210 HD
ENDBRANCH  15  16
ENDBRANCH   5  15
TORSDOF 6
ENDMDL
MODEL 8
REMARK VINA RESULT:      -4.1      2.084      2.938
REMARK  Name = 
REMARK  7 active torsions:
REMARK  status: ('A' for Active; 'I' for Inactive)
REMARK    1  A    between atoms: C_1  and  O_2
REMARK    2  A    between atoms: O_2  and  C_3
REMARK    3  A    between atoms: C_6  and  C_8
REMARK    4  A    between atoms: C_8  and  O_9
REMARK    5  A    between atoms: C_10  and  S_12
REMARK    6  A    between atoms: C_13  and  O_15
REMARK    7  A    between atoms: C_16  and  O_18
REMARK                            x       y       z     vdW  Elec       q    Type
REMARK                         _______ _______ _______ _____ _____    ______ ____
ROOT
ATOM      1  C   UNL     1       8.456  -3.372  23.472  0.00  0.00    +0.281 C 
ATOM      2  C   UNL     1       7.505  -2.281  24.019  0.00  0.00    +0.200 C 
ATOM      3  C   UNL     1       7.355  -2.402  25.544  0.00  0.00    +0.163 C 
ATOM      4  C   UNL     1       7.042  -3.837  25.992  0.00  0.00    +0.105 C 
ATOM      5  C   UNL     1       8.015  -4.853  25.370  0.00  0.00    +0.162 C 
ATOM      6  O   UNL     1       8.168  -4.690  23.950  0.00  0.00    -0.342 OA
ENDROOT
BRANCH   1   8
ATOM      7  C   UNL     1      10.196  -1.828  23.064  0.00  0.00    +0.197 C 
ATOM      8  O   UNL     1       9.804  -2.998  23.775  0.00  0.00    -0.352 OA
ENDBRANCH   1   8
BRANCH   2   9
ATOM      9  O   UNL     1       6.243  -2.306  23.340  0.00  0.00    -0.384 OA
ATOM     10  H   UNL     1       5.562  -2.663  23.945  0.00  0.00    +0.210 HD
ENDBRANCH   2   9
BRANCH   3  11
ATOM     11  O   UNL     1       8.535  -1.948  26.228  0.00  0.00    -0.388 OA
ATOM     12  H   UNL     1       8.316  -1.799  27.169  0.00  0.00    +0.210 HD
ENDBRANCH   3  11
BRANCH   4  13
ATOM     13  S   UNL     1       5.297  -4.280  25.572  0.00  0.00    -0.170 S 
ATOM     14  H   UNL     1       4.796  -3.035  25.605  0.00  0.00    +0.102 HD
ENDBRANCH   4  13
BRANCH   5  15
ATOM     15  C   UNL     1       9.368  -4.899  26.113  0.00  0.00    +0.188 C 
BRANCH  15  16
ATOM     16  O   UNL     1      10.330  -5.623  25.342  0.00  0.00    -0.392 OA
ATOM     17  H   UNL     1      10.187  -5.368  24.413  0.00  0.00    +0.210 HD
ENDBRANCH  15  16
ENDBRANCH   5  15
TORSDOF 6
ENDMDL
MODEL 9
REMARK VINA RESULT:      -4.1      2.237      3.462
REMARK  Name = 
REMARK  7 active torsions:
REMARK  status: ('A' for Active; 'I' for Inactive)
REMARK    1  A    between atoms: C_1  and  O_2
REMARK    2  A    between atoms: O_2  and  C_3
REMARK    3  A    between atoms: C_6  and  C_8
REMARK    4  A    between atoms: C_8  and  O_9
REMARK    5  A    between atoms: C_10  and  S_12
REMARK    6  A    between atoms: C_13  and  O_15
REMARK    7  A    between atoms: C_16  and  O_18
REMARK                            x       y       z     vdW  Elec       q    Type
REMARK                         _______ _______ _______ _____ _____    ______ ____
ROOT
ATOM      1  C   UNL     1       9.026  -2.770  24.231  0.00  0.00    +0.281 C 
ATOM      2  C   UNL     1       7.679  -2.517  23.516  0.00  0.00    +0.200 C 
ATOM      3  C   UNL     1       6.604  -3.498  24.011  0.00  0.00    +0.163 C 
ATOM      4  C   UNL     1       7.091  -4.955  24.008  0.00  0.00    +0.105 C 
ATOM      5  C   UNL     1       8.453  -5.101  24.708  0.00  0.00    +0.162 C 
ATOM      6  O   UNL     1       9.426  -4.144  24.255  0.00  0.00    -0.342 OA
ENDROOT
BRANCH   1   8
ATOM      7  C   UNL     1       8.959  -0.810  25.547  0.00  0.00    +0.197 C 
ATOM      8  O   UNL     1       8.949  -2.235  25.556  0.00  0.00    -0.352 OA
ENDBRANCH   1   8
BRANCH   2   9
ATOM      9  O   UNL     1       7.834  -2.548  22.092  0.00  0.00    -0.384 OA
ATOM     10  H   UNL     1       8.562  -3.160  21.863  0.00  0.00    +0.210 HD
ENDBRANCH   2   9
BRANCH   3  11
ATOM     11  O   UNL     1       6.152  -3.162  25.333  0.00  0.00    -0.388 OA
ATOM     12  H   UNL     1       5.672  -3.927  25.708  0.00  0.00    +0.210 HD
ENDBRANCH   3  11
BRANCH   4  13
ATOM     13  S   UNL     1       7.186  -5.601  22.278  0.00  0.00    -0.170 S 
ATOM     14  H   UNL     1       8.437  -6.081  22.347  0.00  0.00    +0.102 HD
ENDBRANCH   4  13
BRANCH   5  15
ATOM     15  C   UNL     1       8.321  -5.133  26.246  0.00  0.00    +0.188 C 
BRANCH  15  16
ATOM     16  O   UNL     1       9.595  -4.910  26.855  0.00  0.00    -0.392 OA
ATOM     17  H   UNL     1       9.934  -5.786  27.113  0.00  0.00    +0.210 HD
ENDBRANCH  15  16
ENDBRANCH   5  15
TORSDOF 6
ENDMDL
