MODEL 1
REMARK VINA RESULT:      -6.8      0.000      0.000
REMARK  Name = 
REMARK  3 active torsions:
REMARK  status: ('A' for Active; 'I' for Inactive)
REMARK    1  A    between atoms: C_1  and  C_2
REMARK    2  A    between atoms: C_13  and  N_14
REMARK    3  A    between atoms: C_16  and  C_17
REMARK                            x       y       z     vdW  Elec       q    Type
REMARK                         _______ _______ _______ _____ _____    ______ ____
ROOT
ATOM      1  C   UNL     1       5.948   3.376  22.921  0.00  0.00    +0.035 C 
ATOM      2  C   UNL     1       7.201   2.717  22.446  0.00  0.00    -0.028 C 
ATOM      3  C   UNL     1       8.155   2.254  23.271  0.00  0.00    -0.042 C 
ATOM      4  C   UNL     1       9.609   2.102  22.970  0.00  0.00    +0.069 C 
ATOM      5  C   UNL     1       9.933   3.680  23.657  0.00  0.00    +0.061 C 
ATOM      6  C   UNL     1       8.923   4.336  24.742  0.00  0.00    -0.074 C 
ATOM      7  C   UNL     1       8.059   3.514  25.378  0.00  0.00    -0.020 C 
ATOM      8  C   UNL     1       8.718   5.817  24.825  0.00  0.00    +0.039 C 
ATOM      9  C   UNL     1       9.804   0.530  23.436  0.00  0.00    -0.004 A 
ATOM     10  C   UNL     1      10.325  -0.481  22.477  0.00  0.00    +0.013 A 
ATOM     11  C   UNL     1      10.271  -1.807  22.701  0.00  0.00    +0.070 A 
ATOM     12  C   UNL     1       9.726  -2.333  23.966  0.00  0.00    +0.249 A 
ATOM     13  N   UNL     1       9.147  -1.376  24.764  0.00  0.00    -0.326 N 
ATOM     14  H   UNL     1       8.655  -1.749  25.570  0.00  0.00    +0.169 HD
ATOM     15  O   UNL     1       9.738  -3.517  24.237  0.00  0.00    -0.268 OA
ATOM     16  C   UNL     1       9.093  -0.040  24.476  0.00  0.00    +0.025 A 
ATOM     17  C   UNL     1       8.083   0.748  25.343  0.00  0.00    +0.065 C 
ATOM     18  C   UNL     1       8.194   2.158  24.834  0.00  0.00    +0.045 C 
ENDROOT
BRANCH   4  19
ATOM     19  N   UNL     1      10.233   2.344  21.663  0.00  0.00    -0.317 NA
ATOM     20  H   UNL     1      10.013   3.312  21.426  0.00  0.00    +0.119 HD
ATOM     21  H   UNL     1      11.241   2.281  21.689  0.00  0.00    +0.119 HD
ENDBRANCH   4  19
TORSDOF 1
ENDMDL
MODEL 2
REMARK VINA RESULT:      -6.7      2.161      3.123
REMARK  Name = 
REMARK  3 active torsions:
REMARK  status: ('A' for Active; 'I' for Inactive)
REMARK    1  A    between atoms: C_1  and  C_2
REMARK    2  A    between atoms: C_13  and  N_14
REMARK    3  A    between atoms: C_16  and  C_17
REMARK                            x       y       z     vdW  Elec       q    Type
REMARK                         _______ _______ _______ _____ _____    ______ ____
ROOT
ATOM      1  C   UNL     1       6.848   1.238  22.600  0.00  0.00    +0.035 C 
ATOM      2  C   UNL     1       7.710   0.018  22.619  0.00  0.00    -0.028 C 
ATOM      3  C   UNL     1       8.482  -0.330  23.662  0.00  0.00    -0.042 C 
ATOM      4  C   UNL     1       9.737  -1.136  23.624  0.00  0.00    +0.069 C 
ATOM      5  C   UNL     1      10.695   0.328  23.542  0.00  0.00    +0.061 C 
ATOM      6  C   UNL     1      10.107   1.735  24.090  0.00  0.00    -0.074 C 
ATOM      7  C   UNL     1       9.051   1.694  24.935  0.00  0.00    -0.020 C 
ATOM      8  C   UNL     1      10.489   3.041  23.463  0.00  0.00    +0.039 C 
ATOM      9  C   UNL     1       9.356  -2.256  24.776  0.00  0.00    -0.004 A 
ATOM     10  C   UNL     1       9.370  -3.707  24.448  0.00  0.00    +0.013 A 
ATOM     11  C   UNL     1       8.834  -4.648  25.247  0.00  0.00    +0.070 A 
ATOM     12  C   UNL     1       8.238  -4.281  26.545  0.00  0.00    +0.249 A 
ATOM     13  N   UNL     1       8.138  -2.926  26.749  0.00  0.00    -0.326 N 
ATOM     14  H   UNL     1       7.610  -2.668  27.577  0.00  0.00    +0.169 HD
ATOM     15  O   UNL     1       7.821  -5.111  27.328  0.00  0.00    -0.268 OA
ATOM     16  C   UNL     1       8.573  -1.966  25.877  0.00  0.00    +0.025 A 
ATOM     17  C   UNL     1       8.016  -0.553  26.172  0.00  0.00    +0.065 C 
ATOM     18  C   UNL     1       8.613   0.302  25.089  0.00  0.00    +0.045 C 
ENDROOT
BRANCH   4  19
ATOM     19  N   UNL     1      10.293  -1.781  22.427  0.00  0.00    -0.317 NA
ATOM     20  H   UNL     1       9.835  -1.333  21.632  0.00  0.00    +0.119 HD
ATOM     21  H   UNL     1      11.283  -1.614  22.313  0.00  0.00    +0.119 HD
ENDBRANCH   4  19
TORSDOF 1
ENDMDL
MODEL 3
REMARK VINA RESULT:      -6.2      2.085      2.646
REMARK  Name = 
REMARK  3 active torsions:
REMARK  status: ('A' for Active; 'I' for Inactive)
REMARK    1  A    between atoms: C_1  and  C_2
REMARK    2  A    between atoms: C_13  and  N_14
REMARK    3  A    between atoms: C_16  and  C_17
REMARK                            x       y       z     vdW  Elec       q    Type
REMARK                         _______ _______ _______ _____ _____    ______ ____
ROOT
ATOM      1  C   UNL     1       6.961   2.998  22.218  0.00  0.00    +0.035 C 
ATOM      2  C   UNL     1       7.463   1.637  21.862  0.00  0.00    -0.028 C 
ATOM      3  C   UNL     1       8.045   0.806  22.743  0.00  0.00    -0.042 C 
ATOM      4  C   UNL     1       9.039  -0.267  22.446  0.00  0.00    +0.069 C 
ATOM      5  C   UNL     1      10.356   0.837  22.783  0.00  0.00    +0.061 C 
ATOM      6  C   UNL     1      10.131   2.132  23.732  0.00  0.00    -0.074 C 
ATOM      7  C   UNL     1       9.050   2.140  24.545  0.00  0.00    -0.020 C 
ATOM      8  C   UNL     1      10.888   3.406  23.511  0.00  0.00    +0.039 C 
ATOM      9  C   UNL     1       8.299  -1.522  23.224  0.00  0.00    -0.004 A 
ATOM     10  C   UNL     1       7.947  -2.763  22.483  0.00  0.00    +0.013 A 
ATOM     11  C   UNL     1       7.128  -3.710  22.978  0.00  0.00    +0.070 A 
ATOM     12  C   UNL     1       6.569  -3.584  24.336  0.00  0.00    +0.249 A 
ATOM     13  N   UNL     1       6.821  -2.371  24.932  0.00  0.00    -0.326 N 
ATOM     14  H   UNL     1       6.329  -2.229  25.809  0.00  0.00    +0.169 HD
ATOM     15  O   UNL     1       5.896  -4.456  24.847  0.00  0.00    -0.268 OA
ATOM     16  C   UNL     1       7.552  -1.358  24.375  0.00  0.00    +0.025 A 
ATOM     17  C   UNL     1       7.375   0.006  25.083  0.00  0.00    +0.065 C 
ATOM     18  C   UNL     1       8.247   0.939  24.290  0.00  0.00    +0.045 C 
ENDROOT
BRANCH   4  19
ATOM     19  N   UNL     1       9.479  -0.666  21.103  0.00  0.00    -0.317 NA
ATOM     20  H   UNL     1      10.494  -0.760  21.160  0.00  0.00    +0.119 HD
ATOM     21  H   UNL     1       9.128  -1.572  20.826  0.00  0.00    +0.119 HD
ENDBRANCH   4  19
TORSDOF 1
ENDMDL
MODEL 4
REMARK VINA RESULT:      -6.2      3.581      6.526
REMARK  Name = 
REMARK  3 active torsions:
REMARK  status: ('A' for Active; 'I' for Inactive)
REMARK    1  A    between atoms: C_1  and  C_2
REMARK    2  A    between atoms: C_13  and  N_14
REMARK    3  A    between atoms: C_16  and  C_17
REMARK                            x       y       z     vdW  Elec       q    Type
REMARK                         _______ _______ _______ _____ _____    ______ ____
ROOT
ATOM      1  C   UNL     1       5.624  -3.354  26.653  0.00  0.00    +0.035 C 
ATOM      2  C   UNL     1       6.980  -3.389  26.028  0.00  0.00    -0.028 C 
ATOM      3  C   UNL     1       7.193  -3.250  24.709  0.00  0.00    -0.042 C 
ATOM      4  C   UNL     1       8.338  -3.792  23.920  0.00  0.00    +0.069 C 
ATOM      5  C   UNL     1       7.404  -5.216  23.510  0.00  0.00    +0.061 C 
ATOM      6  C   UNL     1       5.784  -5.179  23.534  0.00  0.00    -0.074 C 
ATOM      7  C   UNL     1       5.178  -3.971  23.501  0.00  0.00    -0.020 C 
ATOM      8  C   UNL     1       4.979  -6.391  23.893  0.00  0.00    +0.039 C 
ATOM      9  C   UNL     1       8.803  -2.403  23.157  0.00  0.00    -0.004 A 
ATOM     10  C   UNL     1      10.193  -1.894  23.304  0.00  0.00    +0.013 A 
ATOM     11  C   UNL     1      10.568  -0.657  22.928  0.00  0.00    +0.070 A 
ATOM     12  C   UNL     1       9.605   0.257  22.287  0.00  0.00    +0.249 A 
ATOM     13  N   UNL     1       8.312  -0.208  22.285  0.00  0.00    -0.326 N 
ATOM     14  H   UNL     1       7.627   0.471  21.966  0.00  0.00    +0.169 HD
ATOM     15  O   UNL     1       9.928   1.348  21.860  0.00  0.00    -0.268 OA
ATOM     16  C   UNL     1       7.911  -1.417  22.781  0.00  0.00    +0.025 A 
ATOM     17  C   UNL     1       6.382  -1.535  22.986  0.00  0.00    +0.065 C 
ATOM     18  C   UNL     1       6.199  -2.919  23.544  0.00  0.00    +0.045 C 
ENDROOT
BRANCH   4  19
ATOM     19  N   UNL     1       9.497  -4.496  24.485  0.00  0.00    -0.317 NA
ATOM     20  H   UNL     1       9.806  -5.147  23.762  0.00  0.00    +0.119 HD
ATOM     21  H   UNL     1      10.280  -3.883  24.666  0.00  0.00    +0.119 HD
ENDBRANCH   4  19
TORSDOF 1
ENDMDL
MODEL 5
REMARK VINA RESULT:      -6.2      1.646      2.272
REMARK  Name = 
REMARK  3 active torsions:
REMARK  status: ('A' for Active; 'I' for Inactive)
REMARK    1  A    between atoms: C_1  and  C_2
REMARK    2  A    between atoms: C_13  and  N_14
REMARK    3  A    between atoms: C_16  and  C_17
REMARK                            x       y       z     vdW  Elec       q    Type
REMARK                         _______ _______ _______ _____ _____    ______ ____
ROOT
ATOM      1  C   UNL     1       7.337   3.739  26.417  0.00  0.00    +0.035 C 
ATOM      2  C   UNL     1       6.956   2.705  25.409  0.00  0.00    -0.028 C 
ATOM      3  C   UNL     1       7.785   2.263  24.448  0.00  0.00    -0.042 C 
ATOM      4  C   UNL     1       7.405   1.704  23.118  0.00  0.00    +0.069 C 
ATOM      5  C   UNL     1       7.575   3.285  22.386  0.00  0.00    +0.061 C 
ATOM      6  C   UNL     1       8.515   4.417  23.064  0.00  0.00    -0.074 C 
ATOM      7  C   UNL     1       9.440   4.014  23.965  0.00  0.00    -0.020 C 
ATOM      8  C   UNL     1       8.188   5.875  22.957  0.00  0.00    +0.039 C 
ATOM      9  C   UNL     1       8.283   0.306  23.168  0.00  0.00    -0.004 A 
ATOM     10  C   UNL     1       7.611  -1.011  23.013  0.00  0.00    +0.013 A 
ATOM     11  C   UNL     1       8.211  -2.183  23.292  0.00  0.00    +0.070 A 
ATOM     12  C   UNL     1       9.619  -2.221  23.727  0.00  0.00    +0.249 A 
ATOM     13  N   UNL     1      10.159  -0.981  23.974  0.00  0.00    -0.326 N 
ATOM     14  H   UNL     1      11.081  -1.007  24.399  0.00  0.00    +0.169 HD
ATOM     15  O   UNL     1      10.217  -3.262  23.907  0.00  0.00    -0.268 OA
ATOM     16  C   UNL     1       9.505   0.209  23.807  0.00  0.00    +0.025 A 
ATOM     17  C   UNL     1      10.200   1.407  24.494  0.00  0.00    +0.065 C 
ATOM     18  C   UNL     1       9.299   2.571  24.186  0.00  0.00    +0.045 C 
ENDROOT
BRANCH   4  19
ATOM     19  N   UNL     1       6.031   1.445  22.670  0.00  0.00    -0.317 NA
ATOM     20  H   UNL     1       5.443   1.555  23.498  0.00  0.00    +0.119 HD
ATOM     21  H   UNL     1       5.701   2.124  21.998  0.00  0.00    +0.119 HD
ENDBRANCH   4  19
TORSDOF 1
ENDMDL
MODEL 6
REMARK VINA RESULT:      -6.2      2.996      5.814
REMARK  Name = 
REMARK  3 active torsions:
REMARK  status: ('A' for Active; 'I' for Inactive)
REMARK    1  A    between atoms: C_1  and  C_2
REMARK    2  A    between atoms: C_13  and  N_14
REMARK    3  A    between atoms: C_16  and  C_17
REMARK                            x       y       z     vdW  Elec       q    Type
REMARK                         _______ _______ _______ _____ _____    ______ ____
ROOT
ATOM      1  C   UNL     1       9.752  -4.873  25.666  0.00  0.00    +0.035 C 
ATOM      2  C   UNL     1       9.455  -3.976  24.508  0.00  0.00    -0.028 C 
ATOM      3  C   UNL     1       8.797  -2.810  24.621  0.00  0.00    -0.042 C 
ATOM      4  C   UNL     1       7.982  -2.132  23.572  0.00  0.00    +0.069 C 
ATOM      5  C   UNL     1       6.527  -2.888  24.188  0.00  0.00    +0.061 C 
ATOM      6  C   UNL     1       6.447  -3.402  25.723  0.00  0.00    -0.074 C 
ATOM      7  C   UNL     1       7.347  -2.909  26.603  0.00  0.00    -0.020 C 
ATOM      8  C   UNL     1       5.630  -4.598  26.107  0.00  0.00    +0.039 C 
ATOM      9  C   UNL     1       8.674  -0.634  23.639  0.00  0.00    -0.004 A 
ATOM     10  C   UNL     1       9.275  -0.027  22.421  0.00  0.00    +0.013 A 
ATOM     11  C   UNL     1      10.069   1.059  22.454  0.00  0.00    +0.070 A 
ATOM     12  C   UNL     1      10.345   1.749  23.727  0.00  0.00    +0.249 A 
ATOM     13  N   UNL     1       9.873   1.086  24.834  0.00  0.00    -0.326 N 
ATOM     14  H   UNL     1      10.174   1.486  25.718  0.00  0.00    +0.169 HD
ATOM     15  O   UNL     1      10.988   2.779  23.783  0.00  0.00    -0.268 OA
ATOM     16  C   UNL     1       9.170  -0.087  24.807  0.00  0.00    +0.025 A 
ATOM     17  C   UNL     1       9.081  -0.796  26.179  0.00  0.00    +0.065 C 
ATOM     18  C   UNL     1       8.292  -2.043  25.890  0.00  0.00    +0.045 C 
ENDROOT
BRANCH   4  19
ATOM     19  N   UNL     1       7.844  -2.585  22.182  0.00  0.00    -0.317 NA
ATOM     20  H   UNL     1       7.692  -1.741  21.628  0.00  0.00    +0.119 HD
ATOM     21  H   UNL     1       8.686  -3.012  21.821  0.00  0.00    +0.119 HD
ENDBRANCH   4  19
TORSDOF 1
ENDMDL
MODEL 7
REMARK VINA RESULT:      -6.0      2.399      3.840
REMARK  Name = 
REMARK  3 active torsions:
REMARK  status: ('A' for Active; 'I' for Inactive)
REMARK    1  A    between atoms: C_1  and  C_2
REMARK    2  A    between atoms: C_13  and  N_14
REMARK    3  A    between atoms: C_16  and  C_17
REMARK                            x       y       z     vdW  Elec       q    Type
REMARK                         _______ _______ _______ _____ _____    ______ ____
ROOT
ATOM      1  C   UNL     1      10.942   2.051  23.706  0.00  0.00    +0.035 C 
ATOM      2  C   UNL     1      10.055   1.272  24.620  0.00  0.00    -0.028 C 
ATOM      3  C   UNL     1       9.220   0.306  24.201  0.00  0.00    -0.042 C 
ATOM      4  C   UNL     1       7.953  -0.135  24.854  0.00  0.00    +0.069 C 
ATOM      5  C   UNL     1       7.031   0.953  23.836  0.00  0.00    +0.061 C 
ATOM      6  C   UNL     1       7.618   1.450  22.409  0.00  0.00    -0.074 C 
ATOM      7  C   UNL     1       8.625   0.737  21.856  0.00  0.00    -0.020 C 
ATOM      8  C   UNL     1       7.297   2.807  21.861  0.00  0.00    +0.039 C 
ATOM      9  C   UNL     1       8.247  -1.758  24.914  0.00  0.00    -0.004 A 
ATOM     10  C   UNL     1       8.221  -2.480  26.214  0.00  0.00    +0.013 A 
ATOM     11  C   UNL     1       8.693  -3.730  26.373  0.00  0.00    +0.070 A 
ATOM     12  C   UNL     1       9.225  -4.484  25.223  0.00  0.00    +0.249 A 
ATOM     13  N   UNL     1       9.342  -3.738  24.075  0.00  0.00    -0.326 N 
ATOM     14  H   UNL     1       9.829  -4.212  23.320  0.00  0.00    +0.169 HD
ATOM     15  O   UNL     1       9.581  -5.642  25.312  0.00  0.00    -0.268 OA
ATOM     16  C   UNL     1       8.975  -2.427  23.948  0.00  0.00    +0.025 A 
ATOM     17  C   UNL     1       9.544  -1.736  22.687  0.00  0.00    +0.065 C 
ATOM     18  C   UNL     1       9.025  -0.328  22.782  0.00  0.00    +0.045 C 
ENDROOT
BRANCH   4  19
ATOM     19  N   UNL     1       7.449   0.357  26.143  0.00  0.00    -0.317 NA
ATOM     20  H   UNL     1       7.550   1.373  26.111  0.00  0.00    +0.119 HD
ATOM     21  H   UNL     1       6.464   0.175  26.277  0.00  0.00    +0.119 HD
ENDBRANCH   4  19
TORSDOF 1
ENDMDL
MODEL 8
REMARK VINA RESULT:      -6.0      3.953      6.051
REMARK  Name = 
REMARK  3 active torsions:
REMARK  status: ('A' for Active; 'I' for Inactive)
REMARK    1  A    between atoms: C_1  and  C_2
REMARK    2  A    between atoms: C_13  and  N_14
REMARK    3  A    between atoms: C_16  and  C_17
REMARK                            x       y       z     vdW  Elec       q    Type
REMARK                         _______ _______ _______ _____ _____    ______ ____
ROOT
ATOM      1  C   UNL     1       7.097   0.194  24.837  0.00  0.00    +0.035 C 
ATOM      2  C   UNL     1       6.387  -1.016  24.323  0.00  0.00    -0.028 C 
ATOM      3  C   UNL     1       6.945  -2.237  24.268  0.00  0.00    -0.042 C 
ATOM      4  C   UNL     1       6.600  -3.342  23.326  0.00  0.00    +0.069 C 
ATOM      5  C   UNL     1       7.871  -2.830  22.235  0.00  0.00    +0.061 C 
ATOM      6  C   UNL     1       9.135  -1.973  22.777  0.00  0.00    -0.074 C 
ATOM      7  C   UNL     1       9.384  -1.986  24.106  0.00  0.00    -0.020 C 
ATOM      8  C   UNL     1       9.818  -0.955  21.916  0.00  0.00    +0.039 C 
ATOM      9  C   UNL     1       6.381  -4.555  24.425  0.00  0.00    -0.004 A 
ATOM     10  C   UNL     1       5.090  -5.291  24.486  0.00  0.00    +0.013 A 
ATOM     11  C   UNL     1       4.752  -6.103  25.504  0.00  0.00    +0.070 A 
ATOM     12  C   UNL     1       5.693  -6.351  26.611  0.00  0.00    +0.249 A 
ATOM     13  N   UNL     1       6.817  -5.560  26.575  0.00  0.00    -0.326 N 
ATOM     14  H   UNL     1       7.402  -5.632  27.402  0.00  0.00    +0.169 HD
ATOM     15  O   UNL     1       5.456  -7.142  27.503  0.00  0.00    -0.268 OA
ATOM     16  C   UNL     1       7.101  -4.643  25.602  0.00  0.00    +0.025 A 
ATOM     17  C   UNL     1       8.220  -3.646  25.987  0.00  0.00    +0.065 C 
ATOM     18  C   UNL     1       8.332  -2.749  24.786  0.00  0.00    +0.045 C 
ENDROOT
BRANCH   4  19
ATOM     19  N   UNL     1       5.503  -3.312  22.350  0.00  0.00    -0.317 NA
ATOM     20  H   UNL     1       5.949  -3.299  21.432  0.00  0.00    +0.119 HD
ATOM     21  H   UNL     1       4.931  -4.144  22.375  0.00  0.00    +0.119 HD
ENDBRANCH   4  19
TORSDOF 1
ENDMDL
MODEL 9
REMARK VINA RESULT:      -6.0      2.989      4.668
REMARK  Name = 
REMARK  3 active torsions:
REMARK  status: ('A' for Active; 'I' for Inactive)
REMARK    1  A    between atoms: C_1  and  C_2
REMARK    2  A    between atoms: C_13  and  N_14
REMARK    3  A    between atoms: C_16  and  C_17
REMARK                            x       y       z     vdW  Elec       q    Type
REMARK                         _______ _______ _______ _____ _____    ______ ____
ROOT
ATOM      1  C   UNL     1       8.909  -0.668  27.218  0.00  0.00    +0.035 C 
ATOM      2  C   UNL     1       7.768  -0.841  26.270  0.00  0.00    -0.028 C 
ATOM      3  C   UNL     1       7.919  -1.197  24.983  0.00  0.00    -0.042 C 
ATOM      4  C   UNL     1       7.004  -0.878  23.848  0.00  0.00    +0.069 C 
ATOM      5  C   UNL     1       7.957   0.538  23.456  0.00  0.00    +0.061 C 
ATOM      6  C   UNL     1       9.513   0.638  23.899  0.00  0.00    -0.074 C 
ATOM      7  C   UNL     1      10.152  -0.507  24.227  0.00  0.00    -0.020 C 
ATOM      8  C   UNL     1      10.146   1.952  24.241  0.00  0.00    +0.039 C 
ATOM      9  C   UNL     1       6.812  -2.401  23.238  0.00  0.00    -0.004 A 
ATOM     10  C   UNL     1       5.455  -2.994  23.109  0.00  0.00    +0.013 A 
ATOM     11  C   UNL     1       5.241  -4.300  22.864  0.00  0.00    +0.070 A 
ATOM     12  C   UNL     1       6.375  -5.220  22.655  0.00  0.00    +0.249 A 
ATOM     13  N   UNL     1       7.603  -4.656  22.905  0.00  0.00    -0.326 N 
ATOM     14  H   UNL     1       8.374  -5.317  22.892  0.00  0.00    +0.169 HD
ATOM     15  O   UNL     1       6.220  -6.386  22.351  0.00  0.00    -0.268 OA
ATOM     16  C   UNL     1       7.811  -3.356  23.275  0.00  0.00    +0.025 A 
ATOM     17  C   UNL     1       9.224  -3.084  23.842  0.00  0.00    +0.065 C 
ATOM     18  C   UNL     1       9.198  -1.620  24.185  0.00  0.00    +0.045 C 
ENDROOT
BRANCH   4  19
ATOM     19  N   UNL     1       5.710  -0.194  23.970  0.00  0.00    -0.317 NA
ATOM     20  H   UNL     1       5.143  -0.532  23.191  0.00  0.00    +0.119 HD
ATOM     21  H   UNL     1       5.210  -0.443  24.812  0.00  0.00    +0.119 HD
ENDBRANCH   4  19
TORSDOF 1
ENDMDL
