MODEL 1
REMARK VINA RESULT:      -5.0      0.000      0.000
REMARK  Name = 
REMARK  4 active torsions:
REMARK  status: ('A' for Active; 'I' for Inactive)
REMARK    1  A    between atoms: C_1  and  O_2
REMARK    2  A    between atoms: O_2  and  C_3
REMARK    3  A    between atoms: C_6  and  C_7
REMARK    4  A    between atoms: C_7  and  C_8
REMARK                            x       y       z     vdW  Elec       q    Type
REMARK                         _______ _______ _______ _____ _____    ______ ____
ROOT
ATOM      1  C   UNL     1      10.203  -0.545  22.972  0.00  0.00    +0.120 A 
ATOM      2  C   UNL     1       9.901   0.317  21.915  0.00  0.00    +0.046 A 
ATOM      3  C   UNL     1       9.830   1.696  22.129  0.00  0.00    +0.007 A 
ATOM      4  C   UNL     1      10.068   2.231  23.403  0.00  0.00    -0.038 A 
ATOM      5  C   UNL     1      10.462   1.368  24.433  0.00  0.00    +0.007 A 
ATOM      6  C   UNL     1      10.527  -0.013  24.218  0.00  0.00    +0.046 A 
ENDROOT
BRANCH   1   8
ATOM      7  C   UNL     1       9.671  -2.707  23.734  0.00  0.00    +0.277 C 
ATOM      8  O   UNL     1      10.167  -1.883  22.683  0.00  0.00    -0.495 OA
ENDBRANCH   1   8
BRANCH   4   9
ATOM      9  C   UNL     1       9.825   3.696  23.686  0.00  0.00    +0.130 C 
BRANCH   9  10
ATOM     10  C   UNL     1      10.952   4.677  23.434  0.00  0.00    +0.215 C 
ATOM     11  O   UNL     1      12.128   4.316  23.434  0.00  0.00    -0.276 OA
ATOM     12  N   UNL     1      10.654   5.985  23.226  0.00  0.00    -0.329 N 
ATOM     13  H   UNL     1      11.428   6.623  23.091  0.00  0.00    +0.145 HD
ATOM     14  H   UNL     1       9.717   6.355  23.285  0.00  0.00    +0.145 HD
ENDBRANCH   9  10
ENDBRANCH   4   9
TORSDOF 3
ENDMDL
MODEL 2
REMARK VINA RESULT:      -4.9      3.125      4.236
REMARK  Name = 
REMARK  4 active torsions:
REMARK  status: ('A' for Active; 'I' for Inactive)
REMARK    1  A    between atoms: C_1  and  O_2
REMARK    2  A    between atoms: O_2  and  C_3
REMARK    3  A    between atoms: C_6  and  C_7
REMARK    4  A    between atoms: C_7  and  C_8
REMARK                            x       y       z     vdW  Elec       q    Type
REMARK                         _______ _______ _______ _____ _____    ______ ____
ROOT
ATOM      1  C   UNL     1       8.591  -3.696  23.876  0.00  0.00    +0.120 A 
ATOM      2  C   UNL     1       9.707  -2.902  24.148  0.00  0.00    +0.046 A 
ATOM      3  C   UNL     1       9.974  -1.772  23.370  0.00  0.00    +0.007 A 
ATOM      4  C   UNL     1       9.122  -1.418  22.314  0.00  0.00    -0.038 A 
ATOM      5  C   UNL     1       7.956  -2.167  22.111  0.00  0.00    +0.007 A 
ATOM      6  C   UNL     1       7.693  -3.301  22.887  0.00  0.00    +0.046 A 
ENDROOT
BRANCH   1   8
ATOM      7  C   UNL     1       9.591  -5.133  25.450  0.00  0.00    +0.277 C 
ATOM      8  O   UNL     1       8.461  -4.827  24.638  0.00  0.00    -0.495 OA
ENDBRANCH   1   8
BRANCH   4   9
ATOM      9  C   UNL     1       9.490  -0.305  21.361  0.00  0.00    +0.130 C 
BRANCH   9  10
ATOM     10  C   UNL     1       9.020   1.100  21.675  0.00  0.00    +0.215 C 
ATOM     11  O   UNL     1       7.845   1.335  21.956  0.00  0.00    -0.276 OA
ATOM     12  N   UNL     1       9.911   2.122  21.621  0.00  0.00    -0.329 N 
ATOM     13  H   UNL     1       9.562   3.055  21.805  0.00  0.00    +0.145 HD
ATOM     14  H   UNL     1      10.870   2.006  21.327  0.00  0.00    +0.145 HD
ENDBRANCH   9  10
ENDBRANCH   4   9
TORSDOF 3
ENDMDL
MODEL 3
REMARK VINA RESULT:      -4.9      2.792      5.505
REMARK  Name = 
REMARK  4 active torsions:
REMARK  status: ('A' for Active; 'I' for Inactive)
REMARK    1  A    between atoms: C_1  and  O_2
REMARK    2  A    between atoms: O_2  and  C_3
REMARK    3  A    between atoms: C_6  and  C_7
REMARK    4  A    between atoms: C_7  and  C_8
REMARK                            x       y       z     vdW  Elec       q    Type
REMARK                         _______ _______ _______ _____ _____    ______ ____
ROOT
ATOM      1  C   UNL     1      10.322   2.348  23.248  0.00  0.00    +0.120 A 
ATOM      2  C   UNL     1      10.724   1.419  24.209  0.00  0.00    +0.046 A 
ATOM      3  C   UNL     1      10.592   0.049  23.964  0.00  0.00    +0.007 A 
ATOM      4  C   UNL     1      10.062  -0.407  22.749  0.00  0.00    -0.038 A 
ATOM      5  C   UNL     1       9.750   0.530  21.756  0.00  0.00    +0.007 A 
ATOM      6  C   UNL     1       9.878   1.901  22.006  0.00  0.00    +0.046 A 
ENDROOT
BRANCH   1   8
ATOM      7  C   UNL     1       9.174   4.268  23.982  0.00  0.00    +0.277 C 
ATOM      8  O   UNL     1      10.412   3.665  23.614  0.00  0.00    -0.495 OA
ENDBRANCH   1   8
BRANCH   4   9
ATOM      9  C   UNL     1       9.754  -1.872  22.539  0.00  0.00    +0.130 C 
BRANCH   9  10
ATOM     10  C   UNL     1       9.305  -2.694  23.729  0.00  0.00    +0.215 C 
ATOM     11  O   UNL     1      10.039  -3.541  24.237  0.00  0.00    -0.276 OA
ATOM     12  N   UNL     1       8.058  -2.505  24.230  0.00  0.00    -0.329 N 
ATOM     13  H   UNL     1       7.774  -3.089  25.006  0.00  0.00    +0.145 HD
ATOM     14  H   UNL     1       7.384  -1.878  23.815  0.00  0.00    +0.145 HD
ENDBRANCH   9  10
ENDBRANCH   4   9
TORSDOF 3
ENDMDL
MODEL 4
REMARK VINA RESULT:      -4.8      2.476      2.714
REMARK  Name = 
REMARK  4 active torsions:
REMARK  status: ('A' for Active; 'I' for Inactive)
REMARK    1  A    between atoms: C_1  and  O_2
REMARK    2  A    between atoms: O_2  and  C_3
REMARK    3  A    between atoms: C_6  and  C_7
REMARK    4  A    between atoms: C_7  and  C_8
REMARK                            x       y       z     vdW  Elec       q    Type
REMARK                         _______ _______ _______ _____ _____    ______ ____
ROOT
ATOM      1  C   UNL     1       9.952  -1.892  23.639  0.00  0.00    +0.120 A 
ATOM      2  C   UNL     1       9.929  -1.696  22.256  0.00  0.00    +0.046 A 
ATOM      3  C   UNL     1       9.836  -0.404  21.730  0.00  0.00    +0.007 A 
ATOM      4  C   UNL     1       9.773   0.708  22.583  0.00  0.00    -0.038 A 
ATOM      5  C   UNL     1       9.893   0.505  23.963  0.00  0.00    +0.007 A 
ATOM      6  C   UNL     1       9.980  -0.788  24.488  0.00  0.00    +0.046 A 
ENDROOT
BRANCH   1   8
ATOM      7  C   UNL     1       8.672  -3.800  24.153  0.00  0.00    +0.277 C 
ATOM      8  O   UNL     1       9.959  -3.197  24.058  0.00  0.00    -0.495 OA
ENDBRANCH   1   8
BRANCH   4   9
ATOM      9  C   UNL     1       9.500   2.090  22.035  0.00  0.00    +0.130 C 
BRANCH   9  10
ATOM     10  C   UNL     1       8.080   2.616  22.078  0.00  0.00    +0.215 C 
ATOM     11  O   UNL     1       7.114   1.866  21.939  0.00  0.00    -0.276 OA
ATOM     12  N   UNL     1       7.874   3.946  22.250  0.00  0.00    -0.329 N 
ATOM     13  H   UNL     1       6.916   4.274  22.244  0.00  0.00    +0.145 HD
ATOM     14  H   UNL     1       8.623   4.621  22.298  0.00  0.00    +0.145 HD
ENDBRANCH   9  10
ENDBRANCH   4   9
TORSDOF 3
ENDMDL
MODEL 5
REMARK VINA RESULT:      -4.7      2.878      4.036
REMARK  Name = 
REMARK  4 active torsions:
REMARK  status: ('A' for Active; 'I' for Inactive)
REMARK    1  A    between atoms: C_1  and  O_2
REMARK    2  A    between atoms: O_2  and  C_3
REMARK    3  A    between atoms: C_6  and  C_7
REMARK    4  A    between atoms: C_7  and  C_8
REMARK                            x       y       z     vdW  Elec       q    Type
REMARK                         _______ _______ _______ _____ _____    ______ ____
ROOT
ATOM      1  C   UNL     1       8.589  -3.602  24.129  0.00  0.00    +0.120 A 
ATOM      2  C   UNL     1       7.692  -3.261  23.115  0.00  0.00    +0.046 A 
ATOM      3  C   UNL     1       7.999  -2.232  22.219  0.00  0.00    +0.007 A 
ATOM      4  C   UNL     1       9.212  -1.536  22.325  0.00  0.00    -0.038 A 
ATOM      5  C   UNL     1      10.143  -1.949  23.286  0.00  0.00    +0.007 A 
ATOM      6  C   UNL     1       9.832  -2.975  24.185  0.00  0.00    +0.046 A 
ENDROOT
BRANCH   1   8
ATOM      7  C   UNL     1       8.705  -4.456  26.320  0.00  0.00    +0.277 C 
ATOM      8  O   UNL     1       8.163  -4.564  25.006  0.00  0.00    -0.495 OA
ENDBRANCH   1   8
BRANCH   4   9
ATOM      9  C   UNL     1       9.480  -0.313  21.478  0.00  0.00    +0.130 C 
BRANCH   9  10
ATOM     10  C   UNL     1       9.314   1.053  22.109  0.00  0.00    +0.215 C 
ATOM     11  O   UNL     1       8.547   1.234  23.055  0.00  0.00    -0.276 OA
ATOM     12  N   UNL     1      10.009   2.104  21.603  0.00  0.00    -0.329 N 
ATOM     13  H   UNL     1       9.855   3.011  22.024  0.00  0.00    +0.145 HD
ATOM     14  H   UNL     1      10.597   2.036  20.785  0.00  0.00    +0.145 HD
ENDBRANCH   9  10
ENDBRANCH   4   9
TORSDOF 3
ENDMDL
MODEL 6
REMARK VINA RESULT:      -4.7      1.395      2.003
REMARK  Name = 
REMARK  4 active torsions:
REMARK  status: ('A' for Active; 'I' for Inactive)
REMARK    1  A    between atoms: C_1  and  O_2
REMARK    2  A    between atoms: O_2  and  C_3
REMARK    3  A    between atoms: C_6  and  C_7
REMARK    4  A    between atoms: C_7  and  C_8
REMARK                            x       y       z     vdW  Elec       q    Type
REMARK                         _______ _______ _______ _____ _____    ______ ____
ROOT
ATOM      1  C   UNL     1      10.174  -0.456  22.816  0.00  0.00    +0.120 A 
ATOM      2  C   UNL     1      10.533  -0.006  24.089  0.00  0.00    +0.046 A 
ATOM      3  C   UNL     1      10.603   1.364  24.357  0.00  0.00    +0.007 A 
ATOM      4  C   UNL     1      10.306   2.301  23.356  0.00  0.00    -0.038 A 
ATOM      5  C   UNL     1       9.857   1.838  22.113  0.00  0.00    +0.007 A 
ATOM      6  C   UNL     1       9.793   0.466  21.844  0.00  0.00    +0.046 A 
ENDROOT
BRANCH   1   8
ATOM      7  C   UNL     1       9.864  -2.585  23.772  0.00  0.00    +0.277 C 
ATOM      8  O   UNL     1      10.216  -1.812  22.628  0.00  0.00    -0.495 OA
ENDBRANCH   1   8
BRANCH   4   9
ATOM      9  C   UNL     1      10.544   3.776  23.580  0.00  0.00    +0.130 C 
BRANCH   9  10
ATOM     10  C   UNL     1       9.368   4.646  23.972  0.00  0.00    +0.215 C 
ATOM     11  O   UNL     1       9.049   5.632  23.308  0.00  0.00    -0.276 OA
ATOM     12  N   UNL     1       8.667   4.343  25.095  0.00  0.00    -0.329 N 
ATOM     13  H   UNL     1       7.906   4.959  25.350  0.00  0.00    +0.145 HD
ATOM     14  H   UNL     1       8.922   3.592  25.721  0.00  0.00    +0.145 HD
ENDBRANCH   9  10
ENDBRANCH   4   9
TORSDOF 3
ENDMDL
MODEL 7
REMARK VINA RESULT:      -4.5      6.352      9.152
REMARK  Name = 
REMARK  4 active torsions:
REMARK  status: ('A' for Active; 'I' for Inactive)
REMARK    1  A    between atoms: C_1  and  O_2
REMARK    2  A    between atoms: O_2  and  C_3
REMARK    3  A    between atoms: C_6  and  C_7
REMARK    4  A    between atoms: C_7  and  C_8
REMARK                            x       y       z     vdW  Elec       q    Type
REMARK                         _______ _______ _______ _____ _____    ______ ____
ROOT
ATOM      1  C   UNL     1       8.952  -4.336  24.815  0.00  0.00    +0.120 A 
ATOM      2  C   UNL     1       8.987  -4.693  26.165  0.00  0.00    +0.046 A 
ATOM      3  C   UNL     1       7.856  -5.238  26.779  0.00  0.00    +0.007 A 
ATOM      4  C   UNL     1       6.676  -5.439  26.047  0.00  0.00    -0.038 A 
ATOM      5  C   UNL     1       6.682  -5.165  24.673  0.00  0.00    +0.007 A 
ATOM      6  C   UNL     1       7.814  -4.615  24.061  0.00  0.00    +0.046 A 
ENDROOT
BRANCH   1   8
ATOM      7  C   UNL     1       9.872  -2.438  23.770  0.00  0.00    +0.277 C 
ATOM      8  O   UNL     1      10.080  -3.734  24.326  0.00  0.00    -0.495 OA
ENDBRANCH   1   8
BRANCH   4   9
ATOM      9  C   UNL     1       5.399  -5.862  26.735  0.00  0.00    +0.130 C 
BRANCH   9  10
ATOM     10  C   UNL     1       5.456  -6.219  28.206  0.00  0.00    +0.215 C 
ATOM     11  O   UNL     1       5.410  -5.352  29.079  0.00  0.00    -0.276 OA
ATOM     12  N   UNL     1       5.583  -7.522  28.565  0.00  0.00    -0.329 N 
ATOM     13  H   UNL     1       5.649  -7.729  29.554  0.00  0.00    +0.145 HD
ATOM     14  H   UNL     1       5.698  -8.271  27.898  0.00  0.00    +0.145 HD
ENDBRANCH   9  10
ENDBRANCH   4   9
TORSDOF 3
ENDMDL
MODEL 8
REMARK VINA RESULT:      -4.5      2.925      5.398
REMARK  Name = 
REMARK  4 active torsions:
REMARK  status: ('A' for Active; 'I' for Inactive)
REMARK    1  A    between atoms: C_1  and  O_2
REMARK    2  A    between atoms: O_2  and  C_3
REMARK    3  A    between atoms: C_6  and  C_7
REMARK    4  A    between atoms: C_7  and  C_8
REMARK                            x       y       z     vdW  Elec       q    Type
REMARK                         _______ _______ _______ _____ _____    ______ ____
ROOT
ATOM      1  C   UNL     1       8.812   3.794  23.207  0.00  0.00    +0.120 A 
ATOM      2  C   UNL     1       7.802   3.238  22.418  0.00  0.00    +0.046 A 
ATOM      3  C   UNL     1       7.981   1.985  21.826  0.00  0.00    +0.007 A 
ATOM      4  C   UNL     1       9.170   1.269  22.022  0.00  0.00    -0.038 A 
ATOM      5  C   UNL     1      10.136   1.793  22.890  0.00  0.00    +0.007 A 
ATOM      6  C   UNL     1       9.958   3.050  23.478  0.00  0.00    +0.046 A 
ENDROOT
BRANCH   1   8
ATOM      7  C   UNL     1       9.732   5.893  23.744  0.00  0.00    +0.277 C 
ATOM      8  O   UNL     1       8.578   5.060  23.674  0.00  0.00    -0.495 OA
ENDBRANCH   1   8
BRANCH   4   9
ATOM      9  C   UNL     1       9.446  -0.002  21.252  0.00  0.00    +0.130 C 
BRANCH   9  10
ATOM     10  C   UNL     1       9.513  -1.309  22.015  0.00  0.00    +0.215 C 
ATOM     11  O   UNL     1      10.591  -1.810  22.335  0.00  0.00    -0.276 OA
ATOM     12  N   UNL     1       8.359  -1.950  22.330  0.00  0.00    -0.329 N 
ATOM     13  H   UNL     1       8.435  -2.837  22.812  0.00  0.00    +0.145 HD
ATOM     14  H   UNL     1       7.449  -1.629  22.033  0.00  0.00    +0.145 HD
ENDBRANCH   9  10
ENDBRANCH   4   9
TORSDOF 3
ENDMDL
MODEL 9
REMARK VINA RESULT:      -4.5      4.142      6.596
REMARK  Name = 
REMARK  4 active torsions:
REMARK  status: ('A' for Active; 'I' for Inactive)
REMARK    1  A    between atoms: C_1  and  O_2
REMARK    2  A    between atoms: O_2  and  C_3
REMARK    3  A    between atoms: C_6  and  C_7
REMARK    4  A    between atoms: C_7  and  C_8
REMARK                            x       y       z     vdW  Elec       q    Type
REMARK                         _______ _______ _______ _____ _____    ______ ____
ROOT
ATOM      1  C   UNL     1       8.922  -0.217  23.325  0.00  0.00    +0.120 A 
ATOM      2  C   UNL     1      10.060  -1.006  23.508  0.00  0.00    +0.046 A 
ATOM      3  C   UNL     1       9.935  -2.373  23.776  0.00  0.00    +0.007 A 
ATOM      4  C   UNL     1       8.667  -2.968  23.855  0.00  0.00    -0.038 A 
ATOM      5  C   UNL     1       7.538  -2.187  23.577  0.00  0.00    +0.007 A 
ATOM      6  C   UNL     1       7.666  -0.819  23.315  0.00  0.00    +0.046 A 
ENDROOT
BRANCH   1   8
ATOM      7  C   UNL     1       9.877   1.460  21.978  0.00  0.00    +0.277 C 
ATOM      8  O   UNL     1       9.145   1.123  23.153  0.00  0.00    -0.495 OA
ENDBRANCH   1   8
BRANCH   4   9
ATOM      9  C   UNL     1       8.511  -4.400  24.312  0.00  0.00    +0.130 C 
BRANCH   9  10
ATOM     10  C   UNL     1       9.154  -4.816  25.619  0.00  0.00    +0.215 C 
ATOM     11  O   UNL     1       8.774  -4.356  26.696  0.00  0.00    -0.276 OA
ATOM     12  N   UNL     1      10.187  -5.696  25.596  0.00  0.00    -0.329 N 
ATOM     13  H   UNL     1      10.618  -5.932  26.481  0.00  0.00    +0.145 HD
ATOM     14  H   UNL     1      10.592  -6.052  24.742  0.00  0.00    +0.145 HD
ENDBRANCH   9  10
ENDBRANCH   4   9
TORSDOF 3
ENDMDL
