MODEL 1
REMARK VINA RESULT:      -8.4      0.000      0.000
REMARK  Name = 
REMARK  7 active torsions:
REMARK  status: ('A' for Active; 'I' for Inactive)
REMARK    1  A    between atoms: C_7  and  N_8
REMARK    2  A    between atoms: N_8  and  C_9
REMARK    3  A    between atoms: C_9  and  C_10
REMARK    4  A    between atoms: C_11  and  O_12
REMARK    5  A    between atoms: O_12  and  C_13
REMARK    6  A    between atoms: C_13  and  C_14
REMARK    7  A    between atoms: C_22  and  C_24
REMARK                            x       y       z     vdW  Elec       q    Type
REMARK                         _______ _______ _______ _____ _____    ______ ____
ROOT
ATOM      1  C   UNL     1       7.783  -1.307  23.868  0.00  0.00    +0.012 A 
ATOM      2  C   UNL     1       8.056   0.081  23.934  0.00  0.00    +0.017 A 
ATOM      3  C   UNL     1       8.999   0.701  23.096  0.00  0.00    -0.017 A 
ATOM      4  C   UNL     1       9.602  -0.114  22.122  0.00  0.00    +0.012 A 
ATOM      5  C   UNL     1       9.276  -1.470  21.981  0.00  0.00    +0.046 A 
ATOM      6  C   UNL     1       8.374  -2.073  22.852  0.00  0.00    +0.126 A 
ENDROOT
BRANCH   3   7
ATOM      7  C   UNL     1       9.401   2.125  23.271  0.00  0.00    -0.016 A 
ATOM      8  C   UNL     1       8.468   3.112  23.643  0.00  0.00    +0.009 A 
ATOM      9  C   UNL     1       8.838   4.449  23.879  0.00  0.00    +0.010 A 
ATOM     10  C   UNL     1      10.188   4.820  23.765  0.00  0.00    -0.000 A 
ATOM     11  C   UNL     1      10.907   6.030  23.969  0.00  0.00    +0.027 A 
ATOM     12  C   UNL     1      12.238   5.772  23.727  0.00  0.00    +0.083 A 
ATOM     13  N   UNL     1      12.347   4.457  23.359  0.00  0.00    -0.361 N 
ATOM     14  H   UNL     1      13.211   3.988  23.126  0.00  0.00    +0.165 HD
ATOM     15  C   UNL     1      11.111   3.851  23.388  0.00  0.00    +0.047 A 
ATOM     16  C   UNL     1      10.748   2.520  23.120  0.00  0.00    +0.034 A 
ENDBRANCH   3   7
BRANCH   1  17
ATOM     17  C   UNL     1       6.983  -1.954  24.989  0.00  0.00    +0.140 C 
BRANCH  17  18
ATOM     18  N   UNL     1       7.670  -3.093  25.599  0.00  0.00    -0.337 N 
ATOM     19  H   UNL     1       8.302  -3.599  24.980  0.00  0.00    +0.146 HD
BRANCH  18  24
ATOM     20  N   UNL     1       8.998  -5.481  26.379  0.00  0.00    -0.342 N 
ATOM     21  H   UNL     1       9.642  -4.699  26.498  0.00  0.00    +0.144 HD
ATOM     22  H   UNL     1       9.321  -6.287  26.908  0.00  0.00    +0.144 HD
ATOM     23  C   UNL     1       7.754  -5.137  26.932  0.00  0.00    +0.137 A 
ATOM     24  C   UNL     1       7.081  -3.966  26.516  0.00  0.00    +0.067 A 
ATOM     25  C   UNL     1       5.837  -3.731  27.104  0.00  0.00    +0.028 A 
ATOM     26  C   UNL     1       5.356  -4.566  28.104  0.00  0.00    +0.022 A 
ATOM     27  C   UNL     1       6.110  -5.669  28.449  0.00  0.00    +0.113 A 
ATOM     28  N   UNL     1       7.286  -5.988  27.869  0.00  0.00    -0.239 NA
ENDBRANCH  18  24
ENDBRANCH  17  18
ENDBRANCH   1  17
BRANCH   6  29
ATOM     29  O   UNL     1       7.981  -3.380  22.744  0.00  0.00    -0.486 OA
BRANCH  29  30
ATOM     30  C   UNL     1       6.842  -3.625  21.911  0.00  0.00    +0.284 C 
BRANCH  30  31
ATOM     31  C   UNL     1       5.825  -4.436  22.689  0.00  0.00    +0.078 A 
ATOM     32  C   UNL     1       6.235  -5.568  23.399  0.00  0.00    +0.027 A 
ATOM     33  C   UNL     1       5.298  -6.275  24.148  0.00  0.00    +0.003 A 
ATOM     34  C   UNL     1       3.982  -5.837  24.175  0.00  0.00    +0.020 A 
ATOM     35  C   UNL     1       3.653  -4.709  23.444  0.00  0.00    +0.111 A 
ATOM     36  N   UNL     1       4.538  -4.002  22.703  0.00  0.00    -0.256 NA
ENDBRANCH  30  31
ENDBRANCH  29  30
ENDBRANCH   6  29
TORSDOF 7
ENDMDL
MODEL 2
REMARK VINA RESULT:      -8.4      1.066      1.269
REMARK  Name = 
REMARK  7 active torsions:
REMARK  status: ('A' for Active; 'I' for Inactive)
REMARK    1  A    between atoms: C_7  and  N_8
REMARK    2  A    between atoms: N_8  and  C_9
REMARK    3  A    between atoms: C_9  and  C_10
REMARK    4  A    between atoms: C_11  and  O_12
REMARK    5  A    between atoms: O_12  and  C_13
REMARK    6  A    between atoms: C_13  and  C_14
REMARK    7  A    between atoms: C_22  and  C_24
REMARK                            x       y       z     vdW  Elec       q    Type
REMARK                         _______ _______ _______ _____ _____    ______ ____
ROOT
ATOM      1  C   UNL     1       8.394  -1.750  25.095  0.00  0.00    +0.012 A 
ATOM      2  C   UNL     1       8.512  -0.339  25.028  0.00  0.00    +0.017 A 
ATOM      3  C   UNL     1       9.130   0.311  23.946  0.00  0.00    -0.017 A 
ATOM      4  C   UNL     1       9.554  -0.506  22.884  0.00  0.00    +0.012 A 
ATOM      5  C   UNL     1       9.362  -1.894  22.890  0.00  0.00    +0.046 A 
ATOM      6  C   UNL     1       8.789  -2.522  23.992  0.00  0.00    +0.126 A 
ENDROOT
BRANCH   3   7
ATOM      7  C   UNL     1       9.395   1.777  23.949  0.00  0.00    -0.016 A 
ATOM      8  C   UNL     1       8.522   2.681  24.585  0.00  0.00    +0.009 A 
ATOM      9  C   UNL     1       8.787   4.061  24.658  0.00  0.00    +0.010 A 
ATOM     10  C   UNL     1       9.974   4.564  24.101  0.00  0.00    -0.000 A 
ATOM     11  C   UNL     1      10.572   5.853  24.032  0.00  0.00    +0.027 A 
ATOM     12  C   UNL     1      11.774   5.723  23.373  0.00  0.00    +0.083 A 
ATOM     13  N   UNL     1      11.914   4.407  23.018  0.00  0.00    -0.361 N 
ATOM     14  H   UNL     1      12.706   4.018  22.525  0.00  0.00    +0.165 HD
ATOM     15  C   UNL     1      10.834   3.677  23.463  0.00  0.00    +0.047 A 
ATOM     16  C   UNL     1      10.564   2.302  23.357  0.00  0.00    +0.034 A 
ENDBRANCH   3   7
BRANCH   1  17
ATOM     17  C   UNL     1       7.988  -2.393  26.412  0.00  0.00    +0.140 C 
BRANCH  17  18
ATOM     18  N   UNL     1       6.822  -3.267  26.286  0.00  0.00    -0.337 N 
ATOM     19  H   UNL     1       6.004  -2.838  25.856  0.00  0.00    +0.146 HD
BRANCH  18  24
ATOM     20  N   UNL     1       8.239  -5.714  26.577  0.00  0.00    -0.342 N 
ATOM     21  H   UNL     1       8.910  -4.946  26.604  0.00  0.00    +0.144 HD
ATOM     22  H   UNL     1       8.654  -6.558  26.962  0.00  0.00    +0.144 HD
ATOM     23  C   UNL     1       7.157  -5.405  27.418  0.00  0.00    +0.137 A 
ATOM     24  C   UNL     1       6.434  -4.203  27.248  0.00  0.00    +0.067 A 
ATOM     25  C   UNL     1       5.357  -4.005  28.115  0.00  0.00    +0.028 A 
ATOM     26  C   UNL     1       5.094  -4.910  29.135  0.00  0.00    +0.022 A 
ATOM     27  C   UNL     1       5.882  -6.039  29.223  0.00  0.00    +0.113 A 
ATOM     28  N   UNL     1       6.891  -6.320  28.374  0.00  0.00    -0.239 NA
ENDBRANCH  18  24
ENDBRANCH  17  18
ENDBRANCH   1  17
BRANCH   6  29
ATOM     29  O   UNL     1       8.537  -3.867  24.047  0.00  0.00    -0.486 OA
BRANCH  29  30
ATOM     30  C   UNL     1       7.789  -4.407  22.951  0.00  0.00    +0.284 C 
BRANCH  30  31
ATOM     31  C   UNL     1       6.373  -4.692  23.411  0.00  0.00    +0.078 A 
ATOM     32  C   UNL     1       5.343  -3.807  23.081  0.00  0.00    +0.027 A 
ATOM     33  C   UNL     1       4.040  -4.108  23.470  0.00  0.00    +0.003 A 
ATOM     34  C   UNL     1       3.795  -5.279  24.172  0.00  0.00    +0.020 A 
ATOM     35  C   UNL     1       4.869  -6.104  24.463  0.00  0.00    +0.111 A 
ATOM     36  N   UNL     1       6.146  -5.839  24.104  0.00  0.00    -0.256 NA
ENDBRANCH  30  31
ENDBRANCH  29  30
ENDBRANCH   6  29
TORSDOF 7
ENDMDL
MODEL 3
REMARK VINA RESULT:      -8.3      1.506      3.722
REMARK  Name = 
REMARK  7 active torsions:
REMARK  status: ('A' for Active; 'I' for Inactive)
REMARK    1  A    between atoms: C_7  and  N_8
REMARK    2  A    between atoms: N_8  and  C_9
REMARK    3  A    between atoms: C_9  and  C_10
REMARK    4  A    between atoms: C_11  and  O_12
REMARK    5  A    between atoms: O_12  and  C_13
REMARK    6  A    between atoms: C_13  and  C_14
REMARK    7  A    between atoms: C_22  and  C_24
REMARK                            x       y       z     vdW  Elec       q    Type
REMARK                         _______ _______ _______ _____ _____    ______ ____
ROOT
ATOM      1  C   UNL     1       9.047  -1.852  23.981  0.00  0.00    +0.012 A 
ATOM      2  C   UNL     1       9.418  -0.497  23.799  0.00  0.00    +0.017 A 
ATOM      3  C   UNL     1       9.093   0.502  24.734  0.00  0.00    -0.017 A 
ATOM      4  C   UNL     1       8.452   0.074  25.909  0.00  0.00    +0.012 A 
ATOM      5  C   UNL     1       8.161  -1.276  26.149  0.00  0.00    +0.046 A 
ATOM      6  C   UNL     1       8.450  -2.242  25.190  0.00  0.00    +0.126 A 
ENDROOT
BRANCH   3   7
ATOM      7  C   UNL     1       9.341   1.946  24.469  0.00  0.00    -0.016 A 
ATOM      8  C   UNL     1       8.451   2.940  24.919  0.00  0.00    +0.009 A 
ATOM      9  C   UNL     1       8.700   4.314  24.738  0.00  0.00    +0.010 A 
ATOM     10  C   UNL     1       9.887   4.721  24.109  0.00  0.00    -0.000 A 
ATOM     11  C   UNL     1      10.470   5.983  23.808  0.00  0.00    +0.027 A 
ATOM     12  C   UNL     1      11.681   5.749  23.195  0.00  0.00    +0.083 A 
ATOM     13  N   UNL     1      11.840   4.392  23.090  0.00  0.00    -0.361 N 
ATOM     14  H   UNL     1      12.641   3.930  22.684  0.00  0.00    +0.165 HD
ATOM     15  C   UNL     1      10.764   3.743  23.652  0.00  0.00    +0.047 A 
ATOM     16  C   UNL     1      10.510   2.369  23.800  0.00  0.00    +0.034 A 
ENDBRANCH   3   7
BRANCH   1  17
ATOM     17  C   UNL     1       9.167  -2.813  22.808  0.00  0.00    +0.140 C 
BRANCH  17  18
ATOM     18  N   UNL     1       7.937  -2.912  22.022  0.00  0.00    -0.337 N 
ATOM     19  H   UNL     1       7.494  -2.022  21.796  0.00  0.00    +0.146 HD
BRANCH  18  24
ATOM     20  N   UNL     1       5.370  -2.273  23.061  0.00  0.00    -0.342 N 
ATOM     21  H   UNL     1       5.570  -1.644  22.283  0.00  0.00    +0.144 HD
ATOM     22  H   UNL     1       4.374  -2.277  23.264  0.00  0.00    +0.144 HD
ATOM     23  C   UNL     1       5.684  -3.588  22.678  0.00  0.00    +0.137 A 
ATOM     24  C   UNL     1       6.973  -3.907  22.194  0.00  0.00    +0.067 A 
ATOM     25  C   UNL     1       7.192  -5.247  21.870  0.00  0.00    +0.028 A 
ATOM     26  C   UNL     1       6.158  -6.172  21.941  0.00  0.00    +0.022 A 
ATOM     27  C   UNL     1       4.932  -5.743  22.405  0.00  0.00    +0.113 A 
ATOM     28  N   UNL     1       4.677  -4.478  22.798  0.00  0.00    -0.239 NA
ENDBRANCH  18  24
ENDBRANCH  17  18
ENDBRANCH   1  17
BRANCH   6  29
ATOM     29  O   UNL     1       8.229  -3.580  25.377  0.00  0.00    -0.486 OA
BRANCH  29  30
ATOM     30  C   UNL     1       8.251  -4.033  26.735  0.00  0.00    +0.284 C 
BRANCH  30  31
ATOM     31  C   UNL     1       7.086  -4.977  26.960  0.00  0.00    +0.078 A 
ATOM     32  C   UNL     1       6.355  -5.452  25.868  0.00  0.00    +0.027 A 
ATOM     33  C   UNL     1       5.318  -6.356  26.087  0.00  0.00    +0.003 A 
ATOM     34  C   UNL     1       5.040  -6.767  27.383  0.00  0.00    +0.020 A 
ATOM     35  C   UNL     1       5.808  -6.250  28.413  0.00  0.00    +0.111 A 
ATOM     36  N   UNL     1       6.818  -5.368  28.234  0.00  0.00    -0.256 NA
ENDBRANCH  30  31
ENDBRANCH  29  30
ENDBRANCH   6  29
TORSDOF 7
ENDMDL
MODEL 4
REMARK VINA RESULT:      -8.0      2.473      8.278
REMARK  Name = 
REMARK  7 active torsions:
REMARK  status: ('A' for Active; 'I' for Inactive)
REMARK    1  A    between atoms: C_7  and  N_8
REMARK    2  A    between atoms: N_8  and  C_9
REMARK    3  A    between atoms: C_9  and  C_10
REMARK    4  A    between atoms: C_11  and  O_12
REMARK    5  A    between atoms: O_12  and  C_13
REMARK    6  A    between atoms: C_13  and  C_14
REMARK    7  A    between atoms: C_22  and  C_24
REMARK                            x       y       z     vdW  Elec       q    Type
REMARK                         _______ _______ _______ _____ _____    ______ ____
ROOT
ATOM      1  C   UNL     1       9.164  -1.450  24.518  0.00  0.00    +0.012 A 
ATOM      2  C   UNL     1       8.405  -2.577  24.918  0.00  0.00    +0.017 A 
ATOM      3  C   UNL     1       7.677  -3.355  24.001  0.00  0.00    -0.017 A 
ATOM      4  C   UNL     1       7.808  -3.009  22.644  0.00  0.00    +0.012 A 
ATOM      5  C   UNL     1       8.629  -1.956  22.221  0.00  0.00    +0.046 A 
ATOM      6  C   UNL     1       9.305  -1.170  23.151  0.00  0.00    +0.126 A 
ENDROOT
BRANCH   3   7
ATOM      7  C   UNL     1       6.754  -4.439  24.437  0.00  0.00    -0.016 A 
ATOM      8  C   UNL     1       6.764  -4.926  25.759  0.00  0.00    +0.009 A 
ATOM      9  C   UNL     1       5.856  -5.902  26.211  0.00  0.00    +0.010 A 
ATOM     10  C   UNL     1       4.885  -6.399  25.327  0.00  0.00    -0.000 A 
ATOM     11  C   UNL     1       3.813  -7.327  25.448  0.00  0.00    +0.027 A 
ATOM     12  C   UNL     1       3.176  -7.392  24.228  0.00  0.00    +0.083 A 
ATOM     13  N   UNL     1       3.839  -6.557  23.367  0.00  0.00    -0.361 N 
ATOM     14  H   UNL     1       3.589  -6.401  22.401  0.00  0.00    +0.165 HD
ATOM     15  C   UNL     1       4.878  -5.930  24.018  0.00  0.00    +0.047 A 
ATOM     16  C   UNL     1       5.799  -4.979  23.548  0.00  0.00    +0.034 A 
ENDBRANCH   3   7
BRANCH   1  17
ATOM     17  C   UNL     1       9.677  -0.493  25.583  0.00  0.00    +0.140 C 
BRANCH  17  18
ATOM     18  N   UNL     1       8.928   0.764  25.632  0.00  0.00    -0.337 N 
ATOM     19  H   UNL     1       9.407   1.535  26.093  0.00  0.00    +0.146 HD
BRANCH  18  24
ATOM     20  N   UNL     1       7.860   0.713  28.265  0.00  0.00    -0.342 N 
ATOM     21  H   UNL     1       8.589   1.425  28.225  0.00  0.00    +0.144 HD
ATOM     22  H   UNL     1       7.267   0.861  29.077  0.00  0.00    +0.144 HD
ATOM     23  C   UNL     1       7.018   0.859  27.149  0.00  0.00    +0.137 A 
ATOM     24  C   UNL     1       7.550   0.849  25.840  0.00  0.00    +0.067 A 
ATOM     25  C   UNL     1       6.626   0.970  24.801  0.00  0.00    +0.028 A 
ATOM     26  C   UNL     1       5.280   1.179  25.070  0.00  0.00    +0.022 A 
ATOM     27  C   UNL     1       4.875   1.195  26.388  0.00  0.00    +0.113 A 
ATOM     28  N   UNL     1       5.708   1.016  27.434  0.00  0.00    -0.239 NA
ENDBRANCH  18  24
ENDBRANCH  17  18
ENDBRANCH   1  17
BRANCH   6  29
ATOM     29  O   UNL     1      10.153  -0.153  22.804  0.00  0.00    -0.486 OA
BRANCH  29  30
ATOM     30  C   UNL     1       9.759   0.630  21.670  0.00  0.00    +0.284 C 
BRANCH  30  31
ATOM     31  C   UNL     1       9.078   1.894  22.156  0.00  0.00    +0.078 A 
ATOM     32  C   UNL     1       7.844   2.270  21.618  0.00  0.00    +0.027 A 
ATOM     33  C   UNL     1       7.209   3.408  22.109  0.00  0.00    +0.003 A 
ATOM     34  C   UNL     1       7.813   4.138  23.122  0.00  0.00    +0.020 A 
ATOM     35  C   UNL     1       9.037   3.704  23.601  0.00  0.00    +0.111 A 
ATOM     36  N   UNL     1       9.682   2.606  23.144  0.00  0.00    -0.256 NA
ENDBRANCH  30  31
ENDBRANCH  29  30
ENDBRANCH   6  29
TORSDOF 7
ENDMDL
MODEL 5
REMARK VINA RESULT:      -7.9      1.716      2.151
REMARK  Name = 
REMARK  7 active torsions:
REMARK  status: ('A' for Active; 'I' for Inactive)
REMARK    1  A    between atoms: C_7  and  N_8
REMARK    2  A    between atoms: N_8  and  C_9
REMARK    3  A    between atoms: C_9  and  C_10
REMARK    4  A    between atoms: C_11  and  O_12
REMARK    5  A    between atoms: O_12  and  C_13
REMARK    6  A    between atoms: C_13  and  C_14
REMARK    7  A    between atoms: C_22  and  C_24
REMARK                            x       y       z     vdW  Elec       q    Type
REMARK                         _______ _______ _______ _____ _____    ______ ____
ROOT
ATOM      1  C   UNL     1       7.769  -1.742  24.973  0.00  0.00    +0.012 A 
ATOM      2  C   UNL     1       7.680  -0.334  24.841  0.00  0.00    +0.017 A 
ATOM      3  C   UNL     1       8.168   0.346  23.711  0.00  0.00    -0.017 A 
ATOM      4  C   UNL     1       8.676  -0.453  22.672  0.00  0.00    +0.012 A 
ATOM      5  C   UNL     1       8.687  -1.852  22.745  0.00  0.00    +0.046 A 
ATOM      6  C   UNL     1       8.241  -2.502  23.893  0.00  0.00    +0.126 A 
ENDROOT
BRANCH   3   7
ATOM      7  C   UNL     1       8.219   1.833  23.642  0.00  0.00    -0.016 A 
ATOM      8  C   UNL     1       9.147   2.573  24.400  0.00  0.00    +0.009 A 
ATOM      9  C   UNL     1       9.258   3.972  24.300  0.00  0.00    +0.010 A 
ATOM     10  C   UNL     1       8.435   4.664  23.397  0.00  0.00    -0.000 A 
ATOM     11  C   UNL     1       8.309   6.028  23.010  0.00  0.00    +0.027 A 
ATOM     12  C   UNL     1       7.331   6.100  22.043  0.00  0.00    +0.083 A 
ATOM     13  N   UNL     1       6.843   4.835  21.848  0.00  0.00    -0.361 N 
ATOM     14  H   UNL     1       6.117   4.586  21.190  0.00  0.00    +0.165 HD
ATOM     15  C   UNL     1       7.510   3.939  22.654  0.00  0.00    +0.047 A 
ATOM     16  C   UNL     1       7.370   2.546  22.769  0.00  0.00    +0.034 A 
ENDBRANCH   3   7
BRANCH   1  17
ATOM     17  C   UNL     1       7.496  -2.373  26.330  0.00  0.00    +0.140 C 
BRANCH  17  18
ATOM     18  N   UNL     1       6.460  -3.405  26.284  0.00  0.00    -0.337 N 
ATOM     19  H   UNL     1       5.584  -3.119  25.848  0.00  0.00    +0.146 HD
BRANCH  18  24
ATOM     20  N   UNL     1       8.080  -5.723  26.556  0.00  0.00    -0.342 N 
ATOM     21  H   UNL     1       8.690  -4.907  26.502  0.00  0.00    +0.144 HD
ATOM     22  H   UNL     1       8.587  -6.516  26.941  0.00  0.00    +0.144 HD
ATOM     23  C   UNL     1       7.044  -5.459  27.467  0.00  0.00    +0.137 A 
ATOM     24  C   UNL     1       6.219  -4.323  27.308  0.00  0.00    +0.067 A 
ATOM     25  C   UNL     1       5.198  -4.168  28.248  0.00  0.00    +0.028 A 
ATOM     26  C   UNL     1       5.083  -5.043  29.319  0.00  0.00    +0.022 A 
ATOM     27  C   UNL     1       5.961  -6.106  29.389  0.00  0.00    +0.113 A 
ATOM     28  N   UNL     1       6.922  -6.348  28.475  0.00  0.00    -0.239 NA
ENDBRANCH  18  24
ENDBRANCH  17  18
ENDBRANCH   1  17
BRANCH   6  29
ATOM     29  O   UNL     1       8.187  -3.865  24.014  0.00  0.00    -0.486 OA
BRANCH  29  30
ATOM     30  C   UNL     1       7.521  -4.561  22.954  0.00  0.00    +0.284 C 
BRANCH  30  31
ATOM     31  C   UNL     1       6.121  -4.928  23.406  0.00  0.00    +0.078 A 
ATOM     32  C   UNL     1       5.033  -4.152  22.997  0.00  0.00    +0.027 A 
ATOM     33  C   UNL     1       3.749  -4.530  23.381  0.00  0.00    +0.003 A 
ATOM     34  C   UNL     1       3.580  -5.668  24.156  0.00  0.00    +0.020 A 
ATOM     35  C   UNL     1       4.708  -6.383  24.523  0.00  0.00    +0.111 A 
ATOM     36  N   UNL     1       5.969  -6.041  24.170  0.00  0.00    -0.256 NA
ENDBRANCH  30  31
ENDBRANCH  29  30
ENDBRANCH   6  29
TORSDOF 7
ENDMDL
MODEL 6
REMARK VINA RESULT:      -7.9      1.870      3.434
REMARK  Name = 
REMARK  7 active torsions:
REMARK  status: ('A' for Active; 'I' for Inactive)
REMARK    1  A    between atoms: C_7  and  N_8
REMARK    2  A    between atoms: N_8  and  C_9
REMARK    3  A    between atoms: C_9  and  C_10
REMARK    4  A    between atoms: C_11  and  O_12
REMARK    5  A    between atoms: O_12  and  C_13
REMARK    6  A    between atoms: C_13  and  C_14
REMARK    7  A    between atoms: C_22  and  C_24
REMARK                            x       y       z     vdW  Elec       q    Type
REMARK                         _______ _______ _______ _____ _____    ______ ____
ROOT
ATOM      1  C   UNL     1       8.792  -1.702  24.618  0.00  0.00    +0.012 A 
ATOM      2  C   UNL     1       9.266  -0.387  24.392  0.00  0.00    +0.017 A 
ATOM      3  C   UNL     1       8.692   0.735  25.015  0.00  0.00    -0.017 A 
ATOM      4  C   UNL     1       7.671   0.479  25.947  0.00  0.00    +0.012 A 
ATOM      5  C   UNL     1       7.251  -0.823  26.252  0.00  0.00    +0.046 A 
ATOM      6  C   UNL     1       7.802  -1.916  25.589  0.00  0.00    +0.126 A 
ENDROOT
BRANCH   3   7
ATOM      7  C   UNL     1       9.084   2.127  24.659  0.00  0.00    -0.016 A 
ATOM      8  C   UNL     1       8.339   3.237  25.103  0.00  0.00    +0.009 A 
ATOM      9  C   UNL     1       8.728   4.563  24.835  0.00  0.00    +0.010 A 
ATOM     10  C   UNL     1       9.913   4.801  24.120  0.00  0.00    -0.000 A 
ATOM     11  C   UNL     1      10.615   5.972  23.720  0.00  0.00    +0.027 A 
ATOM     12  C   UNL     1      11.752   5.572  23.054  0.00  0.00    +0.083 A 
ATOM     13  N   UNL     1      11.751   4.202  23.015  0.00  0.00    -0.361 N 
ATOM     14  H   UNL     1      12.470   3.631  22.590  0.00  0.00    +0.165 HD
ATOM     15  C   UNL     1      10.646   3.707  23.670  0.00  0.00    +0.047 A 
ATOM     16  C   UNL     1      10.250   2.380  23.905  0.00  0.00    +0.034 A 
ENDBRANCH   3   7
BRANCH   1  17
ATOM     17  C   UNL     1       9.256  -2.820  23.697  0.00  0.00    +0.140 C 
BRANCH  17  18
ATOM     18  N   UNL     1       8.366  -3.028  22.554  0.00  0.00    -0.337 N 
ATOM     19  H   UNL     1       8.108  -2.183  22.047  0.00  0.00    +0.146 HD
BRANCH  18  24
ATOM     20  N   UNL     1       5.666  -2.147  22.674  0.00  0.00    -0.342 N 
ATOM     21  H   UNL     1       6.140  -1.637  21.930  0.00  0.00    +0.144 HD
ATOM     22  H   UNL     1       4.658  -2.082  22.560  0.00  0.00    +0.144 HD
ATOM     23  C   UNL     1       5.973  -3.514  22.558  0.00  0.00    +0.137 A 
ATOM     24  C   UNL     1       7.317  -3.950  22.534  0.00  0.00    +0.067 A 
ATOM     25  C   UNL     1       7.513  -5.329  22.447  0.00  0.00    +0.028 A 
ATOM     26  C   UNL     1       6.434  -6.191  22.302  0.00  0.00    +0.022 A 
ATOM     27  C   UNL     1       5.164  -5.652  22.314  0.00  0.00    +0.113 A 
ATOM     28  N   UNL     1       4.907  -4.337  22.464  0.00  0.00    -0.239 NA
ENDBRANCH  18  24
ENDBRANCH  17  18
ENDBRANCH   1  17
BRANCH   6  29
ATOM     29  O   UNL     1       7.467  -3.214  25.868  0.00  0.00    -0.486 OA
BRANCH  29  30
ATOM     30  C   UNL     1       6.441  -3.398  26.850  0.00  0.00    +0.284 C 
BRANCH  30  31
ATOM     31  C   UNL     1       5.450  -4.426  26.342  0.00  0.00    +0.078 A 
ATOM     32  C   UNL     1       5.820  -5.772  26.269  0.00  0.00    +0.027 A 
ATOM     33  C   UNL     1       4.883  -6.711  25.846  0.00  0.00    +0.003 A 
ATOM     34  C   UNL     1       3.604  -6.289  25.512  0.00  0.00    +0.020 A 
ATOM     35  C   UNL     1       3.314  -4.939  25.609  0.00  0.00    +0.111 A 
ATOM     36  N   UNL     1       4.202  -4.001  26.012  0.00  0.00    -0.256 NA
ENDBRANCH  30  31
ENDBRANCH  29  30
ENDBRANCH   6  29
TORSDOF 7
ENDMDL
MODEL 7
REMARK VINA RESULT:      -7.9      1.282      3.042
REMARK  Name = 
REMARK  7 active torsions:
REMARK  status: ('A' for Active; 'I' for Inactive)
REMARK    1  A    between atoms: C_7  and  N_8
REMARK    2  A    between atoms: N_8  and  C_9
REMARK    3  A    between atoms: C_9  and  C_10
REMARK    4  A    between atoms: C_11  and  O_12
REMARK    5  A    between atoms: O_12  and  C_13
REMARK    6  A    between atoms: C_13  and  C_14
REMARK    7  A    between atoms: C_22  and  C_24
REMARK                            x       y       z     vdW  Elec       q    Type
REMARK                         _______ _______ _______ _____ _____    ______ ____
ROOT
ATOM      1  C   UNL     1       7.501  -1.537  23.737  0.00  0.00    +0.012 A 
ATOM      2  C   UNL     1       7.793  -0.159  23.591  0.00  0.00    +0.017 A 
ATOM      3  C   UNL     1       9.085   0.359  23.785  0.00  0.00    -0.017 A 
ATOM      4  C   UNL     1      10.101  -0.576  24.048  0.00  0.00    +0.012 A 
ATOM      5  C   UNL     1       9.848  -1.953  24.104  0.00  0.00    +0.046 A 
ATOM      6  C   UNL     1       8.553  -2.440  23.955  0.00  0.00    +0.126 A 
ENDROOT
BRANCH   3   7
ATOM      7  C   UNL     1       9.360   1.823  23.788  0.00  0.00    -0.016 A 
ATOM      8  C   UNL     1       8.441   2.743  24.330  0.00  0.00    +0.009 A 
ATOM      9  C   UNL     1       8.709   4.123  24.404  0.00  0.00    +0.010 A 
ATOM     10  C   UNL     1       9.944   4.609  23.946  0.00  0.00    -0.000 A 
ATOM     11  C   UNL     1      10.555   5.893  23.910  0.00  0.00    +0.027 A 
ATOM     12  C   UNL     1      11.809   5.745  23.361  0.00  0.00    +0.083 A 
ATOM     13  N   UNL     1      11.970   4.422  23.041  0.00  0.00    -0.361 N 
ATOM     14  H   UNL     1      12.799   4.020  22.625  0.00  0.00    +0.165 HD
ATOM     15  C   UNL     1      10.850   3.706  23.400  0.00  0.00    +0.047 A 
ATOM     16  C   UNL     1      10.580   2.332  23.293  0.00  0.00    +0.034 A 
ENDBRANCH   3   7
BRANCH   1  17
ATOM     17  C   UNL     1       6.047  -1.979  23.805  0.00  0.00    +0.140 C 
BRANCH  17  18
ATOM     18  N   UNL     1       5.716  -3.011  22.822  0.00  0.00    -0.337 N 
ATOM     19  H   UNL     1       5.487  -2.664  21.892  0.00  0.00    +0.146 HD
BRANCH  18  24
ATOM     20  N   UNL     1       6.676  -5.570  22.044  0.00  0.00    -0.342 N 
ATOM     21  H   UNL     1       7.416  -5.089  22.555  0.00  0.00    +0.144 HD
ATOM     22  H   UNL     1       6.866  -6.569  22.007  0.00  0.00    +0.144 HD
ATOM     23  C   UNL     1       5.471  -5.440  22.754  0.00  0.00    +0.137 A 
ATOM     24  C   UNL     1       4.980  -4.163  23.109  0.00  0.00    +0.067 A 
ATOM     25  C   UNL     1       3.759  -4.140  23.785  0.00  0.00    +0.028 A 
ATOM     26  C   UNL     1       3.133  -5.323  24.156  0.00  0.00    +0.022 A 
ATOM     27  C   UNL     1       3.715  -6.514  23.778  0.00  0.00    +0.113 A 
ATOM     28  N   UNL     1       4.857  -6.600  23.065  0.00  0.00    -0.239 NA
ENDBRANCH  18  24
ENDBRANCH  17  18
ENDBRANCH   1  17
BRANCH   6  29
ATOM     29  O   UNL     1       8.244  -3.774  23.959  0.00  0.00    -0.486 OA
BRANCH  29  30
ATOM     30  C   UNL     1       8.620  -4.499  25.135  0.00  0.00    +0.284 C 
BRANCH  30  31
ATOM     31  C   UNL     1       7.392  -4.716  25.996  0.00  0.00    +0.078 A 
ATOM     32  C   UNL     1       6.859  -3.650  26.728  0.00  0.00    +0.027 A 
ATOM     33  C   UNL     1       5.702  -3.853  27.476  0.00  0.00    +0.003 A 
ATOM     34  C   UNL     1       5.105  -5.105  27.475  0.00  0.00    +0.020 A 
ATOM     35  C   UNL     1       5.694  -6.111  26.728  0.00  0.00    +0.111 A 
ATOM     36  N   UNL     1       6.819  -5.948  25.993  0.00  0.00    -0.256 NA
ENDBRANCH  30  31
ENDBRANCH  29  30
ENDBRANCH   6  29
TORSDOF 7
ENDMDL
MODEL 8
REMARK VINA RESULT:      -7.8      2.620      8.879
REMARK  Name = 
REMARK  7 active torsions:
REMARK  status: ('A' for Active; 'I' for Inactive)
REMARK    1  A    between atoms: C_7  and  N_8
REMARK    2  A    between atoms: N_8  and  C_9
REMARK    3  A    between atoms: C_9  and  C_10
REMARK    4  A    between atoms: C_11  and  O_12
REMARK    5  A    between atoms: O_12  and  C_13
REMARK    6  A    between atoms: C_13  and  C_14
REMARK    7  A    between atoms: C_22  and  C_24
REMARK                            x       y       z     vdW  Elec       q    Type
REMARK                         _______ _______ _______ _____ _____    ______ ____
ROOT
ATOM      1  C   UNL     1       7.842  -3.136  25.229  0.00  0.00    +0.012 A 
ATOM      2  C   UNL     1       6.667  -3.926  25.287  0.00  0.00    +0.017 A 
ATOM      3  C   UNL     1       6.140  -4.571  24.155  0.00  0.00    -0.017 A 
ATOM      4  C   UNL     1       6.889  -4.465  22.970  0.00  0.00    +0.012 A 
ATOM      5  C   UNL     1       8.102  -3.766  22.915  0.00  0.00    +0.046 A 
ATOM      6  C   UNL     1       8.582  -3.096  24.037  0.00  0.00    +0.126 A 
ENDROOT
BRANCH   3   7
ATOM      7  C   UNL     1       4.824  -5.267  24.180  0.00  0.00    -0.016 A 
ATOM      8  C   UNL     1       3.755  -4.849  23.364  0.00  0.00    +0.009 A 
ATOM      9  C   UNL     1       2.525  -5.532  23.322  0.00  0.00    +0.010 A 
ATOM     10  C   UNL     1       2.354  -6.688  24.100  0.00  0.00    -0.000 A 
ATOM     11  C   UNL     1       1.298  -7.627  24.267  0.00  0.00    +0.027 A 
ATOM     12  C   UNL     1       1.726  -8.584  25.160  0.00  0.00    +0.083 A 
ATOM     13  N   UNL     1       2.992  -8.245  25.559  0.00  0.00    -0.361 N 
ATOM     14  H   UNL     1       3.558  -8.772  26.210  0.00  0.00    +0.165 HD
ATOM     15  C   UNL     1       3.403  -7.099  24.917  0.00  0.00    +0.047 A 
ATOM     16  C   UNL     1       4.623  -6.406  24.989  0.00  0.00    +0.034 A 
ENDBRANCH   3   7
BRANCH   1  17
ATOM     17  C   UNL     1       8.184  -2.237  26.407  0.00  0.00    +0.140 C 
BRANCH  17  18
ATOM     18  N   UNL     1       8.498  -0.865  26.008  0.00  0.00    -0.337 N 
ATOM     19  H   UNL     1       9.296  -0.448  26.484  0.00  0.00    +0.146 HD
BRANCH  18  24
ATOM     20  N   UNL     1       7.588   0.914  28.029  0.00  0.00    -0.342 N 
ATOM     21  H   UNL     1       8.608   0.936  28.014  0.00  0.00    +0.144 HD
ATOM     22  H   UNL     1       7.225   1.729  28.517  0.00  0.00    +0.144 HD
ATOM     23  C   UNL     1       7.110   1.016  26.712  0.00  0.00    +0.137 A 
ATOM     24  C   UNL     1       7.539   0.108  25.719  0.00  0.00    +0.067 A 
ATOM     25  C   UNL     1       6.980   0.276  24.450  0.00  0.00    +0.028 A 
ATOM     26  C   UNL     1       6.127   1.339  24.188  0.00  0.00    +0.022 A 
ATOM     27  C   UNL     1       5.794   2.180  25.229  0.00  0.00    +0.113 A 
ATOM     28  N   UNL     1       6.246   2.030  26.491  0.00  0.00    -0.239 NA
ENDBRANCH  18  24
ENDBRANCH  17  18
ENDBRANCH   1  17
BRANCH   6  29
ATOM     29  O   UNL     1       9.777  -2.430  24.063  0.00  0.00    -0.486 OA
BRANCH  29  30
ATOM     30  C   UNL     1      10.222  -1.895  22.811  0.00  0.00    +0.284 C 
BRANCH  30  31
ATOM     31  C   UNL     1      10.236  -0.381  22.897  0.00  0.00    +0.078 A 
ATOM     32  C   UNL     1       9.738   0.380  21.836  0.00  0.00    +0.027 A 
ATOM     33  C   UNL     1       9.714   1.768  21.951  0.00  0.00    +0.003 A 
ATOM     34  C   UNL     1      10.180   2.361  23.115  0.00  0.00    +0.020 A 
ATOM     35  C   UNL     1      10.660   1.539  24.121  0.00  0.00    +0.111 A 
ATOM     36  N   UNL     1      10.701   0.189  24.040  0.00  0.00    -0.256 NA
ENDBRANCH  30  31
ENDBRANCH  29  30
ENDBRANCH   6  29
TORSDOF 7
ENDMDL
MODEL 9
REMARK VINA RESULT:      -7.4      1.951      3.540
REMARK  Name = 
REMARK  7 active torsions:
REMARK  status: ('A' for Active; 'I' for Inactive)
REMARK    1  A    between atoms: C_7  and  N_8
REMARK    2  A    between atoms: N_8  and  C_9
REMARK    3  A    between atoms: C_9  and  C_10
REMARK    4  A    between atoms: C_11  and  O_12
REMARK    5  A    between atoms: O_12  and  C_13
REMARK    6  A    between atoms: C_13  and  C_14
REMARK    7  A    between atoms: C_22  and  C_24
REMARK                            x       y       z     vdW  Elec       q    Type
REMARK                         _______ _______ _______ _____ _____    ______ ____
ROOT
ATOM      1  C   UNL     1       7.418  -0.827  23.303  0.00  0.00    +0.012 A 
ATOM      2  C   UNL     1       7.326   0.580  23.162  0.00  0.00    +0.017 A 
ATOM      3  C   UNL     1       8.459   1.412  23.185  0.00  0.00    -0.017 A 
ATOM      4  C   UNL     1       9.706   0.768  23.269  0.00  0.00    +0.012 A 
ATOM      5  C   UNL     1       9.821  -0.628  23.315  0.00  0.00    +0.046 A 
ATOM      6  C   UNL     1       8.684  -1.430  23.338  0.00  0.00    +0.126 A 
ENDROOT
BRANCH   3   7
ATOM      7  C   UNL     1       8.352   2.897  23.197  0.00  0.00    -0.016 A 
ATOM      8  C   UNL     1       9.334   3.701  23.808  0.00  0.00    +0.009 A 
ATOM      9  C   UNL     1       9.287   5.107  23.773  0.00  0.00    +0.010 A 
ATOM     10  C   UNL     1       8.241   5.744  23.086  0.00  0.00    -0.000 A 
ATOM     11  C   UNL     1       7.911   7.101  22.814  0.00  0.00    +0.027 A 
ATOM     12  C   UNL     1       6.761   7.108  22.057  0.00  0.00    +0.083 A 
ATOM     13  N   UNL     1       6.369   5.806  21.882  0.00  0.00    -0.361 N 
ATOM     14  H   UNL     1       5.556   5.509  21.361  0.00  0.00    +0.165 HD
ATOM     15  C   UNL     1       7.263   4.954  22.490  0.00  0.00    +0.047 A 
ATOM     16  C   UNL     1       7.283   3.551  22.546  0.00  0.00    +0.034 A 
ENDBRANCH   3   7
BRANCH   1  17
ATOM     17  C   UNL     1       6.149  -1.625  23.565  0.00  0.00    +0.140 C 
BRANCH  17  18
ATOM     18  N   UNL     1       5.962  -2.727  22.621  0.00  0.00    -0.337 N 
ATOM     19  H   UNL     1       5.646  -2.453  21.692  0.00  0.00    +0.146 HD
BRANCH  18  24
ATOM     20  N   UNL     1       7.228  -5.115  21.743  0.00  0.00    -0.342 N 
ATOM     21  H   UNL     1       7.929  -4.523  22.188  0.00  0.00    +0.144 HD
ATOM     22  H   UNL     1       7.564  -6.073  21.682  0.00  0.00    +0.144 HD
ATOM     23  C   UNL     1       6.086  -5.165  22.559  0.00  0.00    +0.137 A 
ATOM     24  C   UNL     1       5.440  -3.976  22.965  0.00  0.00    +0.067 A 
ATOM     25  C   UNL     1       4.295  -4.135  23.749  0.00  0.00    +0.028 A 
ATOM     26  C   UNL     1       3.893  -5.397  24.167  0.00  0.00    +0.022 A 
ATOM     27  C   UNL     1       4.614  -6.488  23.730  0.00  0.00    +0.113 A 
ATOM     28  N   UNL     1       5.687  -6.404  22.916  0.00  0.00    -0.239 NA
ENDBRANCH  18  24
ENDBRANCH  17  18
ENDBRANCH   1  17
BRANCH   6  29
ATOM     29  O   UNL     1       8.727  -2.798  23.342  0.00  0.00    -0.486 OA
BRANCH  29  30
ATOM     30  C   UNL     1       9.336  -3.401  24.490  0.00  0.00    +0.284 C 
BRANCH  30  31
ATOM     31  C   UNL     1       8.249  -3.880  25.432  0.00  0.00    +0.078 A 
ATOM     32  C   UNL     1       7.958  -5.245  25.522  0.00  0.00    +0.027 A 
ATOM     33  C   UNL     1       6.991  -5.673  26.427  0.00  0.00    +0.003 A 
ATOM     34  C   UNL     1       6.342  -4.738  27.220  0.00  0.00    +0.020 A 
ATOM     35  C   UNL     1       6.684  -3.404  27.071  0.00  0.00    +0.111 A 
ATOM     36  N   UNL     1       7.616  -2.955  26.199  0.00  0.00    -0.256 NA
ENDBRANCH  30  31
ENDBRANCH  29  30
ENDBRANCH   6  29
TORSDOF 7
ENDMDL
