MODEL 1
REMARK VINA RESULT:      -6.1      0.000      0.000
REMARK  Name = 
REMARK  5 active torsions:
REMARK  status: ('A' for Active; 'I' for Inactive)
REMARK    1  A    between atoms: O_1  and  C_2
REMARK    2  A    between atoms: C_2  and  C_4
REMARK    3  A    between atoms: N_6  and  C_7
REMARK    4  A    between atoms: C_8  and  C_9
REMARK    5  A    between atoms: C_9  and  O_10
REMARK                            x       y       z     vdW  Elec       q    Type
REMARK                         _______ _______ _______ _____ _____    ______ ____
ROOT
ATOM      1  C   UNL     1       7.857  -3.679  23.801  0.00  0.00    +0.087 A 
ATOM      2  S   UNL     1       7.970  -3.667  25.497  0.00  0.00    -0.075 S 
ATOM      3  C   UNL     1       6.851  -4.937  25.624  0.00  0.00    +0.021 A 
ATOM      4  C   UNL     1       6.488  -5.569  26.932  0.00  0.00    +0.202 C 
ATOM      5  O   UNL     1       5.655  -6.720  26.690  0.00  0.00    -0.374 OA
ATOM      6  C   UNL     1       4.589  -6.453  25.764  0.00  0.00    +0.165 C 
ATOM      7  C   UNL     1       5.152  -6.238  24.350  0.00  0.00    +0.065 C 
ATOM      8  C   UNL     1       6.276  -5.246  24.406  0.00  0.00    -0.017 A 
ATOM      9  C   UNL     1       6.881  -4.528  23.308  0.00  0.00    +0.091 A 
ENDROOT
BRANCH   1  11
ATOM     10  C   UNL     1       8.335  -1.651  22.622  0.00  0.00    +0.326 C 
ATOM     11  N   UNL     1       8.761  -2.831  23.200  0.00  0.00    -0.270 N 
ATOM     12  H   UNL     1       9.577  -3.253  22.757  0.00  0.00    +0.156 HD
ATOM     13  O   UNL     1       7.219  -1.153  22.628  0.00  0.00    -0.263 OA
BRANCH  10  14
ATOM     14  C   UNL     1       9.428  -0.953  21.799  0.00  0.00    +0.393 C 
ATOM     15  O   UNL     1       9.236   0.116  21.252  0.00  0.00    -0.240 OA
BRANCH  14  16
ATOM     16  O   UNL     1      10.571  -1.657  21.805  0.00  0.00    -0.474 OA
ATOM     17  H   UNL     1      10.441  -2.498  21.307  0.00  0.00    +0.296 HD
ENDBRANCH  14  16
ENDBRANCH  10  14
ENDBRANCH   1  11
BRANCH   9  18
ATOM     18  C   UNL     1       6.469  -4.665  21.908  0.00  0.00    +0.339 C 
ATOM     19  O   UNL     1       6.743  -5.636  21.217  0.00  0.00    -0.245 OA
BRANCH  18  20
ATOM     20  O   UNL     1       5.655  -3.677  21.453  0.00  0.00    -0.477 OA
ATOM     21  H   UNL     1       6.157  -2.922  21.098  0.00  0.00    +0.295 HD
ENDBRANCH  18  20
ENDBRANCH   9  18
TORSDOF 5
ENDMDL
MODEL 2
REMARK VINA RESULT:      -5.7      2.373      6.175
REMARK  Name = 
REMARK  5 active torsions:
REMARK  status: ('A' for Active; 'I' for Inactive)
REMARK    1  A    between atoms: O_1  and  C_2
REMARK    2  A    between atoms: C_2  and  C_4
REMARK    3  A    between atoms: N_6  and  C_7
REMARK    4  A    between atoms: C_8  and  C_9
REMARK    5  A    between atoms: C_9  and  O_10
REMARK                            x       y       z     vdW  Elec       q    Type
REMARK                         _______ _______ _______ _____ _____    ______ ____
ROOT
ATOM      1  C   UNL     1       6.951  -4.701  23.871  0.00  0.00    +0.087 A 
ATOM      2  S   UNL     1       6.453  -3.583  22.691  0.00  0.00    -0.075 S 
ATOM      3  C   UNL     1       7.951  -2.788  22.750  0.00  0.00    +0.021 A 
ATOM      4  C   UNL     1       8.300  -1.650  21.841  0.00  0.00    +0.202 C 
ATOM      5  O   UNL     1       9.689  -1.308  22.016  0.00  0.00    -0.374 OA
ATOM      6  C   UNL     1      10.065  -1.193  23.398  0.00  0.00    +0.165 C 
ATOM      7  C   UNL     1      10.050  -2.574  24.073  0.00  0.00    +0.065 C 
ATOM      8  C   UNL     1       8.751  -3.262  23.772  0.00  0.00    -0.017 A 
ATOM      9  C   UNL     1       8.185  -4.417  24.430  0.00  0.00    +0.091 A 
ENDROOT
BRANCH   1  11
ATOM     10  C   UNL     1       5.193  -5.676  25.171  0.00  0.00    +0.326 C 
ATOM     11  N   UNL     1       6.033  -5.707  24.074  0.00  0.00    -0.270 N 
ATOM     12  H   UNL     1       6.283  -6.643  23.755  0.00  0.00    +0.156 HD
ATOM     13  O   UNL     1       5.059  -4.797  26.010  0.00  0.00    -0.263 OA
BRANCH  10  14
ATOM     14  C   UNL     1       4.407  -6.981  25.367  0.00  0.00    +0.393 C 
ATOM     15  O   UNL     1       4.020  -7.645  24.425  0.00  0.00    -0.240 OA
BRANCH  14  16
ATOM     16  O   UNL     1       4.251  -7.268  26.669  0.00  0.00    -0.474 OA
ATOM     17  H   UNL     1       3.761  -6.535  27.111  0.00  0.00    +0.296 HD
ENDBRANCH  14  16
ENDBRANCH  10  14
ENDBRANCH   1  11
BRANCH   9  18
ATOM     18  C   UNL     1       8.823  -5.123  25.545  0.00  0.00    +0.339 C 
ATOM     19  O   UNL     1       8.429  -5.051  26.700  0.00  0.00    -0.245 OA
BRANCH  18  20
ATOM     20  O   UNL     1       9.829  -5.963  25.188  0.00  0.00    -0.477 OA
ATOM     21  H   UNL     1       9.939  -6.014  24.222  0.00  0.00    +0.295 HD
ENDBRANCH  18  20
ENDBRANCH   9  18
TORSDOF 5
ENDMDL
MODEL 3
REMARK VINA RESULT:      -5.7      3.354      5.634
REMARK  Name = 
REMARK  5 active torsions:
REMARK  status: ('A' for Active; 'I' for Inactive)
REMARK    1  A    between atoms: O_1  and  C_2
REMARK    2  A    between atoms: C_2  and  C_4
REMARK    3  A    between atoms: N_6  and  C_7
REMARK    4  A    between atoms: C_8  and  C_9
REMARK    5  A    between atoms: C_9  and  O_10
REMARK                            x       y       z     vdW  Elec       q    Type
REMARK                         _______ _______ _______ _____ _____    ______ ____
ROOT
ATOM      1  C   UNL     1       4.844  -6.452  24.231  0.00  0.00    +0.087 A 
ATOM      2  S   UNL     1       4.888  -6.639  25.919  0.00  0.00    -0.075 S 
ATOM      3  C   UNL     1       6.205  -5.575  26.047  0.00  0.00    +0.021 A 
ATOM      4  C   UNL     1       6.785  -5.159  27.363  0.00  0.00    +0.202 C 
ATOM      5  O   UNL     1       7.767  -4.126  27.145  0.00  0.00    -0.374 OA
ATOM      6  C   UNL     1       8.685  -4.444  26.087  0.00  0.00    +0.165 C 
ATOM      7  C   UNL     1       7.966  -4.410  24.728  0.00  0.00    +0.065 C 
ATOM      8  C   UNL     1       6.707  -5.221  24.809  0.00  0.00    -0.017 A 
ATOM      9  C   UNL     1       5.894  -5.709  23.719  0.00  0.00    +0.091 A 
ENDROOT
BRANCH   1  11
ATOM     10  C   UNL     1       2.742  -6.336  23.091  0.00  0.00    +0.326 C 
ATOM     11  N   UNL     1       3.763  -7.080  23.652  0.00  0.00    -0.270 N 
ATOM     12  H   UNL     1       3.472  -7.973  24.047  0.00  0.00    +0.156 HD
ATOM     13  O   UNL     1       2.671  -5.126  22.933  0.00  0.00    -0.263 OA
BRANCH  10  14
ATOM     14  C   UNL     1       1.519  -7.183  22.708  0.00  0.00    +0.393 C 
ATOM     15  O   UNL     1       0.444  -7.043  23.259  0.00  0.00    -0.240 OA
BRANCH  14  16
ATOM     16  O   UNL     1       1.804  -8.033  21.709  0.00  0.00    -0.474 OA
ATOM     17  H   UNL     1       2.744  -8.323  21.782  0.00  0.00    +0.296 HD
ENDBRANCH  14  16
ENDBRANCH  10  14
ENDBRANCH   1  11
BRANCH   9  18
ATOM     18  C   UNL     1       6.192  -5.478  22.303  0.00  0.00    +0.339 C 
ATOM     19  O   UNL     1       6.975  -6.162  21.659  0.00  0.00    -0.245 OA
BRANCH  18  20
ATOM     20  O   UNL     1       5.448  -4.505  21.714  0.00  0.00    -0.477 OA
ATOM     21  H   UNL     1       4.763  -4.155  22.312  0.00  0.00    +0.295 HD
ENDBRANCH  18  20
ENDBRANCH   9  18
TORSDOF 5
ENDMDL
MODEL 4
REMARK VINA RESULT:      -5.7      2.581      6.371
REMARK  Name = 
REMARK  5 active torsions:
REMARK  status: ('A' for Active; 'I' for Inactive)
REMARK    1  A    between atoms: O_1  and  C_2
REMARK    2  A    between atoms: C_2  and  C_4
REMARK    3  A    between atoms: N_6  and  C_7
REMARK    4  A    between atoms: C_8  and  C_9
REMARK    5  A    between atoms: C_9  and  O_10
REMARK                            x       y       z     vdW  Elec       q    Type
REMARK                         _______ _______ _______ _____ _____    ______ ____
ROOT
ATOM      1  C   UNL     1       6.793  -4.348  25.330  0.00  0.00    +0.087 A 
ATOM      2  S   UNL     1       5.765  -3.152  24.697  0.00  0.00    -0.075 S 
ATOM      3  C   UNL     1       7.079  -2.313  24.029  0.00  0.00    +0.021 A 
ATOM      4  C   UNL     1       6.913  -1.091  23.180  0.00  0.00    +0.202 C 
ATOM      5  O   UNL     1       8.191  -0.717  22.626  0.00  0.00    -0.374 OA
ATOM      6  C   UNL     1       9.241  -0.706  23.606  0.00  0.00    +0.165 C 
ATOM      7  C   UNL     1       9.563  -2.139  24.060  0.00  0.00    +0.065 C 
ATOM      8  C   UNL     1       8.291  -2.844  24.428  0.00  0.00    -0.017 A 
ATOM      9  C   UNL     1       8.141  -4.069  25.178  0.00  0.00    +0.091 A 
ENDROOT
BRANCH   1  11
ATOM     10  C   UNL     1       6.009  -5.513  27.269  0.00  0.00    +0.326 C 
ATOM     11  N   UNL     1       6.106  -5.399  25.895  0.00  0.00    -0.270 N 
ATOM     12  H   UNL     1       6.110  -6.287  25.393  0.00  0.00    +0.156 HD
ATOM     13  O   UNL     1       6.386  -4.735  28.132  0.00  0.00    -0.263 OA
BRANCH  10  14
ATOM     14  C   UNL     1       5.418  -6.857  27.723  0.00  0.00    +0.393 C 
ATOM     15  O   UNL     1       5.813  -7.427  28.721  0.00  0.00    -0.240 OA
BRANCH  14  16
ATOM     16  O   UNL     1       4.435  -7.262  26.904  0.00  0.00    -0.474 OA
ATOM     17  H   UNL     1       3.976  -8.041  27.300  0.00  0.00    +0.296 HD
ENDBRANCH  14  16
ENDBRANCH  10  14
ENDBRANCH   1  11
BRANCH   9  18
ATOM     18  C   UNL     1       9.260  -4.844  25.721  0.00  0.00    +0.339 C 
ATOM     19  O   UNL     1      10.168  -5.288  25.033  0.00  0.00    -0.245 OA
BRANCH  18  20
ATOM     20  O   UNL     1       9.281  -4.945  27.076  0.00  0.00    -0.477 OA
ATOM     21  H   UNL     1       8.393  -5.095  27.446  0.00  0.00    +0.295 HD
ENDBRANCH  18  20
ENDBRANCH   9  18
TORSDOF 5
ENDMDL
MODEL 5
REMARK VINA RESULT:      -5.7      2.228      2.938
REMARK  Name = 
REMARK  5 active torsions:
REMARK  status: ('A' for Active; 'I' for Inactive)
REMARK    1  A    between atoms: O_1  and  C_2
REMARK    2  A    between atoms: C_2  and  C_4
REMARK    3  A    between atoms: N_6  and  C_7
REMARK    4  A    between atoms: C_8  and  C_9
REMARK    5  A    between atoms: C_9  and  O_10
REMARK                            x       y       z     vdW  Elec       q    Type
REMARK                         _______ _______ _______ _____ _____    ______ ____
ROOT
ATOM      1  C   UNL     1       7.876  -3.794  23.774  0.00  0.00    +0.087 A 
ATOM      2  S   UNL     1       6.429  -3.685  22.889  0.00  0.00    -0.075 S 
ATOM      3  C   UNL     1       5.594  -4.583  24.063  0.00  0.00    +0.021 A 
ATOM      4  C   UNL     1       4.120  -4.839  23.989  0.00  0.00    +0.202 C 
ATOM      5  O   UNL     1       3.685  -5.473  25.208  0.00  0.00    -0.374 OA
ATOM      6  C   UNL     1       4.530  -6.568  25.599  0.00  0.00    +0.165 C 
ATOM      7  C   UNL     1       5.903  -6.047  26.053  0.00  0.00    +0.065 C 
ATOM      8  C   UNL     1       6.443  -5.099  25.023  0.00  0.00    -0.017 A 
ATOM      9  C   UNL     1       7.797  -4.618  24.883  0.00  0.00    +0.091 A 
ENDROOT
BRANCH   1  11
ATOM     10  C   UNL     1       9.173  -1.782  23.730  0.00  0.00    +0.326 C 
ATOM     11  N   UNL     1       8.892  -3.039  23.230  0.00  0.00    -0.270 N 
ATOM     12  H   UNL     1       9.082  -3.154  22.235  0.00  0.00    +0.156 HD
ATOM     13  O   UNL     1       8.691  -1.217  24.701  0.00  0.00    -0.263 OA
BRANCH  10  14
ATOM     14  C   UNL     1      10.166  -0.995  22.861  0.00  0.00    +0.393 C 
ATOM     15  O   UNL     1      10.720   0.008  23.269  0.00  0.00    -0.240 OA
BRANCH  14  16
ATOM     16  O   UNL     1      10.335  -1.574  21.662  0.00  0.00    -0.474 OA
ATOM     17  H   UNL     1      11.204  -1.300  21.284  0.00  0.00    +0.296 HD
ENDBRANCH  14  16
ENDBRANCH  10  14
ENDBRANCH   1  11
BRANCH   9  18
ATOM     18  C   UNL     1       8.902  -5.002  25.767  0.00  0.00    +0.339 C 
ATOM     19  O   UNL     1       8.995  -4.632  26.929  0.00  0.00    -0.245 OA
BRANCH  18  20
ATOM     20  O   UNL     1       9.773  -5.899  25.235  0.00  0.00    -0.477 OA
ATOM     21  H   UNL     1      10.698  -5.686  25.452  0.00  0.00    +0.295 HD
ENDBRANCH  18  20
ENDBRANCH   9  18
TORSDOF 5
ENDMDL
MODEL 6
REMARK VINA RESULT:      -5.6      2.509      4.017
REMARK  Name = 
REMARK  5 active torsions:
REMARK  status: ('A' for Active; 'I' for Inactive)
REMARK    1  A    between atoms: O_1  and  C_2
REMARK    2  A    between atoms: C_2  and  C_4
REMARK    3  A    between atoms: N_6  and  C_7
REMARK    4  A    between atoms: C_8  and  C_9
REMARK    5  A    between atoms: C_9  and  O_10
REMARK                            x       y       z     vdW  Elec       q    Type
REMARK                         _______ _______ _______ _____ _____    ______ ____
ROOT
ATOM      1  C   UNL     1       7.965  -1.324  23.705  0.00  0.00    +0.087 A 
ATOM      2  S   UNL     1       7.433  -2.678  22.826  0.00  0.00    -0.075 S 
ATOM      3  C   UNL     1       7.455  -3.646  24.220  0.00  0.00    +0.021 A 
ATOM      4  C   UNL     1       6.989  -5.069  24.225  0.00  0.00    +0.202 C 
ATOM      5  O   UNL     1       6.969  -5.559  25.580  0.00  0.00    -0.374 OA
ATOM      6  C   UNL     1       8.175  -5.254  26.301  0.00  0.00    +0.165 C 
ATOM      7  C   UNL     1       8.267  -3.744  26.572  0.00  0.00    +0.065 C 
ATOM      8  C   UNL     1       8.022  -2.992  25.297  0.00  0.00    -0.017 A 
ATOM      9  C   UNL     1       8.304  -1.603  25.018  0.00  0.00    +0.091 A 
ENDROOT
BRANCH   1  11
ATOM     10  C   UNL     1       9.145   0.290  22.388  0.00  0.00    +0.326 C 
ATOM     11  N   UNL     1       7.971  -0.169  22.955  0.00  0.00    -0.270 N 
ATOM     12  H   UNL     1       7.308   0.562  23.212  0.00  0.00    +0.156 HD
ATOM     13  O   UNL     1      10.246  -0.240  22.368  0.00  0.00    -0.263 OA
BRANCH  10  14
ATOM     14  C   UNL     1       9.017   1.700  21.792  0.00  0.00    +0.393 C 
ATOM     15  O   UNL     1       7.934   2.204  21.561  0.00  0.00    -0.240 OA
BRANCH  14  16
ATOM     16  O   UNL     1      10.220   2.264  21.606  0.00  0.00    -0.474 OA
ATOM     17  H   UNL     1      10.925   1.585  21.731  0.00  0.00    +0.296 HD
ENDBRANCH  14  16
ENDBRANCH  10  14
ENDBRANCH   1  11
BRANCH   9  18
ATOM     18  C   UNL     1       8.903  -0.675  25.982  0.00  0.00    +0.339 C 
ATOM     19  O   UNL     1       8.534  -0.581  27.144  0.00  0.00    -0.245 OA
BRANCH  18  20
ATOM     20  O   UNL     1       9.984   0.007  25.522  0.00  0.00    -0.477 OA
ATOM     21  H   UNL     1      10.713   0.017  26.167  0.00  0.00    +0.295 HD
ENDBRANCH  18  20
ENDBRANCH   9  18
TORSDOF 5
ENDMDL
MODEL 7
REMARK VINA RESULT:      -5.5      2.131      5.906
REMARK  Name = 
REMARK  5 active torsions:
REMARK  status: ('A' for Active; 'I' for Inactive)
REMARK    1  A    between atoms: O_1  and  C_2
REMARK    2  A    between atoms: C_2  and  C_4
REMARK    3  A    between atoms: N_6  and  C_7
REMARK    4  A    between atoms: C_8  and  C_9
REMARK    5  A    between atoms: C_9  and  O_10
REMARK                            x       y       z     vdW  Elec       q    Type
REMARK                         _______ _______ _______ _____ _____    ______ ____
ROOT
ATOM      1  C   UNL     1       7.490  -5.006  25.821  0.00  0.00    +0.087 A 
ATOM      2  S   UNL     1       8.930  -4.153  26.115  0.00  0.00    -0.075 S 
ATOM      3  C   UNL     1       8.710  -3.214  24.719  0.00  0.00    +0.021 A 
ATOM      4  C   UNL     1       9.630  -2.093  24.344  0.00  0.00    +0.202 C 
ATOM      5  O   UNL     1       9.083  -1.386  23.213  0.00  0.00    -0.374 OA
ATOM      6  C   UNL     1       8.646  -2.265  22.163  0.00  0.00    +0.165 C 
ATOM      7  C   UNL     1       7.400  -3.048  22.607  0.00  0.00    +0.065 C 
ATOM      8  C   UNL     1       7.649  -3.661  23.954  0.00  0.00    -0.017 A 
ATOM      9  C   UNL     1       6.896  -4.706  24.607  0.00  0.00    +0.091 A 
ENDROOT
BRANCH   1  11
ATOM     10  C   UNL     1       6.217  -5.488  27.790  0.00  0.00    +0.326 C 
ATOM     11  N   UNL     1       7.156  -5.861  26.848  0.00  0.00    -0.270 N 
ATOM     12  H   UNL     1       7.885  -6.484  27.196  0.00  0.00    +0.156 HD
ATOM     13  O   UNL     1       5.516  -4.487  27.821  0.00  0.00    -0.263 OA
BRANCH  10  14
ATOM     14  C   UNL     1       6.143  -6.453  28.984  0.00  0.00    +0.393 C 
ATOM     15  O   UNL     1       6.443  -6.105  30.110  0.00  0.00    -0.240 OA
BRANCH  14  16
ATOM     16  O   UNL     1       5.693  -7.661  28.610  0.00  0.00    -0.474 OA
ATOM     17  H   UNL     1       6.452  -8.288  28.544  0.00  0.00    +0.296 HD
ENDBRANCH  14  16
ENDBRANCH  10  14
ENDBRANCH   1  11
BRANCH   9  18
ATOM     18  C   UNL     1       5.720  -5.359  24.024  0.00  0.00    +0.339 C 
ATOM     19  O   UNL     1       5.744  -5.969  22.965  0.00  0.00    -0.245 OA
BRANCH  18  20
ATOM     20  O   UNL     1       4.608  -5.336  24.806  0.00  0.00    -0.477 OA
ATOM     21  H   UNL     1       4.617  -6.041  25.477  0.00  0.00    +0.295 HD
ENDBRANCH  18  20
ENDBRANCH   9  18
TORSDOF 5
ENDMDL
MODEL 8
REMARK VINA RESULT:      -5.5      3.040      6.804
REMARK  Name = 
REMARK  5 active torsions:
REMARK  status: ('A' for Active; 'I' for Inactive)
REMARK    1  A    between atoms: O_1  and  C_2
REMARK    2  A    between atoms: C_2  and  C_4
REMARK    3  A    between atoms: N_6  and  C_7
REMARK    4  A    between atoms: C_8  and  C_9
REMARK    5  A    between atoms: C_9  and  O_10
REMARK                            x       y       z     vdW  Elec       q    Type
REMARK                         _______ _______ _______ _____ _____    ______ ____
ROOT
ATOM      1  C   UNL     1       8.794  -2.259  25.162  0.00  0.00    +0.087 A 
ATOM      2  S   UNL     1       9.147  -2.465  23.512  0.00  0.00    -0.075 S 
ATOM      3  C   UNL     1       9.387  -0.797  23.311  0.00  0.00    +0.021 A 
ATOM      4  C   UNL     1       9.843  -0.195  22.018  0.00  0.00    +0.202 C 
ATOM      5  O   UNL     1      10.119   1.206  22.215  0.00  0.00    -0.374 OA
ATOM      6  C   UNL     1       9.073   1.885  22.930  0.00  0.00    +0.165 C 
ATOM      7  C   UNL     1       9.037   1.418  24.394  0.00  0.00    +0.065 C 
ATOM      8  C   UNL     1       9.037  -0.082  24.440  0.00  0.00    -0.017 A 
ATOM      9  C   UNL     1       8.710  -0.935  25.559  0.00  0.00    +0.091 A 
ENDROOT
BRANCH   1  11
ATOM     10  C   UNL     1       7.395  -3.888  26.221  0.00  0.00    +0.326 C 
ATOM     11  N   UNL     1       8.648  -3.454  25.830  0.00  0.00    -0.270 N 
ATOM     12  H   UNL     1       9.410  -3.747  26.442  0.00  0.00    +0.156 HD
ATOM     13  O   UNL     1       6.303  -3.394  25.982  0.00  0.00    -0.263 OA
BRANCH  10  14
ATOM     14  C   UNL     1       7.442  -5.109  27.152  0.00  0.00    +0.393 C 
ATOM     15  O   UNL     1       6.715  -5.205  28.122  0.00  0.00    -0.240 OA
BRANCH  14  16
ATOM     16  O   UNL     1       8.341  -6.012  26.730  0.00  0.00    -0.474 OA
ATOM     17  H   UNL     1       9.238  -5.761  27.056  0.00  0.00    +0.296 HD
ENDBRANCH  14  16
ENDBRANCH  10  14
ENDBRANCH   1  11
BRANCH   9  18
ATOM     18  C   UNL     1       8.307  -0.442  26.879  0.00  0.00    +0.339 C 
ATOM     19  O   UNL     1       7.149  -0.189  27.179  0.00  0.00    -0.245 OA
BRANCH  18  20
ATOM     20  O   UNL     1       9.307  -0.389  27.798  0.00  0.00    -0.477 OA
ATOM     21  H   UNL     1       9.126  -0.954  28.570  0.00  0.00    +0.295 HD
ENDBRANCH  18  20
ENDBRANCH   9  18
TORSDOF 5
ENDMDL
MODEL 9
REMARK VINA RESULT:      -5.5      2.917      6.265
REMARK  Name = 
REMARK  5 active torsions:
REMARK  status: ('A' for Active; 'I' for Inactive)
REMARK    1  A    between atoms: O_1  and  C_2
REMARK    2  A    between atoms: C_2  and  C_4
REMARK    3  A    between atoms: N_6  and  C_7
REMARK    4  A    between atoms: C_8  and  C_9
REMARK    5  A    between atoms: C_9  and  O_10
REMARK                            x       y       z     vdW  Elec       q    Type
REMARK                         _______ _______ _______ _____ _____    ______ ____
ROOT
ATOM      1  C   UNL     1       7.630  -1.694  24.005  0.00  0.00    +0.087 A 
ATOM      2  S   UNL     1       6.384  -0.607  24.396  0.00  0.00    -0.075 S 
ATOM      3  C   UNL     1       6.971   0.534  23.285  0.00  0.00    +0.021 A 
ATOM      4  C   UNL     1       6.268   1.825  23.002  0.00  0.00    +0.202 C 
ATOM      5  O   UNL     1       6.915   2.489  21.898  0.00  0.00    -0.374 OA
ATOM      6  C   UNL     1       8.345   2.528  22.032  0.00  0.00    +0.165 C 
ATOM      7  C   UNL     1       8.935   1.118  21.870  0.00  0.00    +0.065 C 
ATOM      8  C   UNL     1       8.191   0.161  22.753  0.00  0.00    -0.017 A 
ATOM      9  C   UNL     1       8.584  -1.172  23.147  0.00  0.00    +0.091 A 
ENDROOT
BRANCH   1  11
ATOM     10  C   UNL     1       8.065  -3.165  25.843  0.00  0.00    +0.326 C 
ATOM     11  N   UNL     1       7.480  -2.920  24.615  0.00  0.00    -0.270 N 
ATOM     12  H   UNL     1       7.397  -3.738  24.011  0.00  0.00    +0.156 HD
ATOM     13  O   UNL     1       8.667  -2.393  26.574  0.00  0.00    -0.263 OA
BRANCH  10  14
ATOM     14  C   UNL     1       7.996  -4.642  26.259  0.00  0.00    +0.393 C 
ATOM     15  O   UNL     1       7.156  -5.398  25.810  0.00  0.00    -0.240 OA
BRANCH  14  16
ATOM     16  O   UNL     1       8.972  -4.952  27.127  0.00  0.00    -0.474 OA
ATOM     17  H   UNL     1       9.656  -4.241  27.121  0.00  0.00    +0.296 HD
ENDBRANCH  14  16
ENDBRANCH  10  14
ENDBRANCH   1  11
BRANCH   9  18
ATOM     18  C   UNL     1       9.829  -1.821  22.726  0.00  0.00    +0.339 C 
ATOM     19  O   UNL     1      10.474  -2.571  23.445  0.00  0.00    -0.245 OA
BRANCH  18  20
ATOM     20  O   UNL     1      10.167  -1.618  21.426  0.00  0.00    -0.477 OA
ATOM     21  H   UNL     1       9.425  -1.794  20.822  0.00  0.00    +0.295 HD
ENDBRANCH  18  20
ENDBRANCH   9  18
TORSDOF 5
ENDMDL
