MODEL 1
REMARK VINA RESULT:      -5.9      0.000      0.000
REMARK  Name = 
REMARK  8 active torsions:
REMARK  status: ('A' for Active; 'I' for Inactive)
REMARK    1  A    between atoms: C_5  and  C_6
REMARK    2  A    between atoms: C_7  and  C_8
REMARK    3  A    between atoms: C_8  and  N_9
REMARK    4  A    between atoms: N_9  and  C_10
REMARK    5  A    between atoms: C_10  and  C_11
REMARK    6  A    between atoms: C_11  and  N_12
REMARK    7  A    between atoms: N_12  and  S_13
REMARK    8  A    between atoms: S_13  and  C_16
REMARK                            x       y       z     vdW  Elec       q    Type
REMARK                         _______ _______ _______ _____ _____    ______ ____
ROOT
ATOM      1  N   UNL     1       4.963  -6.333  23.047  0.00  0.00    -0.189 NA
ATOM      2  H   UNL     1       5.151  -7.226  22.590  0.00  0.00    +0.148 HD
ENDROOT
BRANCH   1   3
ATOM      3  S   UNL     1       5.847  -5.105  22.282  0.00  0.00    +0.059 S 
ATOM      4  O   UNL     1       4.942  -3.990  22.096  0.00  0.00    -0.153 OA
ATOM      5  O   UNL     1       6.518  -5.713  21.155  0.00  0.00    -0.153 OA
BRANCH   3   6
ATOM      6  C   UNL     1       7.063  -4.671  23.506  0.00  0.00    +0.113 A 
ATOM      7  C   UNL     1       8.013  -3.638  23.276  0.00  0.00    +0.011 A 
ATOM      8  C   UNL     1       8.096  -2.831  22.118  0.00  0.00    +0.030 A 
ATOM      9  C   UNL     1       9.074  -1.853  22.023  0.00  0.00    +0.111 A 
ATOM     10  N   UNL     1       9.987  -1.616  22.982  0.00  0.00    -0.263 NA
ATOM     11  C   UNL     1       9.909  -2.389  24.086  0.00  0.00    +0.119 A 
ATOM     12  C   UNL     1       8.963  -3.398  24.294  0.00  0.00    +0.002 A 
ATOM     13  C   UNL     1       8.956  -4.153  25.479  0.00  0.00    +0.010 A 
ATOM     14  C   UNL     1       8.011  -5.155  25.683  0.00  0.00    +0.003 A 
ATOM     15  C   UNL     1       7.064  -5.414  24.698  0.00  0.00    +0.029 A 
ENDBRANCH   3   6
ENDBRANCH   1   3
BRANCH   1  16
ATOM     16  C   UNL     1       3.552  -6.005  23.308  0.00  0.00    +0.121 C 
BRANCH  16  17
ATOM     17  C   UNL     1       3.342  -5.474  24.733  0.00  0.00    +0.098 C 
BRANCH  17  18
ATOM     18  N   UNL     1       3.272  -4.008  24.785  0.00  0.00    -0.311 NA
ATOM     19  H   UNL     1       3.529  -3.631  23.871  0.00  0.00    +0.122 HD
BRANCH  18  20
ATOM     20  C   UNL     1       4.171  -3.442  25.789  0.00  0.00    +0.108 C 
BRANCH  20  22
ATOM     21  C   UNL     1       5.956  -1.704  25.808  0.00  0.00    +0.005 C 
ATOM     22  C   UNL     1       4.944  -2.322  25.181  0.00  0.00    -0.011 C 
BRANCH  21  27
ATOM     23 BR   UNL     1       9.530   2.656  23.350  0.00  0.00    -0.050 Br
ATOM     24  C   UNL     1       8.391   1.360  24.120  0.00  0.00    +0.018 A 
ATOM     25  C   UNL     1       7.266   0.927  23.423  0.00  0.00    +0.016 A 
ATOM     26  C   UNL     1       6.444  -0.056  23.978  0.00  0.00    +0.009 A 
ATOM     27  C   UNL     1       6.738  -0.605  25.234  0.00  0.00    -0.025 A 
ATOM     28  C   UNL     1       7.869  -0.153  25.925  0.00  0.00    +0.009 A 
ATOM     29  C   UNL     1       8.693   0.830  25.371  0.00  0.00    +0.016 A 
ENDBRANCH  21  27
ENDBRANCH  20  22
ENDBRANCH  18  20
ENDBRANCH  17  18
ENDBRANCH  16  17
ENDBRANCH   1  16
TORSDOF 8
ENDMDL
MODEL 2
REMARK VINA RESULT:      -5.8      2.322      2.894
REMARK  Name = 
REMARK  8 active torsions:
REMARK  status: ('A' for Active; 'I' for Inactive)
REMARK    1  A    between atoms: C_5  and  C_6
REMARK    2  A    between atoms: C_7  and  C_8
REMARK    3  A    between atoms: C_8  and  N_9
REMARK    4  A    between atoms: N_9  and  C_10
REMARK    5  A    between atoms: C_10  and  C_11
REMARK    6  A    between atoms: C_11  and  N_12
REMARK    7  A    between atoms: N_12  and  S_13
REMARK    8  A    between atoms: S_13  and  C_16
REMARK                            x       y       z     vdW  Elec       q    Type
REMARK                         _______ _______ _______ _____ _____    ______ ____
ROOT
ATOM      1  N   UNL     1       6.913  -5.941  26.493  0.00  0.00    -0.189 NA
ATOM      2  H   UNL     1       6.253  -6.037  25.719  0.00  0.00    +0.148 HD
ENDROOT
BRANCH   1   3
ATOM      3  S   UNL     1       8.195  -4.934  26.026  0.00  0.00    +0.059 S 
ATOM      4  O   UNL     1       9.313  -5.798  25.711  0.00  0.00    -0.153 OA
ATOM      5  O   UNL     1       8.310  -3.907  27.036  0.00  0.00    -0.153 OA
BRANCH   3   6
ATOM      6  C   UNL     1       7.590  -4.193  24.525  0.00  0.00    +0.113 A 
ATOM      7  C   UNL     1       8.384  -3.285  23.773  0.00  0.00    +0.011 A 
ATOM      8  C   UNL     1       9.707  -2.892  24.078  0.00  0.00    +0.030 A 
ATOM      9  C   UNL     1      10.372  -1.996  23.253  0.00  0.00    +0.111 A 
ATOM     10  N   UNL     1       9.825  -1.446  22.154  0.00  0.00    -0.263 NA
ATOM     11  C   UNL     1       8.559  -1.820  21.866  0.00  0.00    +0.119 A 
ATOM     12  C   UNL     1       7.797  -2.720  22.618  0.00  0.00    +0.002 A 
ATOM     13  C   UNL     1       6.485  -3.052  22.240  0.00  0.00    +0.010 A 
ATOM     14  C   UNL     1       5.730  -3.950  22.990  0.00  0.00    +0.003 A 
ATOM     15  C   UNL     1       6.282  -4.521  24.132  0.00  0.00    +0.029 A 
ENDBRANCH   3   6
ENDBRANCH   1   3
BRANCH   1  16
ATOM     16  C   UNL     1       6.344  -5.640  27.816  0.00  0.00    +0.121 C 
BRANCH  16  17
ATOM     17  C   UNL     1       5.010  -4.887  27.708  0.00  0.00    +0.098 C 
BRANCH  17  18
ATOM     18  N   UNL     1       5.187  -3.429  27.669  0.00  0.00    -0.311 NA
ATOM     19  H   UNL     1       5.053  -3.054  28.609  0.00  0.00    +0.122 HD
BRANCH  18  20
ATOM     20  C   UNL     1       4.239  -2.777  26.768  0.00  0.00    +0.108 C 
BRANCH  20  22
ATOM     21  C   UNL     1       6.137  -1.246  26.258  0.00  0.00    +0.005 C 
ATOM     22  C   UNL     1       4.968  -1.803  25.908  0.00  0.00    -0.011 C 
BRANCH  21  27
ATOM     23 BR   UNL     1       9.488   2.471  22.682  0.00  0.00    -0.050 Br
ATOM     24  C   UNL     1       8.429   1.378  23.802  0.00  0.00    +0.018 A 
ATOM     25  C   UNL     1       7.112   1.095  23.448  0.00  0.00    +0.016 A 
ATOM     26  C   UNL     1       6.342   0.259  24.259  0.00  0.00    +0.009 A 
ATOM     27  C   UNL     1       6.880  -0.291  25.431  0.00  0.00    -0.025 A 
ATOM     28  C   UNL     1       8.203   0.011  25.777  0.00  0.00    +0.009 A 
ATOM     29  C   UNL     1       8.977   0.846  24.967  0.00  0.00    +0.016 A 
ENDBRANCH  21  27
ENDBRANCH  20  22
ENDBRANCH  18  20
ENDBRANCH  17  18
ENDBRANCH  16  17
ENDBRANCH   1  16
TORSDOF 8
ENDMDL
MODEL 3
REMARK VINA RESULT:      -5.7      2.474      4.234
REMARK  Name = 
REMARK  8 active torsions:
REMARK  status: ('A' for Active; 'I' for Inactive)
REMARK    1  A    between atoms: C_5  and  C_6
REMARK    2  A    between atoms: C_7  and  C_8
REMARK    3  A    between atoms: C_8  and  N_9
REMARK    4  A    between atoms: N_9  and  C_10
REMARK    5  A    between atoms: C_10  and  C_11
REMARK    6  A    between atoms: C_11  and  N_12
REMARK    7  A    between atoms: N_12  and  S_13
REMARK    8  A    between atoms: S_13  and  C_16
REMARK                            x       y       z     vdW  Elec       q    Type
REMARK                         _______ _______ _______ _____ _____    ______ ____
ROOT
ATOM      1  N   UNL     1       5.467  -5.630  26.513  0.00  0.00    -0.189 NA
ATOM      2  H   UNL     1       4.950  -6.511  26.538  0.00  0.00    +0.148 HD
ENDROOT
BRANCH   1   3
ATOM      3  S   UNL     1       4.381  -4.337  26.356  0.00  0.00    +0.059 S 
ATOM      4  O   UNL     1       4.451  -3.581  27.589  0.00  0.00    -0.153 OA
ATOM      5  O   UNL     1       3.131  -4.895  25.896  0.00  0.00    -0.153 OA
BRANCH   3   6
ATOM      6  C   UNL     1       5.097  -3.376  25.042  0.00  0.00    +0.113 A 
ATOM      7  C   UNL     1       5.362  -3.943  23.765  0.00  0.00    +0.011 A 
ATOM      8  C   UNL     1       5.075  -5.271  23.373  0.00  0.00    +0.030 A 
ATOM      9  C   UNL     1       5.383  -5.697  22.090  0.00  0.00    +0.111 A 
ATOM     10  N   UNL     1       5.966  -4.914  21.164  0.00  0.00    -0.263 NA
ATOM     11  C   UNL     1       6.243  -3.647  21.541  0.00  0.00    +0.119 A 
ATOM     12  C   UNL     1       5.970  -3.107  22.801  0.00  0.00    +0.002 A 
ATOM     13  C   UNL     1       6.292  -1.773  23.105  0.00  0.00    +0.010 A 
ATOM     14  C   UNL     1       6.017  -1.239  24.361  0.00  0.00    +0.003 A 
ATOM     15  C   UNL     1       5.419  -2.038  25.329  0.00  0.00    +0.029 A 
ENDBRANCH   3   6
ENDBRANCH   1   3
BRANCH   1  16
ATOM     16  C   UNL     1       6.507  -5.442  27.537  0.00  0.00    +0.121 C 
BRANCH  16  17
ATOM     17  C   UNL     1       7.756  -4.755  26.965  0.00  0.00    +0.098 C 
BRANCH  17  18
ATOM     18  N   UNL     1       8.649  -5.694  26.274  0.00  0.00    -0.311 NA
ATOM     19  H   UNL     1       9.520  -5.771  26.802  0.00  0.00    +0.122 HD
BRANCH  18  20
ATOM     20  C   UNL     1       8.967  -5.263  24.915  0.00  0.00    +0.108 C 
BRANCH  20  22
ATOM     21  C   UNL     1       9.771  -3.075  24.035  0.00  0.00    +0.005 C 
ATOM     22  C   UNL     1       8.978  -3.774  24.861  0.00  0.00    -0.011 C 
BRANCH  21  27
ATOM     23 BR   UNL     1       9.553   3.048  23.500  0.00  0.00    -0.050 Br
ATOM     24  C   UNL     1       9.677   1.173  23.687  0.00  0.00    +0.018 A 
ATOM     25  C   UNL     1       9.523   0.591  24.944  0.00  0.00    +0.016 A 
ATOM     26  C   UNL     1       9.580  -0.798  25.075  0.00  0.00    +0.009 A 
ATOM     27  C   UNL     1       9.798  -1.612  23.955  0.00  0.00    -0.025 A 
ATOM     28  C   UNL     1       9.959  -1.011  22.700  0.00  0.00    +0.009 A 
ATOM     29  C   UNL     1       9.901   0.379  22.565  0.00  0.00    +0.016 A 
ENDBRANCH  21  27
ENDBRANCH  20  22
ENDBRANCH  18  20
ENDBRANCH  17  18
ENDBRANCH  16  17
ENDBRANCH   1  16
TORSDOF 8
ENDMDL
MODEL 4
REMARK VINA RESULT:      -5.7      1.510      2.396
REMARK  Name = 
REMARK  8 active torsions:
REMARK  status: ('A' for Active; 'I' for Inactive)
REMARK    1  A    between atoms: C_5  and  C_6
REMARK    2  A    between atoms: C_7  and  C_8
REMARK    3  A    between atoms: C_8  and  N_9
REMARK    4  A    between atoms: N_9  and  C_10
REMARK    5  A    between atoms: C_10  and  C_11
REMARK    6  A    between atoms: C_11  and  N_12
REMARK    7  A    between atoms: N_12  and  S_13
REMARK    8  A    between atoms: S_13  and  C_16
REMARK                            x       y       z     vdW  Elec       q    Type
REMARK                         _______ _______ _______ _____ _____    ______ ____
ROOT
ATOM      1  N   UNL     1       4.415  -3.837  22.989  0.00  0.00    -0.189 NA
ATOM      2  H   UNL     1       4.746  -3.014  23.496  0.00  0.00    +0.148 HD
ENDROOT
BRANCH   1   3
ATOM      3  S   UNL     1       5.723  -4.593  22.217  0.00  0.00    +0.059 S 
ATOM      4  O   UNL     1       5.744  -4.104  20.854  0.00  0.00    -0.153 OA
ATOM      5  O   UNL     1       5.614  -6.006  22.498  0.00  0.00    -0.153 OA
BRANCH   3   6
ATOM      6  C   UNL     1       7.129  -3.942  23.092  0.00  0.00    +0.113 A 
ATOM      7  C   UNL     1       7.405  -4.314  24.436  0.00  0.00    +0.011 A 
ATOM      8  C   UNL     1       6.659  -5.231  25.211  0.00  0.00    +0.030 A 
ATOM      9  C   UNL     1       7.042  -5.507  26.516  0.00  0.00    +0.111 A 
ATOM     10  N   UNL     1       8.099  -4.937  27.120  0.00  0.00    -0.263 NA
ATOM     11  C   UNL     1       8.809  -4.058  26.379  0.00  0.00    +0.119 A 
ATOM     12  C   UNL     1       8.522  -3.710  25.055  0.00  0.00    +0.002 A 
ATOM     13  C   UNL     1       9.319  -2.785  24.359  0.00  0.00    +0.010 A 
ATOM     14  C   UNL     1       9.032  -2.442  23.041  0.00  0.00    +0.003 A 
ATOM     15  C   UNL     1       7.938  -3.020  22.406  0.00  0.00    +0.029 A 
ENDBRANCH   3   6
ENDBRANCH   1   3
BRANCH   1  16
ATOM     16  C   UNL     1       3.518  -4.749  23.716  0.00  0.00    +0.121 C 
BRANCH  16  17
ATOM     17  C   UNL     1       3.111  -4.180  25.083  0.00  0.00    +0.098 C 
BRANCH  17  18
ATOM     18  N   UNL     1       3.540  -2.788  25.266  0.00  0.00    -0.311 NA
ATOM     19  H   UNL     1       4.053  -2.487  24.436  0.00  0.00    +0.122 HD
BRANCH  18  20
ATOM     20  C   UNL     1       4.405  -2.619  26.432  0.00  0.00    +0.108 C 
BRANCH  20  22
ATOM     21  C   UNL     1       5.590  -1.027  24.925  0.00  0.00    +0.005 C 
ATOM     22  C   UNL     1       5.523  -1.698  26.085  0.00  0.00    -0.011 C 
BRANCH  21  27
ATOM     23 BR   UNL     1      10.378   2.528  23.422  0.00  0.00    -0.050 Br
ATOM     24  C   UNL     1       8.873   1.486  23.888  0.00  0.00    +0.018 A 
ATOM     25  C   UNL     1       7.892   1.224  22.935  0.00  0.00    +0.016 A 
ATOM     26  C   UNL     1       6.796   0.424  23.271  0.00  0.00    +0.009 A 
ATOM     27  C   UNL     1       6.673  -0.110  24.561  0.00  0.00    -0.025 A 
ATOM     28  C   UNL     1       7.664   0.171  25.510  0.00  0.00    +0.009 A 
ATOM     29  C   UNL     1       8.761   0.969  25.176  0.00  0.00    +0.016 A 
ENDBRANCH  21  27
ENDBRANCH  20  22
ENDBRANCH  18  20
ENDBRANCH  17  18
ENDBRANCH  16  17
ENDBRANCH   1  16
TORSDOF 8
ENDMDL
MODEL 5
REMARK VINA RESULT:      -5.6      2.727      4.520
REMARK  Name = 
REMARK  8 active torsions:
REMARK  status: ('A' for Active; 'I' for Inactive)
REMARK    1  A    between atoms: C_5  and  C_6
REMARK    2  A    between atoms: C_7  and  C_8
REMARK    3  A    between atoms: C_8  and  N_9
REMARK    4  A    between atoms: N_9  and  C_10
REMARK    5  A    between atoms: C_10  and  C_11
REMARK    6  A    between atoms: C_11  and  N_12
REMARK    7  A    between atoms: N_12  and  S_13
REMARK    8  A    between atoms: S_13  and  C_16
REMARK                            x       y       z     vdW  Elec       q    Type
REMARK                         _______ _______ _______ _____ _____    ______ ____
ROOT
ATOM      1  N   UNL     1       7.921  -5.814  27.297  0.00  0.00    -0.189 NA
ATOM      2  H   UNL     1       8.367  -6.143  28.155  0.00  0.00    +0.148 HD
ENDROOT
BRANCH   1   3
ATOM      3  S   UNL     1       6.262  -5.593  27.568  0.00  0.00    +0.059 S 
ATOM      4  O   UNL     1       6.117  -5.140  28.935  0.00  0.00    -0.153 OA
ATOM      5  O   UNL     1       5.600  -6.792  27.109  0.00  0.00    -0.153 OA
BRANCH   3   6
ATOM      6  C   UNL     1       5.855  -4.257  26.465  0.00  0.00    +0.113 A 
ATOM      7  C   UNL     1       5.583  -4.486  25.088  0.00  0.00    +0.011 A 
ATOM      8  C   UNL     1       5.565  -5.746  24.446  0.00  0.00    +0.030 A 
ATOM      9  C   UNL     1       5.281  -5.829  23.091  0.00  0.00    +0.111 A 
ATOM     10  N   UNL     1       5.025  -4.761  22.316  0.00  0.00    -0.263 NA
ATOM     11  C   UNL     1       5.046  -3.558  22.929  0.00  0.00    +0.119 A 
ATOM     12  C   UNL     1       5.311  -3.355  24.288  0.00  0.00    +0.002 A 
ATOM     13  C   UNL     1       5.309  -2.063  24.842  0.00  0.00    +0.010 A 
ATOM     14  C   UNL     1       5.572  -1.865  26.195  0.00  0.00    +0.003 A 
ATOM     15  C   UNL     1       5.844  -2.961  27.007  0.00  0.00    +0.029 A 
ENDBRANCH   3   6
ENDBRANCH   1   3
BRANCH   1  16
ATOM     16  C   UNL     1       8.582  -4.707  26.587  0.00  0.00    +0.121 C 
BRANCH  16  17
ATOM     17  C   UNL     1       9.571  -5.217  25.528  0.00  0.00    +0.098 C 
BRANCH  17  18
ATOM     18  N   UNL     1       9.927  -4.185  24.546  0.00  0.00    -0.311 NA
ATOM     19  H   UNL     1      10.365  -3.402  25.032  0.00  0.00    +0.122 HD
BRANCH  18  20
ATOM     20  C   UNL     1       8.764  -3.686  23.815  0.00  0.00    +0.108 C 
BRANCH  20  22
ATOM     21  C   UNL     1       9.063  -1.398  24.755  0.00  0.00    +0.005 C 
ATOM     22  C   UNL     1       8.854  -2.203  23.702  0.00  0.00    -0.011 C 
BRANCH  21  27
ATOM     23 BR   UNL     1       9.498   4.694  24.031  0.00  0.00    -0.050 Br
ATOM     24  C   UNL     1       9.371   2.831  24.314  0.00  0.00    +0.018 A 
ATOM     25  C   UNL     1       8.188   2.285  24.806  0.00  0.00    +0.016 A 
ATOM     26  C   UNL     1       8.084   0.903  24.982  0.00  0.00    +0.009 A 
ATOM     27  C   UNL     1       9.163   0.062  24.674  0.00  0.00    -0.025 A 
ATOM     28  C   UNL     1      10.348   0.628  24.188  0.00  0.00    +0.009 A 
ATOM     29  C   UNL     1      10.454   2.010  24.011  0.00  0.00    +0.016 A 
ENDBRANCH  21  27
ENDBRANCH  20  22
ENDBRANCH  18  20
ENDBRANCH  17  18
ENDBRANCH  16  17
ENDBRANCH   1  16
TORSDOF 8
ENDMDL
MODEL 6
REMARK VINA RESULT:      -5.6      2.959      3.886
REMARK  Name = 
REMARK  8 active torsions:
REMARK  status: ('A' for Active; 'I' for Inactive)
REMARK    1  A    between atoms: C_5  and  C_6
REMARK    2  A    between atoms: C_7  and  C_8
REMARK    3  A    between atoms: C_8  and  N_9
REMARK    4  A    between atoms: N_9  and  C_10
REMARK    5  A    between atoms: C_10  and  C_11
REMARK    6  A    between atoms: C_11  and  N_12
REMARK    7  A    between atoms: N_12  and  S_13
REMARK    8  A    between atoms: S_13  and  C_16
REMARK                            x       y       z     vdW  Elec       q    Type
REMARK                         _______ _______ _______ _____ _____    ______ ____
ROOT
ATOM      1  N   UNL     1       3.529  -6.820  27.845  0.00  0.00    -0.189 NA
ATOM      2  H   UNL     1       3.324  -7.062  26.874  0.00  0.00    +0.148 HD
ENDROOT
BRANCH   1   3
ATOM      3  S   UNL     1       5.156  -6.363  27.985  0.00  0.00    +0.059 S 
ATOM      4  O   UNL     1       5.879  -7.525  28.457  0.00  0.00    -0.153 OA
ATOM      5  O   UNL     1       5.179  -5.123  28.727  0.00  0.00    -0.153 OA
BRANCH   3   6
ATOM      6  C   UNL     1       5.621  -6.031  26.300  0.00  0.00    +0.113 A 
ATOM      7  C   UNL     1       6.882  -5.459  25.977  0.00  0.00    +0.011 A 
ATOM      8  C   UNL     1       7.901  -5.126  26.898  0.00  0.00    +0.030 A 
ATOM      9  C   UNL     1       9.091  -4.574  26.445  0.00  0.00    +0.111 A 
ATOM     10  N   UNL     1       9.348  -4.314  25.151  0.00  0.00    -0.263 NA
ATOM     11  C   UNL     1       8.372  -4.629  24.272  0.00  0.00    +0.119 A 
ATOM     12  C   UNL     1       7.139  -5.196  24.612  0.00  0.00    +0.002 A 
ATOM     13  C   UNL     1       6.182  -5.494  23.628  0.00  0.00    +0.010 A 
ATOM     14  C   UNL     1       4.956  -6.060  23.969  0.00  0.00    +0.003 A 
ATOM     15  C   UNL     1       4.675  -6.329  25.305  0.00  0.00    +0.029 A 
ENDBRANCH   3   6
ENDBRANCH   1   3
BRANCH   1  16
ATOM     16  C   UNL     1       2.576  -5.926  28.522  0.00  0.00    +0.121 C 
BRANCH  16  17
ATOM     17  C   UNL     1       1.949  -4.917  27.549  0.00  0.00    +0.098 C 
BRANCH  17  18
ATOM     18  N   UNL     1       2.652  -3.628  27.542  0.00  0.00    -0.311 NA
ATOM     19  H   UNL     1       2.060  -2.925  27.988  0.00  0.00    +0.122 HD
BRANCH  18  20
ATOM     20  C   UNL     1       2.972  -3.175  26.190  0.00  0.00    +0.108 C 
BRANCH  20  22
ATOM     21  C   UNL     1       4.963  -2.201  25.050  0.00  0.00    +0.005 C 
ATOM     22  C   UNL     1       4.367  -2.651  26.165  0.00  0.00    -0.011 C 
BRANCH  21  27
ATOM     23 BR   UNL     1      10.548   0.352  24.727  0.00  0.00    -0.050 Br
ATOM     24  C   UNL     1       8.859  -0.487  24.832  0.00  0.00    +0.018 A 
ATOM     25  C   UNL     1       8.367  -0.898  26.069  0.00  0.00    +0.016 A 
ATOM     26  C   UNL     1       7.103  -1.487  26.150  0.00  0.00    +0.009 A 
ATOM     27  C   UNL     1       6.329  -1.674  24.996  0.00  0.00    -0.025 A 
ATOM     28  C   UNL     1       6.842  -1.264  23.760  0.00  0.00    +0.009 A 
ATOM     29  C   UNL     1       8.106  -0.673  23.676  0.00  0.00    +0.016 A 
ENDBRANCH  21  27
ENDBRANCH  20  22
ENDBRANCH  18  20
ENDBRANCH  17  18
ENDBRANCH  16  17
ENDBRANCH   1  16
TORSDOF 8
ENDMDL
MODEL 7
REMARK VINA RESULT:      -5.6      3.391      6.347
REMARK  Name = 
REMARK  8 active torsions:
REMARK  status: ('A' for Active; 'I' for Inactive)
REMARK    1  A    between atoms: C_5  and  C_6
REMARK    2  A    between atoms: C_7  and  C_8
REMARK    3  A    between atoms: C_8  and  N_9
REMARK    4  A    between atoms: N_9  and  C_10
REMARK    5  A    between atoms: C_10  and  C_11
REMARK    6  A    between atoms: C_11  and  N_12
REMARK    7  A    between atoms: N_12  and  S_13
REMARK    8  A    between atoms: S_13  and  C_16
REMARK                            x       y       z     vdW  Elec       q    Type
REMARK                         _______ _______ _______ _____ _____    ______ ____
ROOT
ATOM      1  N   UNL     1       9.185  -0.275  25.842  0.00  0.00    -0.189 NA
ATOM      2  H   UNL     1       9.723  -0.191  26.706  0.00  0.00    +0.148 HD
ENDROOT
BRANCH   1   3
ATOM      3  S   UNL     1       7.582  -0.690  26.207  0.00  0.00    +0.059 S 
ATOM      4  O   UNL     1       6.774  -0.269  25.081  0.00  0.00    -0.153 OA
ATOM      5  O   UNL     1       7.315  -0.197  27.538  0.00  0.00    -0.153 OA
BRANCH   3   6
ATOM      6  C   UNL     1       7.635  -2.468  26.255  0.00  0.00    +0.113 A 
ATOM      7  C   UNL     1       6.468  -3.239  26.511  0.00  0.00    +0.011 A 
ATOM      8  C   UNL     1       5.166  -2.728  26.718  0.00  0.00    +0.030 A 
ATOM      9  C   UNL     1       4.111  -3.595  26.957  0.00  0.00    +0.111 A 
ATOM     10  N   UNL     1       4.244  -4.932  27.019  0.00  0.00    -0.263 NA
ATOM     11  C   UNL     1       5.488  -5.419  26.826  0.00  0.00    +0.119 A 
ATOM     12  C   UNL     1       6.623  -4.642  26.569  0.00  0.00    +0.002 A 
ATOM     13  C   UNL     1       7.881  -5.237  26.378  0.00  0.00    +0.010 A 
ATOM     14  C   UNL     1       9.008  -4.461  26.121  0.00  0.00    +0.003 A 
ATOM     15  C   UNL     1       8.886  -3.076  26.058  0.00  0.00    +0.029 A 
ENDBRANCH   3   6
ENDBRANCH   1   3
BRANCH   1  16
ATOM     16  C   UNL     1       9.332   0.812  24.860  0.00  0.00    +0.121 C 
BRANCH  16  17
ATOM     17  C   UNL     1      10.388   0.482  23.795  0.00  0.00    +0.098 C 
BRANCH  17  18
ATOM     18  N   UNL     1      10.402  -0.942  23.437  0.00  0.00    -0.311 NA
ATOM     19  H   UNL     1      11.368  -1.238  23.293  0.00  0.00    +0.122 HD
BRANCH  18  20
ATOM     20  C   UNL     1       9.646  -1.218  22.217  0.00  0.00    +0.108 C 
BRANCH  20  22
ATOM     21  C   UNL     1       8.195  -3.232  22.438  0.00  0.00    +0.005 C 
ATOM     22  C   UNL     1       8.374  -1.909  22.572  0.00  0.00    -0.011 C 
BRANCH  21  27
ATOM     23 BR   UNL     1       2.867  -6.092  23.557  0.00  0.00    -0.050 Br
ATOM     24  C   UNL     1       4.520  -5.224  23.271  0.00  0.00    +0.018 A 
ATOM     25  C   UNL     1       5.676  -5.980  23.093  0.00  0.00    +0.016 A 
ATOM     26  C   UNL     1       6.892  -5.338  22.847  0.00  0.00    +0.009 A 
ATOM     27  C   UNL     1       6.959  -3.939  22.786  0.00  0.00    -0.025 A 
ATOM     28  C   UNL     1       5.789  -3.194  22.976  0.00  0.00    +0.009 A 
ATOM     29  C   UNL     1       4.571  -3.833  23.221  0.00  0.00    +0.016 A 
ENDBRANCH  21  27
ENDBRANCH  20  22
ENDBRANCH  18  20
ENDBRANCH  17  18
ENDBRANCH  16  17
ENDBRANCH   1  16
TORSDOF 8
ENDMDL
MODEL 8
REMARK VINA RESULT:      -5.5      3.313      5.763
REMARK  Name = 
REMARK  8 active torsions:
REMARK  status: ('A' for Active; 'I' for Inactive)
REMARK    1  A    between atoms: C_5  and  C_6
REMARK    2  A    between atoms: C_7  and  C_8
REMARK    3  A    between atoms: C_8  and  N_9
REMARK    4  A    between atoms: N_9  and  C_10
REMARK    5  A    between atoms: C_10  and  C_11
REMARK    6  A    between atoms: C_11  and  N_12
REMARK    7  A    between atoms: N_12  and  S_13
REMARK    8  A    between atoms: S_13  and  C_16
REMARK                            x       y       z     vdW  Elec       q    Type
REMARK                         _______ _______ _______ _____ _____    ______ ____
ROOT
ATOM      1  N   UNL     1       9.051  -3.182  23.458  0.00  0.00    -0.189 NA
ATOM      2  H   UNL     1       9.053  -3.878  22.710  0.00  0.00    +0.148 HD
ENDROOT
BRANCH   1   3
ATOM      3  S   UNL     1       8.895  -3.958  24.957  0.00  0.00    +0.059 S 
ATOM      4  O   UNL     1       8.723  -2.918  25.951  0.00  0.00    -0.153 OA
ATOM      5  O   UNL     1       9.982  -4.905  25.054  0.00  0.00    -0.153 OA
BRANCH   3   6
ATOM      6  C   UNL     1       7.368  -4.855  24.783  0.00  0.00    +0.113 A 
ATOM      7  C   UNL     1       6.742  -5.480  25.895  0.00  0.00    +0.011 A 
ATOM      8  C   UNL     1       7.202  -5.446  27.232  0.00  0.00    +0.030 A 
ATOM      9  C   UNL     1       6.490  -6.098  28.227  0.00  0.00    +0.111 A 
ATOM     10  N   UNL     1       5.361  -6.794  28.003  0.00  0.00    -0.263 NA
ATOM     11  C   UNL     1       4.924  -6.829  26.725  0.00  0.00    +0.119 A 
ATOM     12  C   UNL     1       5.554  -6.203  25.645  0.00  0.00    +0.002 A 
ATOM     13  C   UNL     1       5.025  -6.291  24.346  0.00  0.00    +0.010 A 
ATOM     14  C   UNL     1       5.654  -5.665  23.273  0.00  0.00    +0.003 A 
ATOM     15  C   UNL     1       6.825  -4.946  23.490  0.00  0.00    +0.029 A 
ENDBRANCH   3   6
ENDBRANCH   1   3
BRANCH   1  16
ATOM     16  C   UNL     1      10.096  -2.148  23.404  0.00  0.00    +0.121 C 
BRANCH  16  17
ATOM     17  C   UNL     1       9.502  -0.742  23.232  0.00  0.00    +0.098 C 
BRANCH  17  18
ATOM     18  N   UNL     1       8.153  -0.767  22.652  0.00  0.00    -0.311 NA
ATOM     19  H   UNL     1       8.220  -0.583  21.650  0.00  0.00    +0.122 HD
BRANCH  18  20
ATOM     20  C   UNL     1       7.270   0.232  23.250  0.00  0.00    +0.108 C 
BRANCH  20  22
ATOM     21  C   UNL     1       5.761  -1.416  24.352  0.00  0.00    +0.005 C 
ATOM     22  C   UNL     1       6.586  -0.361  24.433  0.00  0.00    -0.011 C 
BRANCH  21  27
ATOM     23 BR   UNL     1       3.007  -4.316  29.024  0.00  0.00    -0.050 Br
ATOM     24  C   UNL     1       3.828  -3.373  27.608  0.00  0.00    +0.018 A 
ATOM     25  C   UNL     1       4.955  -2.594  27.857  0.00  0.00    +0.016 A 
ATOM     26  C   UNL     1       5.581  -1.925  26.803  0.00  0.00    +0.009 A 
ATOM     27  C   UNL     1       5.080  -2.025  25.498  0.00  0.00    -0.025 A 
ATOM     28  C   UNL     1       3.941  -2.805  25.266  0.00  0.00    +0.009 A 
ATOM     29  C   UNL     1       3.313  -3.477  26.318  0.00  0.00    +0.016 A 
ENDBRANCH  21  27
ENDBRANCH  20  22
ENDBRANCH  18  20
ENDBRANCH  17  18
ENDBRANCH  16  17
ENDBRANCH   1  16
TORSDOF 8
ENDMDL
MODEL 9
REMARK VINA RESULT:      -5.5      3.226      5.451
REMARK  Name = 
REMARK  8 active torsions:
REMARK  status: ('A' for Active; 'I' for Inactive)
REMARK    1  A    between atoms: C_5  and  C_6
REMARK    2  A    between atoms: C_7  and  C_8
REMARK    3  A    between atoms: C_8  and  N_9
REMARK    4  A    between atoms: N_9  and  C_10
REMARK    5  A    between atoms: C_10  and  C_11
REMARK    6  A    between atoms: C_11  and  N_12
REMARK    7  A    between atoms: N_12  and  S_13
REMARK    8  A    between atoms: S_13  and  C_16
REMARK                            x       y       z     vdW  Elec       q    Type
REMARK                         _______ _______ _______ _____ _____    ______ ____
ROOT
ATOM      1  N   UNL     1       7.829  -0.246  23.168  0.00  0.00    -0.189 NA
ATOM      2  H   UNL     1       7.238  -0.205  22.335  0.00  0.00    +0.148 HD
ENDROOT
BRANCH   1   3
ATOM      3  S   UNL     1       9.250  -1.102  22.815  0.00  0.00    +0.059 S 
ATOM      4  O   UNL     1      10.299  -0.525  23.628  0.00  0.00    -0.153 OA
ATOM      5  O   UNL     1       9.365  -1.146  21.375  0.00  0.00    -0.153 OA
BRANCH   3   6
ATOM      6  C   UNL     1       8.884  -2.739  23.409  0.00  0.00    +0.113 A 
ATOM      7  C   UNL     1       7.751  -3.462  22.946  0.00  0.00    +0.011 A 
ATOM      8  C   UNL     1       6.826  -3.018  21.974  0.00  0.00    +0.030 A 
ATOM      9  C   UNL     1       5.760  -3.828  21.609  0.00  0.00    +0.111 A 
ATOM     10  N   UNL     1       5.530  -5.041  22.141  0.00  0.00    -0.263 NA
ATOM     11  C   UNL     1       6.413  -5.463  23.072  0.00  0.00    +0.119 A 
ATOM     12  C   UNL     1       7.525  -4.738  23.510  0.00  0.00    +0.002 A 
ATOM     13  C   UNL     1       8.393  -5.258  24.485  0.00  0.00    +0.010 A 
ATOM     14  C   UNL     1       9.500  -4.533  24.918  0.00  0.00    +0.003 A 
ATOM     15  C   UNL     1       9.747  -3.274  24.380  0.00  0.00    +0.029 A 
ENDBRANCH   3   6
ENDBRANCH   1   3
BRANCH   1  16
ATOM     16  C   UNL     1       8.034   1.014  23.899  0.00  0.00    +0.121 C 
BRANCH  16  17
ATOM     17  C   UNL     1       7.745   0.858  25.399  0.00  0.00    +0.098 C 
BRANCH  17  18
ATOM     18  N   UNL     1       8.889   0.315  26.141  0.00  0.00    -0.311 NA
ATOM     19  H   UNL     1       9.574  -0.049  25.476  0.00  0.00    +0.122 HD
BRANCH  18  20
ATOM     20  C   UNL     1       8.504  -0.766  27.047  0.00  0.00    +0.108 C 
BRANCH  20  22
ATOM     21  C   UNL     1       6.957  -2.700  26.776  0.00  0.00    +0.005 C 
ATOM     22  C   UNL     1       7.264  -1.417  26.536  0.00  0.00    -0.011 C 
BRANCH  21  27
ATOM     23 BR   UNL     1       2.023  -5.501  24.402  0.00  0.00    -0.050 Br
ATOM     24  C   UNL     1       3.507  -4.632  25.183  0.00  0.00    +0.018 A 
ATOM     25  C   UNL     1       4.299  -5.311  26.106  0.00  0.00    +0.016 A 
ATOM     26  C   UNL     1       5.416  -4.679  26.657  0.00  0.00    +0.009 A 
ATOM     27  C   UNL     1       5.743  -3.365  26.294  0.00  0.00    -0.025 A 
ATOM     28  C   UNL     1       4.931  -2.693  25.372  0.00  0.00    +0.009 A 
ATOM     29  C   UNL     1       3.813  -3.323  24.818  0.00  0.00    +0.016 A 
ENDBRANCH  21  27
ENDBRANCH  20  22
ENDBRANCH  18  20
ENDBRANCH  17  18
ENDBRANCH  16  17
ENDBRANCH   1  16
TORSDOF 8
ENDMDL
