MODEL 1
REMARK VINA RESULT:      -7.5      0.000      0.000
REMARK  Name = 
REMARK  6 active torsions:
REMARK  status: ('A' for Active; 'I' for Inactive)
REMARK    1  A    between atoms: C_4  and  N_28
REMARK    2  A    between atoms: C_6  and  C_8
REMARK    3  A    between atoms: N_10  and  C_11
REMARK    4  A    between atoms: N_17  and  C_18
REMARK    5  A    between atoms: C_18  and  C_19
REMARK    6  A    between atoms: C_19  and  C_20
REMARK                            x       y       z     vdW  Elec       q    Type
REMARK                         _______ _______ _______ _____ _____    ______ ____
ROOT
ATOM      1  C   UNL     1       6.673  -2.622  24.551  0.00  0.00    +0.248 C 
ATOM      2  N   UNL     1       5.963  -1.446  24.327  0.00  0.00    -0.281 N 
ATOM      3  H   UNL     1       5.276  -1.432  23.587  0.00  0.00    +0.155 HD
ATOM      4  O   UNL     1       7.562  -2.785  25.382  0.00  0.00    -0.270 OA
ENDROOT
BRANCH   2   5
ATOM      5  C   UNL     1       6.165  -0.213  25.018  0.00  0.00    +0.036 A 
ATOM      6  C   UNL     1       7.043   0.743  24.459  0.00  0.00    +0.049 A 
ATOM      7  C   UNL     1       7.245   1.974  25.136  0.00  0.00    +0.051 A 
ATOM      8  C   UNL     1       6.590   2.250  26.344  0.00  0.00    -0.000 A 
ATOM      9  C   UNL     1       6.964   3.547  26.763  0.00  0.00    +0.027 A 
ATOM     10  C   UNL     1       7.815   4.053  25.816  0.00  0.00    +0.087 A 
ATOM     11  C   UNL     1       5.732   1.289  26.894  0.00  0.00    +0.012 A 
ATOM     12  N   UNL     1       8.016   3.096  24.850  0.00  0.00    -0.346 N 
ATOM     13  C   UNL     1       5.530   0.079  26.227  0.00  0.00    +0.024 A 
BRANCH  12  14
ATOM     14  C   UNL     1       8.855   3.284  23.670  0.00  0.00    +0.126 C 
BRANCH  14  15
ATOM     15  C   UNL     1      10.185   2.508  23.704  0.00  0.00    +0.057 C 
BRANCH  15  16
ATOM     16  C   UNL     1      10.112   1.121  23.115  0.00  0.00    -0.043 A 
ATOM     17  C   UNL     1       9.620   0.920  21.822  0.00  0.00    +0.023 A 
ATOM     18  C   UNL     1       9.515  -0.378  21.343  0.00  0.00    +0.111 A 
ATOM     19  N   UNL     1       9.860  -1.472  22.054  0.00  0.00    -0.263 NA
ATOM     20  C   UNL     1      10.319  -1.259  23.304  0.00  0.00    +0.111 A 
ATOM     21  C   UNL     1      10.457  -0.002  23.872  0.00  0.00    +0.023 A 
ENDBRANCH  15  16
ENDBRANCH  14  15
ENDBRANCH  12  14
ENDBRANCH   2   5
BRANCH   1  25
ATOM     22  F   UNL     1       7.563  -5.888  21.014  0.00  0.00    -0.205 F 
ATOM     23  C   UNL     1       6.758  -5.392  21.964  0.00  0.00    +0.126 A 
ATOM     24  C   UNL     1       7.207  -4.322  22.735  0.00  0.00    +0.051 A 
ATOM     25  C   UNL     1       6.359  -3.806  23.704  0.00  0.00    +0.041 A 
ATOM     26  C   UNL     1       5.076  -4.374  23.868  0.00  0.00    +0.036 A 
ATOM     27  C   UNL     1       4.606  -5.444  23.090  0.00  0.00    +0.033 A 
ATOM     28  C   UNL     1       5.488  -5.953  22.136  0.00  0.00    +0.061 A 
BRANCH  27  29
ATOM     29  N   UNL     1       3.347  -5.962  23.336  0.00  0.00    -0.325 N 
ATOM     30  C   UNL     1       3.231  -7.148  24.218  0.00  0.00    +0.133 C 
ATOM     31  C   UNL     1       1.964  -7.935  23.836  0.00  0.00    +0.178 C 
ATOM     32  O   UNL     1       0.788  -7.107  23.881  0.00  0.00    -0.377 OA
ATOM     33  C   UNL     1       0.933  -5.979  22.999  0.00  0.00    +0.178 C 
ATOM     34  C   UNL     1       2.147  -5.114  23.390  0.00  0.00    +0.133 C 
ENDBRANCH  27  29
ENDBRANCH   1  25
TORSDOF 6
ENDMDL
MODEL 2
REMARK VINA RESULT:      -7.5      2.717      3.338
REMARK  Name = 
REMARK  6 active torsions:
REMARK  status: ('A' for Active; 'I' for Inactive)
REMARK    1  A    between atoms: C_4  and  N_28
REMARK    2  A    between atoms: C_6  and  C_8
REMARK    3  A    between atoms: N_10  and  C_11
REMARK    4  A    between atoms: N_17  and  C_18
REMARK    5  A    between atoms: C_18  and  C_19
REMARK    6  A    between atoms: C_19  and  C_20
REMARK                            x       y       z     vdW  Elec       q    Type
REMARK                         _______ _______ _______ _____ _____    ______ ____
ROOT
ATOM      1  C   UNL     1       7.867  -1.211  26.512  0.00  0.00    +0.248 C 
ATOM      2  N   UNL     1       6.875  -0.259  26.296  0.00  0.00    -0.281 N 
ATOM      3  H   UNL     1       5.980  -0.568  25.942  0.00  0.00    +0.155 HD
ATOM      4  O   UNL     1       9.010  -0.991  26.899  0.00  0.00    -0.270 OA
ENDROOT
BRANCH   2   5
ATOM      5  C   UNL     1       7.028   1.149  26.470  0.00  0.00    +0.036 A 
ATOM      6  C   UNL     1       7.691   1.891  25.466  0.00  0.00    +0.049 A 
ATOM      7  C   UNL     1       7.842   3.293  25.628  0.00  0.00    +0.051 A 
ATOM      8  C   UNL     1       7.347   3.945  26.764  0.00  0.00    -0.000 A 
ATOM      9  C   UNL     1       7.620   5.326  26.635  0.00  0.00    +0.027 A 
ATOM     10  C   UNL     1       8.253   5.507  25.433  0.00  0.00    +0.087 A 
ATOM     11  C   UNL     1       6.702   3.198  27.759  0.00  0.00    +0.012 A 
ATOM     12  N   UNL     1       8.421   4.279  24.837  0.00  0.00    -0.346 N 
ATOM     13  C   UNL     1       6.551   1.819  27.598  0.00  0.00    +0.024 A 
BRANCH  12  14
ATOM     14  C   UNL     1       9.046   4.079  23.533  0.00  0.00    +0.126 C 
BRANCH  14  15
ATOM     15  C   UNL     1      10.362   3.281  23.572  0.00  0.00    +0.057 C 
BRANCH  15  16
ATOM     16  C   UNL     1      10.238   1.851  23.106  0.00  0.00    -0.043 A 
ATOM     17  C   UNL     1       9.636   1.550  21.881  0.00  0.00    +0.023 A 
ATOM     18  C   UNL     1       9.489   0.219  21.519  0.00  0.00    +0.111 A 
ATOM     19  N   UNL     1       9.892  -0.817  22.283  0.00  0.00    -0.263 NA
ATOM     20  C   UNL     1      10.457  -0.508  23.469  0.00  0.00    +0.111 A 
ATOM     21  C   UNL     1      10.645   0.791  23.919  0.00  0.00    +0.023 A 
ENDBRANCH  15  16
ENDBRANCH  14  15
ENDBRANCH  12  14
ENDBRANCH   2   5
BRANCH   1  25
ATOM     22  F   UNL     1       7.398  -5.942  27.682  0.00  0.00    -0.205 F 
ATOM     23  C   UNL     1       7.338  -4.956  26.777  0.00  0.00    +0.126 A 
ATOM     24  C   UNL     1       7.594  -3.649  27.186  0.00  0.00    +0.051 A 
ATOM     25  C   UNL     1       7.545  -2.639  26.237  0.00  0.00    +0.041 A 
ATOM     26  C   UNL     1       7.249  -2.969  24.896  0.00  0.00    +0.036 A 
ATOM     27  C   UNL     1       7.001  -4.283  24.467  0.00  0.00    +0.033 A 
ATOM     28  C   UNL     1       7.039  -5.275  25.448  0.00  0.00    +0.061 A 
BRANCH  27  29
ATOM     29  N   UNL     1       6.686  -4.517  23.140  0.00  0.00    -0.325 N 
ATOM     30  C   UNL     1       6.668  -3.368  22.204  0.00  0.00    +0.133 C 
ATOM     31  C   UNL     1       5.696  -3.675  21.051  0.00  0.00    +0.178 C 
ATOM     32  O   UNL     1       6.028  -4.909  20.389  0.00  0.00    -0.377 OA
ATOM     33  C   UNL     1       6.018  -6.001  21.326  0.00  0.00    +0.178 C 
ATOM     34  C   UNL     1       7.033  -5.775  22.462  0.00  0.00    +0.133 C 
ENDBRANCH  27  29
ENDBRANCH   1  25
TORSDOF 6
ENDMDL
MODEL 3
REMARK VINA RESULT:      -7.2      2.433      4.307
REMARK  Name = 
REMARK  6 active torsions:
REMARK  status: ('A' for Active; 'I' for Inactive)
REMARK    1  A    between atoms: C_4  and  N_28
REMARK    2  A    between atoms: C_6  and  C_8
REMARK    3  A    between atoms: N_10  and  C_11
REMARK    4  A    between atoms: N_17  and  C_18
REMARK    5  A    between atoms: C_18  and  C_19
REMARK    6  A    between atoms: C_19  and  C_20
REMARK                            x       y       z     vdW  Elec       q    Type
REMARK                         _______ _______ _______ _____ _____    ______ ____
ROOT
ATOM      1  C   UNL     1       6.726  -4.350  24.012  0.00  0.00    +0.248 C 
ATOM      2  N   UNL     1       7.205  -3.162  24.557  0.00  0.00    -0.281 N 
ATOM      3  H   UNL     1       6.947  -2.930  25.506  0.00  0.00    +0.155 HD
ATOM      4  O   UNL     1       6.918  -4.750  22.867  0.00  0.00    -0.270 OA
ENDROOT
BRANCH   2   5
ATOM      5  C   UNL     1       7.989  -2.191  23.866  0.00  0.00    +0.036 A 
ATOM      6  C   UNL     1       7.382  -0.971  23.487  0.00  0.00    +0.049 A 
ATOM      7  C   UNL     1       8.156   0.003  22.805  0.00  0.00    +0.051 A 
ATOM      8  C   UNL     1       9.504  -0.228  22.502  0.00  0.00    -0.000 A 
ATOM      9  C   UNL     1      10.013   0.917  21.850  0.00  0.00    +0.027 A 
ATOM     10  C   UNL     1       8.996   1.832  21.776  0.00  0.00    +0.087 A 
ATOM     11  C   UNL     1      10.091  -1.446  22.870  0.00  0.00    +0.012 A 
ATOM     12  N   UNL     1       7.863   1.273  22.320  0.00  0.00    -0.346 N 
ATOM     13  C   UNL     1       9.331  -2.404  23.545  0.00  0.00    +0.024 A 
BRANCH  12  14
ATOM     14  C   UNL     1       6.580   1.961  22.429  0.00  0.00    +0.126 C 
BRANCH  14  15
ATOM     15  C   UNL     1       6.464   2.904  23.641  0.00  0.00    +0.057 C 
BRANCH  15  16
ATOM     16  C   UNL     1       7.217   4.204  23.494  0.00  0.00    -0.043 A 
ATOM     17  C   UNL     1       6.967   5.054  22.413  0.00  0.00    +0.023 A 
ATOM     18  C   UNL     1       7.724   6.209  22.285  0.00  0.00    +0.111 A 
ATOM     19  N   UNL     1       8.699   6.569  23.145  0.00  0.00    -0.263 NA
ATOM     20  C   UNL     1       8.936   5.729  24.174  0.00  0.00    +0.111 A 
ATOM     21  C   UNL     1       8.235   4.551  24.385  0.00  0.00    +0.023 A 
ENDBRANCH  15  16
ENDBRANCH  14  15
ENDBRANCH  12  14
ENDBRANCH   2   5
BRANCH   1  25
ATOM     22  F   UNL     1       5.650  -6.830  28.093  0.00  0.00    -0.205 F 
ATOM     23  C   UNL     1       5.352  -6.471  26.837  0.00  0.00    +0.126 A 
ATOM     24  C   UNL     1       6.193  -5.581  26.173  0.00  0.00    +0.051 A 
ATOM     25  C   UNL     1       5.883  -5.229  24.868  0.00  0.00    +0.041 A 
ATOM     26  C   UNL     1       4.738  -5.789  24.258  0.00  0.00    +0.036 A 
ATOM     27  C   UNL     1       3.889  -6.696  24.911  0.00  0.00    +0.033 A 
ATOM     28  C   UNL     1       4.216  -7.017  26.229  0.00  0.00    +0.061 A 
BRANCH  27  29
ATOM     29  N   UNL     1       2.768  -7.174  24.253  0.00  0.00    -0.325 N 
ATOM     30  C   UNL     1       1.819  -8.030  25.002  0.00  0.00    +0.133 C 
ATOM     31  C   UNL     1       1.092  -8.958  24.013  0.00  0.00    +0.178 C 
ATOM     32  O   UNL     1       0.443  -8.216  22.964  0.00  0.00    -0.377 OA
ATOM     33  C   UNL     1       1.400  -7.413  22.250  0.00  0.00    +0.178 C 
ATOM     34  C   UNL     1       2.102  -6.411  23.187  0.00  0.00    +0.133 C 
ENDBRANCH  27  29
ENDBRANCH   1  25
TORSDOF 6
ENDMDL
MODEL 4
REMARK VINA RESULT:      -7.2      2.725      3.224
REMARK  Name = 
REMARK  6 active torsions:
REMARK  status: ('A' for Active; 'I' for Inactive)
REMARK    1  A    between atoms: C_4  and  N_28
REMARK    2  A    between atoms: C_6  and  C_8
REMARK    3  A    between atoms: N_10  and  C_11
REMARK    4  A    between atoms: N_17  and  C_18
REMARK    5  A    between atoms: C_18  and  C_19
REMARK    6  A    between atoms: C_19  and  C_20
REMARK                            x       y       z     vdW  Elec       q    Type
REMARK                         _______ _______ _______ _____ _____    ______ ____
ROOT
ATOM      1  C   UNL     1       7.697  -1.602  26.337  0.00  0.00    +0.248 C 
ATOM      2  N   UNL     1       6.727  -0.623  26.145  0.00  0.00    -0.281 N 
ATOM      3  H   UNL     1       5.832  -0.900  25.767  0.00  0.00    +0.155 HD
ATOM      4  O   UNL     1       8.839  -1.420  26.748  0.00  0.00    -0.270 OA
ENDROOT
BRANCH   2   5
ATOM      5  C   UNL     1       6.905   0.774  26.376  0.00  0.00    +0.036 A 
ATOM      6  C   UNL     1       7.585   1.544  25.404  0.00  0.00    +0.049 A 
ATOM      7  C   UNL     1       7.760   2.935  25.623  0.00  0.00    +0.051 A 
ATOM      8  C   UNL     1       7.273   3.550  26.783  0.00  0.00    -0.000 A 
ATOM      9  C   UNL     1       7.572   4.930  26.711  0.00  0.00    +0.027 A 
ATOM     10  C   UNL     1       8.212   5.147  25.519  0.00  0.00    +0.087 A 
ATOM     11  C   UNL     1       6.612   2.775  27.745  0.00  0.00    +0.012 A 
ATOM     12  N   UNL     1       8.360   3.942  24.874  0.00  0.00    -0.346 N 
ATOM     13  C   UNL     1       6.436   1.407  27.529  0.00  0.00    +0.024 A 
BRANCH  12  14
ATOM     14  C   UNL     1       8.986   3.783  23.565  0.00  0.00    +0.126 C 
BRANCH  14  15
ATOM     15  C   UNL     1      10.307   2.992  23.581  0.00  0.00    +0.057 C 
BRANCH  15  16
ATOM     16  C   UNL     1      10.195   1.581  23.060  0.00  0.00    -0.043 A 
ATOM     17  C   UNL     1       9.601   1.322  21.822  0.00  0.00    +0.023 A 
ATOM     18  C   UNL     1       9.465   0.005  21.409  0.00  0.00    +0.111 A 
ATOM     19  N   UNL     1       9.872  -1.057  22.136  0.00  0.00    -0.263 NA
ATOM     20  C   UNL     1      10.430  -0.789  23.334  0.00  0.00    +0.111 A 
ATOM     21  C   UNL     1      10.607   0.493  23.835  0.00  0.00    +0.023 A 
ENDBRANCH  15  16
ENDBRANCH  14  15
ENDBRANCH  12  14
ENDBRANCH   2   5
BRANCH   1  25
ATOM     22  F   UNL     1       7.353  -5.485  23.375  0.00  0.00    -0.205 F 
ATOM     23  C   UNL     1       7.146  -4.909  24.567  0.00  0.00    +0.126 A 
ATOM     24  C   UNL     1       7.586  -3.603  24.769  0.00  0.00    +0.051 A 
ATOM     25  C   UNL     1       7.352  -3.012  26.002  0.00  0.00    +0.041 A 
ATOM     26  C   UNL     1       6.673  -3.746  27.000  0.00  0.00    +0.036 A 
ATOM     27  C   UNL     1       6.214  -5.058  26.805  0.00  0.00    +0.033 A 
ATOM     28  C   UNL     1       6.480  -5.633  25.562  0.00  0.00    +0.061 A 
BRANCH  27  29
ATOM     29  N   UNL     1       5.585  -5.720  27.846  0.00  0.00    -0.325 N 
ATOM     30  C   UNL     1       4.354  -6.491  27.552  0.00  0.00    +0.133 C 
ATOM     31  C   UNL     1       3.486  -6.554  28.823  0.00  0.00    +0.178 C 
ATOM     32  O   UNL     1       4.214  -7.097  29.939  0.00  0.00    -0.377 OA
ATOM     33  C   UNL     1       5.391  -6.311  30.202  0.00  0.00    +0.178 C 
ATOM     34  C   UNL     1       6.331  -6.282  28.982  0.00  0.00    +0.133 C 
ENDBRANCH  27  29
ENDBRANCH   1  25
TORSDOF 6
ENDMDL
MODEL 5
REMARK VINA RESULT:      -7.2      3.531      8.496
REMARK  Name = 
REMARK  6 active torsions:
REMARK  status: ('A' for Active; 'I' for Inactive)
REMARK    1  A    between atoms: C_4  and  N_28
REMARK    2  A    between atoms: C_6  and  C_8
REMARK    3  A    between atoms: N_10  and  C_11
REMARK    4  A    between atoms: N_17  and  C_18
REMARK    5  A    between atoms: C_18  and  C_19
REMARK    6  A    between atoms: C_19  and  C_20
REMARK                            x       y       z     vdW  Elec       q    Type
REMARK                         _______ _______ _______ _____ _____    ______ ____
ROOT
ATOM      1  C   UNL     1       7.840  -0.115  25.322  0.00  0.00    +0.248 C 
ATOM      2  N   UNL     1       6.453  -0.221  25.371  0.00  0.00    -0.281 N 
ATOM      3  H   UNL     1       5.917   0.121  24.586  0.00  0.00    +0.155 HD
ATOM      4  O   UNL     1       8.623  -0.446  26.208  0.00  0.00    -0.270 OA
ENDROOT
BRANCH   2   5
ATOM      5  C   UNL     1       5.699  -0.716  26.476  0.00  0.00    +0.036 A 
ATOM      6  C   UNL     1       5.559  -2.115  26.632  0.00  0.00    +0.049 A 
ATOM      7  C   UNL     1       4.816  -2.616  27.733  0.00  0.00    +0.051 A 
ATOM      8  C   UNL     1       4.221  -1.749  28.658  0.00  0.00    -0.000 A 
ATOM      9  C   UNL     1       3.577  -2.529  29.644  0.00  0.00    +0.027 A 
ATOM     10  C   UNL     1       3.794  -3.845  29.331  0.00  0.00    +0.087 A 
ATOM     11  C   UNL     1       4.356  -0.365  28.486  0.00  0.00    +0.012 A 
ATOM     12  N   UNL     1       4.511  -3.904  28.159  0.00  0.00    -0.346 N 
ATOM     13  C   UNL     1       5.090   0.130  27.405  0.00  0.00    +0.024 A 
BRANCH  12  14
ATOM     14  C   UNL     1       4.943  -5.146  27.523  0.00  0.00    +0.126 C 
BRANCH  14  15
ATOM     15  C   UNL     1       6.434  -5.477  27.717  0.00  0.00    +0.057 C 
BRANCH  15  16
ATOM     16  C   UNL     1       7.284  -5.269  26.488  0.00  0.00    -0.043 A 
ATOM     17  C   UNL     1       8.636  -4.936  26.604  0.00  0.00    +0.023 A 
ATOM     18  C   UNL     1       9.365  -4.696  25.449  0.00  0.00    +0.111 A 
ATOM     19  N   UNL     1       8.847  -4.761  24.204  0.00  0.00    -0.263 NA
ATOM     20  C   UNL     1       7.537  -5.069  24.113  0.00  0.00    +0.111 A 
ATOM     21  C   UNL     1       6.725  -5.323  25.208  0.00  0.00    +0.023 A 
ENDBRANCH  15  16
ENDBRANCH  14  15
ENDBRANCH  12  14
ENDBRANCH   2   5
BRANCH   1  25
ATOM     22  F   UNL     1       9.333  -0.179  20.660  0.00  0.00    -0.205 F 
ATOM     23  C   UNL     1       9.224   0.450  21.839  0.00  0.00    +0.126 A 
ATOM     24  C   UNL     1       8.553  -0.185  22.882  0.00  0.00    +0.051 A 
ATOM     25  C   UNL     1       8.460   0.469  24.101  0.00  0.00    +0.041 A 
ATOM     26  C   UNL     1       9.053   1.743  24.245  0.00  0.00    +0.036 A 
ATOM     27  C   UNL     1       9.741   2.389  23.206  0.00  0.00    +0.033 A 
ATOM     28  C   UNL     1       9.803   1.715  21.987  0.00  0.00    +0.061 A 
BRANCH  27  29
ATOM     29  N   UNL     1      10.266   3.653  23.421  0.00  0.00    -0.325 N 
ATOM     30  C   UNL     1       9.476   4.619  24.220  0.00  0.00    +0.133 C 
ATOM     31  C   UNL     1       9.849   6.049  23.789  0.00  0.00    +0.178 C 
ATOM     32  O   UNL     1      11.265   6.285  23.895  0.00  0.00    -0.377 OA
ATOM     33  C   UNL     1      11.993   5.339  23.092  0.00  0.00    +0.178 C 
ATOM     34  C   UNL     1      11.712   3.891  23.537  0.00  0.00    +0.133 C 
ENDBRANCH  27  29
ENDBRANCH   1  25
TORSDOF 6
ENDMDL
MODEL 6
REMARK VINA RESULT:      -7.1      1.981      2.564
REMARK  Name = 
REMARK  6 active torsions:
REMARK  status: ('A' for Active; 'I' for Inactive)
REMARK    1  A    between atoms: C_4  and  N_28
REMARK    2  A    between atoms: C_6  and  C_8
REMARK    3  A    between atoms: N_10  and  C_11
REMARK    4  A    between atoms: N_17  and  C_18
REMARK    5  A    between atoms: C_18  and  C_19
REMARK    6  A    between atoms: C_19  and  C_20
REMARK                            x       y       z     vdW  Elec       q    Type
REMARK                         _______ _______ _______ _____ _____    ______ ____
ROOT
ATOM      1  C   UNL     1       5.881  -1.469  26.142  0.00  0.00    +0.248 C 
ATOM      2  N   UNL     1       6.975  -0.759  26.630  0.00  0.00    -0.281 N 
ATOM      3  H   UNL     1       7.735  -1.276  27.050  0.00  0.00    +0.155 HD
ATOM      4  O   UNL     1       4.869  -0.986  25.644  0.00  0.00    -0.270 OA
ENDROOT
BRANCH   2   5
ATOM      5  C   UNL     1       7.096   0.663  26.654  0.00  0.00    +0.036 A 
ATOM      6  C   UNL     1       7.705   1.311  25.555  0.00  0.00    +0.049 A 
ATOM      7  C   UNL     1       7.824   2.726  25.568  0.00  0.00    +0.051 A 
ATOM      8  C   UNL     1       7.349   3.481  26.648  0.00  0.00    -0.000 A 
ATOM      9  C   UNL     1       7.581   4.846  26.368  0.00  0.00    +0.027 A 
ATOM     10  C   UNL     1       8.169   4.917  25.133  0.00  0.00    +0.087 A 
ATOM     11  C   UNL     1       6.758   2.825  27.736  0.00  0.00    +0.012 A 
ATOM     12  N   UNL     1       8.350   3.638  24.660  0.00  0.00    -0.346 N 
ATOM     13  C   UNL     1       6.638   1.434  27.723  0.00  0.00    +0.024 A 
BRANCH  12  14
ATOM     14  C   UNL     1       8.936   3.319  23.361  0.00  0.00    +0.126 C 
BRANCH  14  15
ATOM     15  C   UNL     1      10.227   2.482  23.433  0.00  0.00    +0.057 C 
BRANCH  15  16
ATOM     16  C   UNL     1      10.079   1.065  22.936  0.00  0.00    -0.043 A 
ATOM     17  C   UNL     1      10.607  -0.005  23.664  0.00  0.00    +0.023 A 
ATOM     18  C   UNL     1      10.501  -1.284  23.140  0.00  0.00    +0.111 A 
ATOM     19  N   UNL     1       9.917  -1.567  21.957  0.00  0.00    -0.263 NA
ATOM     20  C   UNL     1       9.426  -0.521  21.262  0.00  0.00    +0.111 A 
ATOM     21  C   UNL     1       9.487   0.794  21.700  0.00  0.00    +0.023 A 
ENDBRANCH  15  16
ENDBRANCH  14  15
ENDBRANCH  12  14
ENDBRANCH   2   5
BRANCH   1  25
ATOM     22  F   UNL     1       7.678  -5.775  27.626  0.00  0.00    -0.205 F 
ATOM     23  C   UNL     1       6.782  -5.067  26.924  0.00  0.00    +0.126 A 
ATOM     24  C   UNL     1       6.828  -3.676  26.981  0.00  0.00    +0.051 A 
ATOM     25  C   UNL     1       5.906  -2.955  26.237  0.00  0.00    +0.041 A 
ATOM     26  C   UNL     1       4.964  -3.651  25.447  0.00  0.00    +0.036 A 
ATOM     27  C   UNL     1       4.914  -5.051  25.372  0.00  0.00    +0.033 A 
ATOM     28  C   UNL     1       5.842  -5.750  26.144  0.00  0.00    +0.061 A 
BRANCH  27  29
ATOM     29  N   UNL     1       3.938  -5.656  24.598  0.00  0.00    -0.325 N 
ATOM     30  C   UNL     1       3.350  -4.889  23.475  0.00  0.00    +0.133 C 
ATOM     31  C   UNL     1       1.924  -5.403  23.207  0.00  0.00    +0.178 C 
ATOM     32  O   UNL     1       1.906  -6.821  22.965  0.00  0.00    -0.377 OA
ATOM     33  C   UNL     1       2.467  -7.530  24.085  0.00  0.00    +0.178 C 
ATOM     34  C   UNL     1       3.924  -7.105  24.345  0.00  0.00    +0.133 C 
ENDBRANCH  27  29
ENDBRANCH   1  25
TORSDOF 6
ENDMDL
MODEL 7
REMARK VINA RESULT:      -7.1      3.396      4.580
REMARK  Name = 
REMARK  6 active torsions:
REMARK  status: ('A' for Active; 'I' for Inactive)
REMARK    1  A    between atoms: C_4  and  N_28
REMARK    2  A    between atoms: C_6  and  C_8
REMARK    3  A    between atoms: N_10  and  C_11
REMARK    4  A    between atoms: N_17  and  C_18
REMARK    5  A    between atoms: C_18  and  C_19
REMARK    6  A    between atoms: C_19  and  C_20
REMARK                            x       y       z     vdW  Elec       q    Type
REMARK                         _______ _______ _______ _____ _____    ______ ____
ROOT
ATOM      1  C   UNL     1       5.171   0.471  25.857  0.00  0.00    +0.248 C 
ATOM      2  N   UNL     1       5.650   0.715  24.573  0.00  0.00    -0.281 N 
ATOM      3  H   UNL     1       5.921  -0.074  24.002  0.00  0.00    +0.155 HD
ATOM      4  O   UNL     1       4.841   1.320  26.680  0.00  0.00    -0.270 OA
ENDROOT
BRANCH   2   5
ATOM      5  C   UNL     1       5.861   2.005  23.999  0.00  0.00    +0.036 A 
ATOM      6  C   UNL     1       7.113   2.635  24.183  0.00  0.00    +0.049 A 
ATOM      7  C   UNL     1       7.332   3.915  23.610  0.00  0.00    +0.051 A 
ATOM      8  C   UNL     1       6.330   4.557  22.872  0.00  0.00    -0.000 A 
ATOM      9  C   UNL     1       6.843   5.791  22.412  0.00  0.00    +0.027 A 
ATOM     10  C   UNL     1       8.138   5.885  22.849  0.00  0.00    +0.087 A 
ATOM     11  C   UNL     1       5.089   3.928  22.708  0.00  0.00    +0.012 A 
ATOM     12  N   UNL     1       8.428   4.772  23.602  0.00  0.00    -0.346 N 
ATOM     13  C   UNL     1       4.873   2.667  23.268  0.00  0.00    +0.024 A 
BRANCH  12  14
ATOM     14  C   UNL     1       9.725   4.516  24.222  0.00  0.00    +0.126 C 
BRANCH  14  15
ATOM     15  C   UNL     1      10.740   3.807  23.306  0.00  0.00    +0.057 C 
BRANCH  15  16
ATOM     16  C   UNL     1      10.505   2.326  23.144  0.00  0.00    -0.043 A 
ATOM     17  C   UNL     1       9.993   1.812  21.949  0.00  0.00    +0.023 A 
ATOM     18  C   UNL     1       9.735   0.451  21.864  0.00  0.00    +0.111 A 
ATOM     19  N   UNL     1       9.948  -0.419  22.873  0.00  0.00    -0.263 NA
ATOM     20  C   UNL     1      10.429   0.097  24.023  0.00  0.00    +0.111 A 
ATOM     21  C   UNL     1      10.714   1.442  24.206  0.00  0.00    +0.023 A 
ENDBRANCH  15  16
ENDBRANCH  14  15
ENDBRANCH  12  14
ENDBRANCH   2   5
BRANCH   1  25
ATOM     22  F   UNL     1       3.251  -3.186  28.486  0.00  0.00    -0.205 F 
ATOM     23  C   UNL     1       4.155  -2.736  27.603  0.00  0.00    +0.126 A 
ATOM     24  C   UNL     1       4.105  -1.400  27.210  0.00  0.00    +0.051 A 
ATOM     25  C   UNL     1       5.055  -0.943  26.309  0.00  0.00    +0.041 A 
ATOM     26  C   UNL     1       6.038  -1.838  25.832  0.00  0.00    +0.036 A 
ATOM     27  C   UNL     1       6.107  -3.183  26.229  0.00  0.00    +0.033 A 
ATOM     28  C   UNL     1       5.127  -3.619  27.121  0.00  0.00    +0.061 A 
BRANCH  27  29
ATOM     29  N   UNL     1       7.083  -4.002  25.688  0.00  0.00    -0.325 N 
ATOM     30  C   UNL     1       8.122  -4.552  26.590  0.00  0.00    +0.133 C 
ATOM     31  C   UNL     1       9.401  -4.823  25.776  0.00  0.00    +0.178 C 
ATOM     32  O   UNL     1       9.145  -5.684  24.652  0.00  0.00    -0.377 OA
ATOM     33  C   UNL     1       8.145  -5.106  23.793  0.00  0.00    +0.178 C 
ATOM     34  C   UNL     1       6.818  -4.887  24.544  0.00  0.00    +0.133 C 
ENDBRANCH  27  29
ENDBRANCH   1  25
TORSDOF 6
ENDMDL
MODEL 8
REMARK VINA RESULT:      -7.1      2.463      4.512
REMARK  Name = 
REMARK  6 active torsions:
REMARK  status: ('A' for Active; 'I' for Inactive)
REMARK    1  A    between atoms: C_4  and  N_28
REMARK    2  A    between atoms: C_6  and  C_8
REMARK    3  A    between atoms: N_10  and  C_11
REMARK    4  A    between atoms: N_17  and  C_18
REMARK    5  A    between atoms: C_18  and  C_19
REMARK    6  A    between atoms: C_19  and  C_20
REMARK                            x       y       z     vdW  Elec       q    Type
REMARK                         _______ _______ _______ _____ _____    ______ ____
ROOT
ATOM      1  C   UNL     1       8.081  -2.493  22.771  0.00  0.00    +0.248 C 
ATOM      2  N   UNL     1       8.226  -1.688  23.898  0.00  0.00    -0.281 N 
ATOM      3  H   UNL     1       7.783  -1.979  24.758  0.00  0.00    +0.155 HD
ATOM      4  O   UNL     1       8.523  -2.257  21.651  0.00  0.00    -0.270 OA
ENDROOT
BRANCH   2   5
ATOM      5  C   UNL     1       8.901  -0.431  23.935  0.00  0.00    +0.036 A 
ATOM      6  C   UNL     1       8.185   0.736  23.585  0.00  0.00    +0.049 A 
ATOM      7  C   UNL     1       8.847   1.991  23.625  0.00  0.00    +0.051 A 
ATOM      8  C   UNL     1      10.192   2.086  24.004  0.00  0.00    -0.000 A 
ATOM      9  C   UNL     1      10.564   3.449  23.974  0.00  0.00    +0.027 A 
ATOM     10  C   UNL     1       9.459   4.167  23.602  0.00  0.00    +0.087 A 
ATOM     11  C   UNL     1      10.895   0.920  24.337  0.00  0.00    +0.012 A 
ATOM     12  N   UNL     1       8.429   3.290  23.356  0.00  0.00    -0.346 N 
ATOM     13  C   UNL     1      10.243  -0.314  24.301  0.00  0.00    +0.024 A 
BRANCH  12  14
ATOM     14  C   UNL     1       7.086   3.695  22.951  0.00  0.00    +0.126 C 
BRANCH  14  15
ATOM     15  C   UNL     1       6.014   3.534  24.045  0.00  0.00    +0.057 C 
BRANCH  15  16
ATOM     16  C   UNL     1       6.492   3.863  25.438  0.00  0.00    -0.043 A 
ATOM     17  C   UNL     1       6.616   2.861  26.404  0.00  0.00    +0.023 A 
ATOM     18  C   UNL     1       7.001   3.217  27.688  0.00  0.00    +0.111 A 
ATOM     19  N   UNL     1       7.265   4.484  28.071  0.00  0.00    -0.263 NA
ATOM     20  C   UNL     1       7.126   5.439  27.129  0.00  0.00    +0.111 A 
ATOM     21  C   UNL     1       6.743   5.183  25.820  0.00  0.00    +0.023 A 
ENDBRANCH  15  16
ENDBRANCH  14  15
ENDBRANCH  12  14
ENDBRANCH   2   5
BRANCH   1  25
ATOM     22  F   UNL     1       5.625  -6.371  21.069  0.00  0.00    -0.205 F 
ATOM     23  C   UNL     1       6.077  -5.639  22.097  0.00  0.00    +0.126 A 
ATOM     24  C   UNL     1       6.856  -4.515  21.832  0.00  0.00    +0.051 A 
ATOM     25  C   UNL     1       7.305  -3.757  22.904  0.00  0.00    +0.041 A 
ATOM     26  C   UNL     1       6.951  -4.143  24.216  0.00  0.00    +0.036 A 
ATOM     27  C   UNL     1       6.157  -5.266  24.496  0.00  0.00    +0.033 A 
ATOM     28  C   UNL     1       5.736  -6.020  23.400  0.00  0.00    +0.061 A 
BRANCH  27  29
ATOM     29  N   UNL     1       5.883  -5.594  25.813  0.00  0.00    -0.325 N 
ATOM     30  C   UNL     1       4.968  -6.727  26.083  0.00  0.00    +0.133 C 
ATOM     31  C   UNL     1       4.287  -6.508  27.446  0.00  0.00    +0.178 C 
ATOM     32  O   UNL     1       5.249  -6.323  28.500  0.00  0.00    -0.377 OA
ATOM     33  C   UNL     1       6.106  -5.204  28.208  0.00  0.00    +0.178 C 
ATOM     34  C   UNL     1       6.871  -5.412  26.887  0.00  0.00    +0.133 C 
ENDBRANCH  27  29
ENDBRANCH   1  25
TORSDOF 6
ENDMDL
MODEL 9
REMARK VINA RESULT:      -7.1      2.365      4.269
REMARK  Name = 
REMARK  6 active torsions:
REMARK  status: ('A' for Active; 'I' for Inactive)
REMARK    1  A    between atoms: C_4  and  N_28
REMARK    2  A    between atoms: C_6  and  C_8
REMARK    3  A    between atoms: N_10  and  C_11
REMARK    4  A    between atoms: N_17  and  C_18
REMARK    5  A    between atoms: C_18  and  C_19
REMARK    6  A    between atoms: C_19  and  C_20
REMARK                            x       y       z     vdW  Elec       q    Type
REMARK                         _______ _______ _______ _____ _____    ______ ____
ROOT
ATOM      1  C   UNL     1       8.155  -2.599  23.297  0.00  0.00    +0.248 C 
ATOM      2  N   UNL     1       7.728  -1.393  22.749  0.00  0.00    -0.281 N 
ATOM      3  H   UNL     1       6.874  -1.386  22.209  0.00  0.00    +0.155 HD
ATOM      4  O   UNL     1       9.185  -2.777  23.941  0.00  0.00    -0.270 OA
ENDROOT
BRANCH   2   5
ATOM      5  C   UNL     1       8.430  -0.153  22.827  0.00  0.00    +0.036 A 
ATOM      6  C   UNL     1       8.014   0.806  23.778  0.00  0.00    +0.049 A 
ATOM      7  C   UNL     1       8.711   2.040  23.866  0.00  0.00    +0.051 A 
ATOM      8  C   UNL     1       9.798   2.316  23.027  0.00  0.00    -0.000 A 
ATOM      9  C   UNL     1      10.299   3.595  23.360  0.00  0.00    +0.027 A 
ATOM     10  C   UNL     1       9.541   4.074  24.395  0.00  0.00    +0.087 A 
ATOM     11  C   UNL     1      10.193   1.362  22.079  0.00  0.00    +0.012 A 
ATOM     12  N   UNL     1       8.559   3.156  24.682  0.00  0.00    -0.346 N 
ATOM     13  C   UNL     1       9.509   0.147  21.994  0.00  0.00    +0.024 A 
BRANCH  12  14
ATOM     14  C   UNL     1       7.568   3.318  25.741  0.00  0.00    +0.126 C 
BRANCH  14  15
ATOM     15  C   UNL     1       6.525   4.419  25.476  0.00  0.00    +0.057 C 
BRANCH  15  16
ATOM     16  C   UNL     1       5.316   3.958  24.699  0.00  0.00    -0.043 A 
ATOM     17  C   UNL     1       4.154   3.556  25.363  0.00  0.00    +0.023 A 
ATOM     18  C   UNL     1       3.087   3.083  24.612  0.00  0.00    +0.111 A 
ATOM     19  N   UNL     1       3.100   2.983  23.267  0.00  0.00    -0.263 NA
ATOM     20  C   UNL     1       4.235   3.362  22.645  0.00  0.00    +0.111 A 
ATOM     21  C   UNL     1       5.355   3.845  23.307  0.00  0.00    +0.023 A 
ENDBRANCH  15  16
ENDBRANCH  14  15
ENDBRANCH  12  14
ENDBRANCH   2   5
BRANCH   1  25
ATOM     22  F   UNL     1       6.075  -6.111  20.594  0.00  0.00    -0.205 F 
ATOM     23  C   UNL     1       6.265  -5.513  21.778  0.00  0.00    +0.126 A 
ATOM     24  C   UNL     1       7.138  -4.430  21.853  0.00  0.00    +0.051 A 
ATOM     25  C   UNL     1       7.314  -3.809  23.081  0.00  0.00    +0.041 A 
ATOM     26  C   UNL     1       6.601  -4.287  24.202  0.00  0.00    +0.036 A 
ATOM     27  C   UNL     1       5.709  -5.369  24.138  0.00  0.00    +0.033 A 
ATOM     28  C   UNL     1       5.566  -5.985  22.895  0.00  0.00    +0.061 A 
BRANCH  27  29
ATOM     29  N   UNL     1       5.074  -5.796  25.292  0.00  0.00    -0.325 N 
ATOM     30  C   UNL     1       5.801  -5.691  26.579  0.00  0.00    +0.133 C 
ATOM     31  C   UNL     1       5.269  -6.766  27.544  0.00  0.00    +0.178 C 
ATOM     32  O   UNL     1       3.844  -6.670  27.716  0.00  0.00    -0.377 OA
ATOM     33  C   UNL     1       3.175  -6.794  26.448  0.00  0.00    +0.178 C 
ATOM     34  C   UNL     1       3.618  -5.690  25.469  0.00  0.00    +0.133 C 
ENDBRANCH  27  29
ENDBRANCH   1  25
TORSDOF 6
ENDMDL
