MODEL 1
REMARK VINA RESULT:      -5.1      0.000      0.000
REMARK  Name = 
REMARK  14 active torsions:
REMARK  status: ('A' for Active; 'I' for Inactive)
REMARK    1  A    between atoms: N_1  and  C_2
REMARK    2  A    between atoms: C_2  and  C_4
REMARK    3  A    between atoms: C_2  and  C_18
REMARK    4  A    between atoms: C_4  and  C_5
REMARK    5  A    between atoms: C_5  and  S_6
REMARK    6  A    between atoms: S_6  and  C_7
REMARK    7  A    between atoms: C_7  and  C_8
REMARK    8  A    between atoms: C_8  and  O_10
REMARK    9  A    between atoms: C_8  and  C_11
REMARK   10  A    between atoms: C_11  and  O_13
REMARK   11  A    between atoms: C_11  and  C_14
REMARK   12  A    between atoms: C_14  and  C_16
REMARK   13  A    between atoms: C_16  and  O_17
REMARK   14  A    between atoms: C_18  and  O_19
REMARK                            x       y       z     vdW  Elec       q    Type
REMARK                         _______ _______ _______ _____ _____    ______ ____
ROOT
ATOM      1  C   UNK     1      10.419  -0.009  24.920  0.00  0.00    +0.103 C 
ENDROOT
BRANCH   1   2
ATOM      2  S   UNK     1       8.933  -0.515  25.887  0.00  0.00    -0.158 S 
BRANCH   2   3
ATOM      3  C   UNK     1       8.710  -2.236  25.302  0.00  0.00    +0.071 C 
BRANCH   3   4
ATOM      4  C   UNK     1       8.624  -3.202  26.472  0.00  0.00    +0.040 C 
BRANCH   4   5
ATOM      5  C   UNK     1       8.126  -4.602  26.104  0.00  0.00    +0.161 C 
BRANCH   5   6
ATOM      6  N   UNK     1       7.952  -5.484  27.298  0.00  0.00    -0.318 NA
ATOM      7  H   UNK     1       7.168  -6.126  27.123  0.00  0.00    +0.119 HD
ATOM      8  H   UNK     1       8.765  -6.101  27.353  0.00  0.00    +0.119 HD
ENDBRANCH   5   6
BRANCH   5   9
ATOM      9  C   UNK     1       9.152  -5.255  25.155  0.00  0.00    +0.322 C 
ATOM     10  O   UNK     1       8.954  -5.525  23.979  0.00  0.00    -0.249 OA
BRANCH   9  11
ATOM     11  O   UNK     1      10.335  -5.473  25.778  0.00  0.00    -0.480 OA
ATOM     12  H   UNK     1      10.104  -5.884  26.649  0.00  0.00    +0.295 HD
ENDBRANCH   9  11
ENDBRANCH   5   9
ENDBRANCH   4   5
ENDBRANCH   3   4
ENDBRANCH   2   3
ENDBRANCH   1   2
BRANCH   1  13
ATOM     13  C   UNK     1      10.126   1.245  24.068  0.00  0.00    +0.160 C 
BRANCH  13  14
ATOM     14  O   UNK     1       8.910   1.872  24.513  0.00  0.00    -0.388 OA
ATOM     15  H   UNK     1       9.056   2.257  25.394  0.00  0.00    +0.210 HD
ENDBRANCH  13  14
BRANCH  13  16
ATOM     16  C   UNK     1      10.028   0.938  22.562  0.00  0.00    +0.212 C 
BRANCH  16  17
ATOM     17  C   UNK     1       8.758   0.162  22.194  0.00  0.00    +0.189 C 
ATOM     18  O   UNK     1       7.642   0.687  22.217  0.00  0.00    -0.292 OA
BRANCH  17  19
ATOM     19  C   UNK     1       8.937  -1.278  21.736  0.00  0.00    +0.232 C 
BRANCH  19  20
ATOM     20  O   UNK     1      10.312  -1.611  21.637  0.00  0.00    -0.387 OA
ATOM     21  H   UNK     1      10.429  -2.470  22.092  0.00  0.00    +0.210 HD
ENDBRANCH  19  20
ENDBRANCH  17  19
ENDBRANCH  16  17
BRANCH  16  22
ATOM     22  O   UNK     1      10.155   2.152  21.816  0.00  0.00    -0.382 OA
ATOM     23  H   UNK     1       9.279   2.347  21.424  0.00  0.00    +0.210 HD
ENDBRANCH  16  22
ENDBRANCH  13  16
ENDBRANCH   1  13
TORSDOF 14
ENDMDL
MODEL 2
REMARK VINA RESULT:      -5.0      1.856      2.448
REMARK  Name = 
REMARK  14 active torsions:
REMARK  status: ('A' for Active; 'I' for Inactive)
REMARK    1  A    between atoms: N_1  and  C_2
REMARK    2  A    between atoms: C_2  and  C_4
REMARK    3  A    between atoms: C_2  and  C_18
REMARK    4  A    between atoms: C_4  and  C_5
REMARK    5  A    between atoms: C_5  and  S_6
REMARK    6  A    between atoms: S_6  and  C_7
REMARK    7  A    between atoms: C_7  and  C_8
REMARK    8  A    between atoms: C_8  and  O_10
REMARK    9  A    between atoms: C_8  and  C_11
REMARK   10  A    between atoms: C_11  and  O_13
REMARK   11  A    between atoms: C_11  and  C_14
REMARK   12  A    between atoms: C_14  and  C_16
REMARK   13  A    between atoms: C_16  and  O_17
REMARK   14  A    between atoms: C_18  and  O_19
REMARK                            x       y       z     vdW  Elec       q    Type
REMARK                         _______ _______ _______ _____ _____    ______ ____
ROOT
ATOM      1  C   UNK     1      10.618   0.102  24.283  0.00  0.00    +0.103 C 
ENDROOT
BRANCH   1   2
ATOM      2  S   UNK     1       9.255  -1.019  24.818  0.00  0.00    -0.158 S 
BRANCH   2   3
ATOM      3  C   UNK     1       9.774  -2.591  24.032  0.00  0.00    +0.071 C 
BRANCH   3   4
ATOM      4  C   UNK     1       8.806  -3.713  24.370  0.00  0.00    +0.040 C 
BRANCH   4   5
ATOM      5  C   UNK     1       9.186  -4.528  25.608  0.00  0.00    +0.161 C 
BRANCH   5   6
ATOM      6  N   UNK     1      10.229  -5.559  25.321  0.00  0.00    -0.318 NA
ATOM      7  H   UNK     1      10.415  -6.090  26.182  0.00  0.00    +0.119 HD
ATOM      8  H   UNK     1       9.821  -6.252  24.691  0.00  0.00    +0.119 HD
ENDBRANCH   5   6
BRANCH   5   9
ATOM      9  C   UNK     1       7.924  -5.239  26.135  0.00  0.00    +0.322 C 
ATOM     10  O   UNK     1       6.860  -5.325  25.538  0.00  0.00    -0.249 OA
BRANCH   9  11
ATOM     11  O   UNK     1       8.139  -5.798  27.351  0.00  0.00    -0.480 OA
ATOM     12  H   UNK     1       7.380  -6.415  27.498  0.00  0.00    +0.295 HD
ENDBRANCH   9  11
ENDBRANCH   5   9
ENDBRANCH   4   5
ENDBRANCH   3   4
ENDBRANCH   2   3
ENDBRANCH   1   2
BRANCH   1  13
ATOM     13  C   UNK     1      10.065   1.467  23.819  0.00  0.00    +0.160 C 
BRANCH  13  14
ATOM     14  O   UNK     1       9.103   1.958  24.770  0.00  0.00    -0.388 OA
ATOM     15  H   UNK     1       9.131   2.931  24.774  0.00  0.00    +0.210 HD
ENDBRANCH  13  14
BRANCH  13  16
ATOM     16  C   UNK     1       9.424   1.411  22.419  0.00  0.00    +0.212 C 
BRANCH  16  17
ATOM     17  C   UNK     1       7.933   1.764  22.432  0.00  0.00    +0.189 C 
ATOM     18  O   UNK     1       7.082   0.989  22.877  0.00  0.00    -0.292 OA
BRANCH  17  19
ATOM     19  C   UNK     1       7.545   3.145  21.923  0.00  0.00    +0.232 C 
BRANCH  19  20
ATOM     20  O   UNK     1       8.247   4.158  22.626  0.00  0.00    -0.387 OA
ATOM     21  H   UNK     1       8.934   3.710  23.160  0.00  0.00    +0.210 HD
ENDBRANCH  19  20
ENDBRANCH  17  19
ENDBRANCH  16  17
BRANCH  16  22
ATOM     22  O   UNK     1      10.169   2.237  21.520  0.00  0.00    -0.382 OA
ATOM     23  H   UNK     1      10.374   1.696  20.729  0.00  0.00    +0.210 HD
ENDBRANCH  16  22
ENDBRANCH  13  16
ENDBRANCH   1  13
TORSDOF 14
ENDMDL
MODEL 3
REMARK VINA RESULT:      -5.0      2.282      3.160
REMARK  Name = 
REMARK  14 active torsions:
REMARK  status: ('A' for Active; 'I' for Inactive)
REMARK    1  A    between atoms: N_1  and  C_2
REMARK    2  A    between atoms: C_2  and  C_4
REMARK    3  A    between atoms: C_2  and  C_18
REMARK    4  A    between atoms: C_4  and  C_5
REMARK    5  A    between atoms: C_5  and  S_6
REMARK    6  A    between atoms: S_6  and  C_7
REMARK    7  A    between atoms: C_7  and  C_8
REMARK    8  A    between atoms: C_8  and  O_10
REMARK    9  A    between atoms: C_8  and  C_11
REMARK   10  A    between atoms: C_11  and  O_13
REMARK   11  A    between atoms: C_11  and  C_14
REMARK   12  A    between atoms: C_14  and  C_16
REMARK   13  A    between atoms: C_16  and  O_17
REMARK   14  A    between atoms: C_18  and  O_19
REMARK                            x       y       z     vdW  Elec       q    Type
REMARK                         _______ _______ _______ _____ _____    ______ ____
ROOT
ATOM      1  C   UNK     1       7.108  -1.357  23.245  0.00  0.00    +0.103 C 
ENDROOT
BRANCH   1   2
ATOM      2  S   UNK     1       6.246  -2.985  23.322  0.00  0.00    -0.158 S 
BRANCH   2   3
ATOM      3  C   UNK     1       7.617  -4.121  22.890  0.00  0.00    +0.071 C 
BRANCH   3   4
ATOM      4  C   UNK     1       7.810  -5.176  23.966  0.00  0.00    +0.040 C 
BRANCH   4   5
ATOM      5  C   UNK     1       8.840  -4.809  25.037  0.00  0.00    +0.161 C 
BRANCH   5   6
ATOM      6  N   UNK     1       9.908  -5.843  25.187  0.00  0.00    -0.318 NA
ATOM      7  H   UNK     1      10.200  -6.155  24.252  0.00  0.00    +0.119 HD
ATOM      8  H   UNK     1      10.741  -5.383  25.561  0.00  0.00    +0.119 HD
ENDBRANCH   5   6
BRANCH   5   9
ATOM      9  C   UNK     1       8.111  -4.655  26.388  0.00  0.00    +0.322 C 
ATOM     10  O   UNK     1       7.559  -3.637  26.780  0.00  0.00    -0.249 OA
BRANCH   9  11
ATOM     11  O   UNK     1       8.125  -5.812  27.094  0.00  0.00    -0.480 OA
ATOM     12  H   UNK     1       7.334  -6.321  26.785  0.00  0.00    +0.295 HD
ENDBRANCH   9  11
ENDBRANCH   5   9
ENDBRANCH   4   5
ENDBRANCH   3   4
ENDBRANCH   2   3
ENDBRANCH   1   2
BRANCH   1  13
ATOM     13  C   UNK     1       8.633  -1.527  23.410  0.00  0.00    +0.160 C 
BRANCH  13  14
ATOM     14  O   UNK     1       9.021  -1.218  24.760  0.00  0.00    -0.388 OA
ATOM     15  H   UNK     1       8.238  -0.920  25.254  0.00  0.00    +0.210 HD
ENDBRANCH  13  14
BRANCH  13  16
ATOM     16  C   UNK     1       9.443  -0.659  22.428  0.00  0.00    +0.212 C 
BRANCH  16  17
ATOM     17  C   UNK     1      10.173   0.498  23.119  0.00  0.00    +0.189 C 
ATOM     18  O   UNK     1      11.092   0.306  23.919  0.00  0.00    -0.292 OA
BRANCH  17  19
ATOM     19  C   UNK     1       9.757   1.909  22.729  0.00  0.00    +0.232 C 
BRANCH  19  20
ATOM     20  O   UNK     1       9.630   2.028  21.320  0.00  0.00    -0.387 OA
ATOM     21  H   UNK     1      10.232   1.366  20.924  0.00  0.00    +0.210 HD
ENDBRANCH  19  20
ENDBRANCH  17  19
ENDBRANCH  16  17
BRANCH  16  22
ATOM     22  O   UNK     1      10.334  -1.490  21.678  0.00  0.00    -0.382 OA
ATOM     23  H   UNK     1       9.846  -2.308  21.450  0.00  0.00    +0.210 HD
ENDBRANCH  16  22
ENDBRANCH  13  16
ENDBRANCH   1  13
TORSDOF 14
ENDMDL
MODEL 4
REMARK VINA RESULT:      -5.0      1.386      2.519
REMARK  Name = 
REMARK  14 active torsions:
REMARK  status: ('A' for Active; 'I' for Inactive)
REMARK    1  A    between atoms: N_1  and  C_2
REMARK    2  A    between atoms: C_2  and  C_4
REMARK    3  A    between atoms: C_2  and  C_18
REMARK    4  A    between atoms: C_4  and  C_5
REMARK    5  A    between atoms: C_5  and  S_6
REMARK    6  A    between atoms: S_6  and  C_7
REMARK    7  A    between atoms: C_7  and  C_8
REMARK    8  A    between atoms: C_8  and  O_10
REMARK    9  A    between atoms: C_8  and  C_11
REMARK   10  A    between atoms: C_11  and  O_13
REMARK   11  A    between atoms: C_11  and  C_14
REMARK   12  A    between atoms: C_14  and  C_16
REMARK   13  A    between atoms: C_16  and  O_17
REMARK   14  A    between atoms: C_18  and  O_19
REMARK                            x       y       z     vdW  Elec       q    Type
REMARK                         _______ _______ _______ _____ _____    ______ ____
ROOT
ATOM      1  C   UNK     1       7.931  -1.110  24.523  0.00  0.00    +0.103 C 
ENDROOT
BRANCH   1   2
ATOM      2  S   UNK     1       8.532  -1.693  26.166  0.00  0.00    -0.158 S 
BRANCH   2   3
ATOM      3  C   UNK     1       7.175  -2.827  26.646  0.00  0.00    +0.071 C 
BRANCH   3   4
ATOM      4  C   UNK     1       6.933  -3.873  25.570  0.00  0.00    +0.040 C 
BRANCH   4   5
ATOM      5  C   UNK     1       7.727  -5.169  25.755  0.00  0.00    +0.161 C 
BRANCH   5   6
ATOM      6  N   UNK     1       8.512  -5.186  27.026  0.00  0.00    -0.318 NA
ATOM      7  H   UNK     1       7.872  -5.016  27.813  0.00  0.00    +0.119 HD
ATOM      8  H   UNK     1       8.839  -6.143  27.181  0.00  0.00    +0.119 HD
ENDBRANCH   5   6
BRANCH   5   9
ATOM      9  C   UNK     1       8.703  -5.320  24.571  0.00  0.00    +0.322 C 
ATOM     10  O   UNK     1       8.378  -5.457  23.400  0.00  0.00    -0.249 OA
BRANCH   9  11
ATOM     11  O   UNK     1       9.993  -5.252  24.980  0.00  0.00    -0.480 OA
ATOM     12  H   UNK     1      10.282  -6.191  25.103  0.00  0.00    +0.295 HD
ENDBRANCH   9  11
ENDBRANCH   5   9
ENDBRANCH   4   5
ENDBRANCH   3   4
ENDBRANCH   2   3
ENDBRANCH   1   2
BRANCH   1  13
ATOM     13  C   UNK     1       8.868  -1.581  23.390  0.00  0.00    +0.160 C 
BRANCH  13  14
ATOM     14  O   UNK     1      10.023  -2.236  23.944  0.00  0.00    -0.388 OA
ATOM     15  H   UNK     1      10.324  -1.739  24.725  0.00  0.00    +0.210 HD
ENDBRANCH  13  14
BRANCH  13  16
ATOM     16  C   UNK     1       9.319  -0.432  22.468  0.00  0.00    +0.212 C 
BRANCH  16  17
ATOM     17  C   UNK     1      10.183   0.608  23.190  0.00  0.00    +0.189 C 
ATOM     18  O   UNK     1      11.022   0.286  24.036  0.00  0.00    -0.292 OA
BRANCH  17  19
ATOM     19  C   UNK     1      10.006   2.061  22.776  0.00  0.00    +0.232 C 
BRANCH  19  20
ATOM     20  O   UNK     1       9.841   2.171  21.371  0.00  0.00    -0.387 OA
ATOM     21  H   UNK     1      10.722   2.374  20.997  0.00  0.00    +0.210 HD
ENDBRANCH  19  20
ENDBRANCH  17  19
ENDBRANCH  16  17
BRANCH  16  22
ATOM     22  O   UNK     1       9.972  -0.972  21.315  0.00  0.00    -0.382 OA
ATOM     23  H   UNK     1      10.125  -0.231  20.693  0.00  0.00    +0.210 HD
ENDBRANCH  16  22
ENDBRANCH  13  16
ENDBRANCH   1  13
TORSDOF 14
ENDMDL
MODEL 5
REMARK VINA RESULT:      -5.0      3.834      4.830
REMARK  Name = 
REMARK  14 active torsions:
REMARK  status: ('A' for Active; 'I' for Inactive)
REMARK    1  A    between atoms: N_1  and  C_2
REMARK    2  A    between atoms: C_2  and  C_4
REMARK    3  A    between atoms: C_2  and  C_18
REMARK    4  A    between atoms: C_4  and  C_5
REMARK    5  A    between atoms: C_5  and  S_6
REMARK    6  A    between atoms: S_6  and  C_7
REMARK    7  A    between atoms: C_7  and  C_8
REMARK    8  A    between atoms: C_8  and  O_10
REMARK    9  A    between atoms: C_8  and  C_11
REMARK   10  A    between atoms: C_11  and  O_13
REMARK   11  A    between atoms: C_11  and  C_14
REMARK   12  A    between atoms: C_14  and  C_16
REMARK   13  A    between atoms: C_16  and  O_17
REMARK   14  A    between atoms: C_18  and  O_19
REMARK                            x       y       z     vdW  Elec       q    Type
REMARK                         _______ _______ _______ _____ _____    ______ ____
ROOT
ATOM      1  C   UNK     1       6.737  -2.010  24.018  0.00  0.00    +0.103 C 
ENDROOT
BRANCH   1   2
ATOM      2  S   UNK     1       8.359  -1.878  23.152  0.00  0.00    -0.158 S 
BRANCH   2   3
ATOM      3  C   UNK     1       9.380  -3.022  24.154  0.00  0.00    +0.071 C 
BRANCH   3   4
ATOM      4  C   UNK     1       8.868  -3.099  25.583  0.00  0.00    +0.040 C 
BRANCH   4   5
ATOM      5  C   UNK     1       9.142  -4.431  26.285  0.00  0.00    +0.161 C 
BRANCH   5   6
ATOM      6  N   UNK     1       9.765  -5.442  25.377  0.00  0.00    -0.318 NA
ATOM      7  H   UNK     1      10.777  -5.471  25.561  0.00  0.00    +0.119 HD
ATOM      8  H   UNK     1       9.440  -6.367  25.666  0.00  0.00    +0.119 HD
ENDBRANCH   5   6
BRANCH   5   9
ATOM      9  C   UNK     1       7.805  -4.997  26.805  0.00  0.00    +0.322 C 
ATOM     10  O   UNK     1       6.700  -4.530  26.566  0.00  0.00    -0.249 OA
BRANCH   9  11
ATOM     11  O   UNK     1       7.994  -6.113  27.549  0.00  0.00    -0.480 OA
ATOM     12  H   UNK     1       7.087  -6.458  27.746  0.00  0.00    +0.295 HD
ENDBRANCH   9  11
ENDBRANCH   5   9
ENDBRANCH   4   5
ENDBRANCH   3   4
ENDBRANCH   2   3
ENDBRANCH   1   2
BRANCH   1  13
ATOM     13  C   UNK     1       5.808  -3.018  23.307  0.00  0.00    +0.160 C 
BRANCH  13  14
ATOM     14  O   UNK     1       5.360  -4.018  24.239  0.00  0.00    -0.388 OA
ATOM     15  H   UNK     1       4.770  -3.601  24.891  0.00  0.00    +0.210 HD
ENDBRANCH  13  14
BRANCH  13  16
ATOM     16  C   UNK     1       6.476  -3.701  22.098  0.00  0.00    +0.212 C 
BRANCH  16  17
ATOM     17  C   UNK     1       6.793  -5.179  22.350  0.00  0.00    +0.189 C 
ATOM     18  O   UNK     1       7.674  -5.533  23.138  0.00  0.00    -0.292 OA
BRANCH  17  19
ATOM     19  C   UNK     1       5.931  -6.203  21.627  0.00  0.00    +0.232 C 
BRANCH  19  20
ATOM     20  O   UNK     1       4.588  -6.145  22.081  0.00  0.00    -0.387 OA
ATOM     21  H   UNK     1       4.236  -7.058  22.046  0.00  0.00    +0.210 HD
ENDBRANCH  19  20
ENDBRANCH  17  19
ENDBRANCH  16  17
BRANCH  16  22
ATOM     22  O   UNK     1       5.667  -3.511  20.934  0.00  0.00    -0.382 OA
ATOM     23  H   UNK     1       5.407  -2.567  20.911  0.00  0.00    +0.210 HD
ENDBRANCH  16  22
ENDBRANCH  13  16
ENDBRANCH   1  13
TORSDOF 14
ENDMDL
MODEL 6
REMARK VINA RESULT:      -5.0      2.367      6.264
REMARK  Name = 
REMARK  14 active torsions:
REMARK  status: ('A' for Active; 'I' for Inactive)
REMARK    1  A    between atoms: N_1  and  C_2
REMARK    2  A    between atoms: C_2  and  C_4
REMARK    3  A    between atoms: C_2  and  C_18
REMARK    4  A    between atoms: C_4  and  C_5
REMARK    5  A    between atoms: C_5  and  S_6
REMARK    6  A    between atoms: S_6  and  C_7
REMARK    7  A    between atoms: C_7  and  C_8
REMARK    8  A    between atoms: C_8  and  O_10
REMARK    9  A    between atoms: C_8  and  C_11
REMARK   10  A    between atoms: C_11  and  O_13
REMARK   11  A    between atoms: C_11  and  C_14
REMARK   12  A    between atoms: C_14  and  C_16
REMARK   13  A    between atoms: C_16  and  O_17
REMARK   14  A    between atoms: C_18  and  O_19
REMARK                            x       y       z     vdW  Elec       q    Type
REMARK                         _______ _______ _______ _____ _____    ______ ____
ROOT
ATOM      1  C   UNK     1       8.183  -2.099  25.255  0.00  0.00    +0.103 C 
ENDROOT
BRANCH   1   2
ATOM      2  S   UNK     1       8.906  -0.657  26.148  0.00  0.00    -0.158 S 
BRANCH   2   3
ATOM      3  C   UNK     1       8.784   0.641  24.861  0.00  0.00    +0.071 C 
BRANCH   3   4
ATOM      4  C   UNK     1       9.720   0.347  23.700  0.00  0.00    +0.040 C 
BRANCH   4   5
ATOM      5  C   UNK     1       9.016   0.121  22.359  0.00  0.00    +0.161 C 
BRANCH   5   6
ATOM      6  N   UNK     1       9.797  -0.762  21.441  0.00  0.00    -0.318 NA
ATOM      7  H   UNK     1       9.593  -0.492  20.470  0.00  0.00    +0.119 HD
ATOM      8  H   UNK     1      10.787  -0.535  21.554  0.00  0.00    +0.119 HD
ENDBRANCH   5   6
BRANCH   5   9
ATOM      9  C   UNK     1       8.814   1.488  21.674  0.00  0.00    +0.322 C 
ATOM     10  O   UNK     1       7.735   1.966  21.356  0.00  0.00    -0.249 OA
BRANCH   9  11
ATOM     11  O   UNK     1       9.994   2.128  21.488  0.00  0.00    -0.480 OA
ATOM     12  H   UNK     1       9.896   2.623  20.636  0.00  0.00    +0.295 HD
ENDBRANCH   9  11
ENDBRANCH   5   9
ENDBRANCH   4   5
ENDBRANCH   3   4
ENDBRANCH   2   3
ENDBRANCH   1   2
BRANCH   1  13
ATOM     13  C   UNK     1       9.284  -3.087  24.812  0.00  0.00    +0.160 C 
BRANCH  13  14
ATOM     14  O   UNK     1       9.289  -3.209  23.378  0.00  0.00    -0.388 OA
ATOM     15  H   UNK     1       8.372  -3.176  23.055  0.00  0.00    +0.210 HD
ENDBRANCH  13  14
BRANCH  13  16
ATOM     16  C   UNK     1       9.132  -4.481  25.448  0.00  0.00    +0.212 C 
BRANCH  16  17
ATOM     17  C   UNK     1       7.739  -5.085  25.235  0.00  0.00    +0.189 C 
ATOM     18  O   UNK     1       7.280  -5.287  24.107  0.00  0.00    -0.292 OA
BRANCH  17  19
ATOM     19  C   UNK     1       6.961  -5.485  26.480  0.00  0.00    +0.232 C 
BRANCH  19  20
ATOM     20  O   UNK     1       7.841  -5.848  27.532  0.00  0.00    -0.387 OA
ATOM     21  H   UNK     1       7.567  -6.736  27.838  0.00  0.00    +0.210 HD
ENDBRANCH  19  20
ENDBRANCH  17  19
ENDBRANCH  16  17
BRANCH  16  22
ATOM     22  O   UNK     1      10.173  -5.340  24.973  0.00  0.00    -0.382 OA
ATOM     23  H   UNK     1      10.799  -4.785  24.465  0.00  0.00    +0.210 HD
ENDBRANCH  16  22
ENDBRANCH  13  16
ENDBRANCH   1  13
TORSDOF 14
ENDMDL
MODEL 7
REMARK VINA RESULT:      -4.9      2.089      2.881
REMARK  Name = 
REMARK  14 active torsions:
REMARK  status: ('A' for Active; 'I' for Inactive)
REMARK    1  A    between atoms: N_1  and  C_2
REMARK    2  A    between atoms: C_2  and  C_4
REMARK    3  A    between atoms: C_2  and  C_18
REMARK    4  A    between atoms: C_4  and  C_5
REMARK    5  A    between atoms: C_5  and  S_6
REMARK    6  A    between atoms: S_6  and  C_7
REMARK    7  A    between atoms: C_7  and  C_8
REMARK    8  A    between atoms: C_8  and  O_10
REMARK    9  A    between atoms: C_8  and  C_11
REMARK   10  A    between atoms: C_11  and  O_13
REMARK   11  A    between atoms: C_11  and  C_14
REMARK   12  A    between atoms: C_14  and  C_16
REMARK   13  A    between atoms: C_16  and  O_17
REMARK   14  A    between atoms: C_18  and  O_19
REMARK                            x       y       z     vdW  Elec       q    Type
REMARK                         _______ _______ _______ _____ _____    ______ ____
ROOT
ATOM      1  C   UNK     1       9.458  -2.574  23.754  0.00  0.00    +0.103 C 
ENDROOT
BRANCH   1   2
ATOM      2  S   UNK     1       8.114  -2.645  22.494  0.00  0.00    -0.158 S 
BRANCH   2   3
ATOM      3  C   UNK     1       7.210  -4.142  23.038  0.00  0.00    +0.071 C 
BRANCH   3   4
ATOM      4  C   UNK     1       7.948  -4.843  24.167  0.00  0.00    +0.040 C 
BRANCH   4   5
ATOM      5  C   UNK     1       7.195  -4.864  25.500  0.00  0.00    +0.161 C 
BRANCH   5   6
ATOM      6  N   UNK     1       6.448  -3.596  25.759  0.00  0.00    -0.318 NA
ATOM      7  H   UNK     1       6.010  -3.653  26.687  0.00  0.00    +0.119 HD
ATOM      8  H   UNK     1       7.132  -2.843  25.859  0.00  0.00    +0.119 HD
ENDBRANCH   5   6
BRANCH   5   9
ATOM      9  C   UNK     1       8.215  -5.075  26.637  0.00  0.00    +0.322 C 
ATOM     10  O   UNK     1       9.303  -4.523  26.721  0.00  0.00    -0.249 OA
BRANCH   9  11
ATOM     11  O   UNK     1       7.746  -5.937  27.571  0.00  0.00    -0.480 OA
ATOM     12  H   UNK     1       7.659  -5.407  28.402  0.00  0.00    +0.295 HD
ENDBRANCH   9  11
ENDBRANCH   5   9
ENDBRANCH   4   5
ENDBRANCH   3   4
ENDBRANCH   2   3
ENDBRANCH   1   2
BRANCH   1  13
ATOM     13  C   UNK     1       9.248  -1.392  24.725  0.00  0.00    +0.160 C 
BRANCH  13  14
ATOM     14  O   UNK     1       7.858  -1.021  24.757  0.00  0.00    -0.388 OA
ATOM     15  H   UNK     1       7.648  -0.658  25.635  0.00  0.00    +0.210 HD
ENDBRANCH  13  14
BRANCH  13  16
ATOM     16  C   UNK     1      10.102  -0.161  24.367  0.00  0.00    +0.212 C 
BRANCH  16  17
ATOM     17  C   UNK     1       9.386   0.806  23.418  0.00  0.00    +0.189 C 
ATOM     18  O   UNK     1       8.530   1.600  23.817  0.00  0.00    -0.292 OA
BRANCH  17  19
ATOM     19  C   UNK     1       9.819   0.790  21.959  0.00  0.00    +0.232 C 
BRANCH  19  20
ATOM     20  O   UNK     1      10.027   2.109  21.478  0.00  0.00    -0.387 OA
ATOM     21  H   UNK     1       9.147   2.464  21.236  0.00  0.00    +0.210 HD
ENDBRANCH  19  20
ENDBRANCH  17  19
ENDBRANCH  16  17
BRANCH  16  22
ATOM     22  O   UNK     1      10.540   0.483  25.567  0.00  0.00    -0.382 OA
ATOM     23  H   UNK     1      10.956  -0.202  26.130  0.00  0.00    +0.210 HD
ENDBRANCH  16  22
ENDBRANCH  13  16
ENDBRANCH   1  13
TORSDOF 14
ENDMDL
MODEL 8
REMARK VINA RESULT:      -4.9      2.994      5.974
REMARK  Name = 
REMARK  14 active torsions:
REMARK  status: ('A' for Active; 'I' for Inactive)
REMARK    1  A    between atoms: N_1  and  C_2
REMARK    2  A    between atoms: C_2  and  C_4
REMARK    3  A    between atoms: C_2  and  C_18
REMARK    4  A    between atoms: C_4  and  C_5
REMARK    5  A    between atoms: C_5  and  S_6
REMARK    6  A    between atoms: S_6  and  C_7
REMARK    7  A    between atoms: C_7  and  C_8
REMARK    8  A    between atoms: C_8  and  O_10
REMARK    9  A    between atoms: C_8  and  C_11
REMARK   10  A    between atoms: C_11  and  O_13
REMARK   11  A    between atoms: C_11  and  C_14
REMARK   12  A    between atoms: C_14  and  C_16
REMARK   13  A    between atoms: C_16  and  O_17
REMARK   14  A    between atoms: C_18  and  O_19
REMARK                            x       y       z     vdW  Elec       q    Type
REMARK                         _______ _______ _______ _____ _____    ______ ____
ROOT
ATOM      1  C   UNK     1       6.897  -2.167  22.700  0.00  0.00    +0.103 C 
ENDROOT
BRANCH   1   2
ATOM      2  S   UNK     1       6.638  -1.466  24.385  0.00  0.00    -0.158 S 
BRANCH   2   3
ATOM      3  C   UNK     1       7.069   0.291  24.097  0.00  0.00    +0.071 C 
BRANCH   3   4
ATOM      4  C   UNK     1       7.545   0.508  22.671  0.00  0.00    +0.040 C 
BRANCH   4   5
ATOM      5  C   UNK     1       8.925   1.161  22.555  0.00  0.00    +0.161 C 
BRANCH   5   6
ATOM      6  N   UNK     1       9.099   1.915  21.277  0.00  0.00    -0.318 NA
ATOM      7  H   UNK     1      10.073   1.812  20.962  0.00  0.00    +0.119 HD
ATOM      8  H   UNK     1       8.558   1.437  20.553  0.00  0.00    +0.119 HD
ENDBRANCH   5   6
BRANCH   5   9
ATOM      9  C   UNK     1       9.998   0.056  22.624  0.00  0.00    +0.322 C 
ATOM     10  O   UNK     1      10.762  -0.129  23.561  0.00  0.00    -0.249 OA
BRANCH   9  11
ATOM     11  O   UNK     1       9.979  -0.725  21.517  0.00  0.00    -0.480 OA
ATOM     12  H   UNK     1       9.558  -1.575  21.798  0.00  0.00    +0.295 HD
ENDBRANCH   9  11
ENDBRANCH   5   9
ENDBRANCH   4   5
ENDBRANCH   3   4
ENDBRANCH   2   3
ENDBRANCH   1   2
BRANCH   1  13
ATOM     13  C   UNK     1       7.931  -3.313  22.728  0.00  0.00    +0.160 C 
BRANCH  13  14
ATOM     14  O   UNK     1       7.279  -4.574  22.493  0.00  0.00    -0.388 OA
ATOM     15  H   UNK     1       6.933  -4.586  21.583  0.00  0.00    +0.210 HD
ENDBRANCH  13  14
BRANCH  13  16
ATOM     16  C   UNK     1       8.719  -3.379  24.051  0.00  0.00    +0.212 C 
BRANCH  16  17
ATOM     17  C   UNK     1       8.626  -4.749  24.731  0.00  0.00    +0.189 C 
ATOM     18  O   UNK     1       9.278  -5.720  24.336  0.00  0.00    -0.292 OA
BRANCH  17  19
ATOM     19  C   UNK     1       7.737  -4.851  25.962  0.00  0.00    +0.232 C 
BRANCH  19  20
ATOM     20  O   UNK     1       8.241  -5.817  26.872  0.00  0.00    -0.387 OA
ATOM     21  H   UNK     1       7.549  -5.955  27.550  0.00  0.00    +0.210 HD
ENDBRANCH  19  20
ENDBRANCH  17  19
ENDBRANCH  16  17
BRANCH  16  22
ATOM     22  O   UNK     1      10.073  -2.978  23.822  0.00  0.00    -0.382 OA
ATOM     23  H   UNK     1      10.137  -2.028  24.048  0.00  0.00    +0.210 HD
ENDBRANCH  16  22
ENDBRANCH  13  16
ENDBRANCH   1  13
TORSDOF 14
ENDMDL
MODEL 9
REMARK VINA RESULT:      -4.9      2.801      6.644
REMARK  Name = 
REMARK  14 active torsions:
REMARK  status: ('A' for Active; 'I' for Inactive)
REMARK    1  A    between atoms: N_1  and  C_2
REMARK    2  A    between atoms: C_2  and  C_4
REMARK    3  A    between atoms: C_2  and  C_18
REMARK    4  A    between atoms: C_4  and  C_5
REMARK    5  A    between atoms: C_5  and  S_6
REMARK    6  A    between atoms: S_6  and  C_7
REMARK    7  A    between atoms: C_7  and  C_8
REMARK    8  A    between atoms: C_8  and  O_10
REMARK    9  A    between atoms: C_8  and  C_11
REMARK   10  A    between atoms: C_11  and  O_13
REMARK   11  A    between atoms: C_11  and  C_14
REMARK   12  A    between atoms: C_14  and  C_16
REMARK   13  A    between atoms: C_16  and  O_17
REMARK   14  A    between atoms: C_18  and  O_19
REMARK                            x       y       z     vdW  Elec       q    Type
REMARK                         _______ _______ _______ _____ _____    ______ ____
ROOT
ATOM      1  C   UNK     1       8.174  -4.604  24.051  0.00  0.00    +0.103 C 
ENDROOT
BRANCH   1   2
ATOM      2  S   UNK     1       8.053  -3.077  23.025  0.00  0.00    -0.158 S 
BRANCH   2   3
ATOM      3  C   UNK     1       9.485  -2.124  23.655  0.00  0.00    +0.071 C 
BRANCH   3   4
ATOM      4  C   UNK     1      10.107  -1.284  22.552  0.00  0.00    +0.040 C 
BRANCH   4   5
ATOM      5  C   UNK     1      10.307   0.190  22.914  0.00  0.00    +0.161 C 
BRANCH   5   6
ATOM      6  N   UNK     1       9.633   0.566  24.194  0.00  0.00    -0.318 NA
ATOM      7  H   UNK     1       8.642   0.296  24.137  0.00  0.00    +0.119 HD
ATOM      8  H   UNK     1      10.006  -0.034  24.933  0.00  0.00    +0.119 HD
ENDBRANCH   5   6
BRANCH   5   9
ATOM      9  C   UNK     1       9.727   1.058  21.779  0.00  0.00    +0.322 C 
ATOM     10  O   UNK     1       8.823   0.723  21.026  0.00  0.00    -0.249 OA
BRANCH   9  11
ATOM     11  O   UNK     1      10.323   2.273  21.729  0.00  0.00    -0.480 OA
ATOM     12  H   UNK     1      11.258   2.122  22.019  0.00  0.00    +0.295 HD
ENDBRANCH   9  11
ENDBRANCH   5   9
ENDBRANCH   4   5
ENDBRANCH   3   4
ENDBRANCH   2   3
ENDBRANCH   1   2
BRANCH   1  13
ATOM     13  C   UNK     1       9.232  -4.443  25.164  0.00  0.00    +0.160 C 
BRANCH  13  14
ATOM     14  O   UNK     1      10.288  -5.403  24.983  0.00  0.00    -0.388 OA
ATOM     15  H   UNK     1       9.933  -6.297  25.135  0.00  0.00    +0.210 HD
ENDBRANCH  13  14
BRANCH  13  16
ATOM     16  C   UNK     1       8.642  -4.586  26.580  0.00  0.00    +0.212 C 
BRANCH  16  17
ATOM     17  C   UNK     1       7.461  -3.642  26.831  0.00  0.00    +0.189 C 
ATOM     18  O   UNK     1       7.555  -2.421  26.674  0.00  0.00    -0.292 OA
BRANCH  17  19
ATOM     19  C   UNK     1       6.138  -4.280  27.226  0.00  0.00    +0.232 C 
BRANCH  19  20
ATOM     20  O   UNK     1       6.242  -4.921  28.488  0.00  0.00    -0.387 OA
ATOM     21  H   UNK     1       7.049  -5.475  28.459  0.00  0.00    +0.210 HD
ENDBRANCH  19  20
ENDBRANCH  17  19
ENDBRANCH  16  17
BRANCH  16  22
ATOM     22  O   UNK     1       8.301  -5.954  26.821  0.00  0.00    -0.382 OA
ATOM     23  H   UNK     1       8.906  -6.504  26.280  0.00  0.00    +0.210 HD
ENDBRANCH  16  22
ENDBRANCH  13  16
ENDBRANCH   1  13
TORSDOF 14
ENDMDL
