MODEL 1
REMARK VINA RESULT:      -7.8      0.000      0.000
REMARK  Name = 
REMARK  5 active torsions:
REMARK  status: ('A' for Active; 'I' for Inactive)
REMARK    1  A    between atoms: C_1  and  N_2
REMARK    2  A    between atoms: C_3  and  C_5
REMARK    3  A    between atoms: C_5  and  N_6
REMARK    4  A    between atoms: C_9  and  N_12
REMARK    5  A    between atoms: C_15  and  C_19
REMARK                            x       y       z     vdW  Elec       q    Type
REMARK                         _______ _______ _______ _____ _____    ______ ____
ROOT
ATOM      1  N   UNL     1       9.376  -1.766  24.495  0.00  0.00    -0.311 N 
ATOM      2  H   UNL     1       9.079  -1.358  25.374  0.00  0.00    +0.149 HD
ATOM      3  C   UNL     1       9.383  -0.774  23.538  0.00  0.00    +0.216 A 
ATOM      4  N   UNL     1       9.410  -1.100  22.239  0.00  0.00    -0.223 NA
ATOM      5  C   UNL     1       9.395  -0.095  21.353  0.00  0.00    +0.116 A 
ATOM      6  C   UNL     1       9.354   1.222  21.720  0.00  0.00    +0.050 A 
ATOM      7  C   UNL     1       9.349   1.466  23.078  0.00  0.00    +0.094 A 
ATOM      8  N   UNL     1       9.358   0.485  23.997  0.00  0.00    -0.213 NA
ENDROOT
BRANCH   7   9
ATOM      9  C   UNL     1       9.259   2.832  23.585  0.00  0.00    +0.092 A 
ATOM     10  N   UNL     1      10.272   3.781  23.642  0.00  0.00    -0.298 N 
ATOM     11  C   UNL     1       9.686   4.953  24.130  0.00  0.00    +0.138 A 
ATOM     12  C   UNL     1      10.507   6.110  24.246  0.00  0.00    +0.047 A 
ATOM     13  C   UNL     1      11.806   6.049  23.901  0.00  0.00    +0.005 A 
ATOM     14  C   UNL     1      12.396   4.816  23.410  0.00  0.00    +0.018 A 
ATOM     15  N   UNL     1       8.411   4.792  24.405  0.00  0.00    -0.235 NA
ATOM     16  C   UNL     1      11.625   3.721  23.284  0.00  0.00    +0.093 A 
ATOM     17  C   UNL     1       8.145   3.494  24.079  0.00  0.00    +0.141 A 
ENDBRANCH   7   9
BRANCH   1  21
ATOM     18  N   UNL     1       7.254  -4.061  26.471  0.00  0.00    -0.294 NA
ATOM     19  C   UNL     1       6.684  -3.073  25.538  0.00  0.00    +0.086 C 
ATOM     20  C   UNL     1       7.295  -3.062  24.133  0.00  0.00    +0.037 C 
ATOM     21  C   UNL     1       8.828  -3.072  24.136  0.00  0.00    +0.076 C 
ATOM     22  C   UNL     1       9.368  -4.111  25.116  0.00  0.00    +0.037 C 
ATOM     23  C   UNL     1       8.723  -3.959  26.488  0.00  0.00    +0.086 C 
BRANCH  18  24
ATOM     24  C   UNL     1       6.780  -5.440  26.177  0.00  0.00    +0.180 C 
BRANCH  24  28
ATOM     25  C   UNL     1       5.243  -5.559  29.663  0.00  0.00    +0.128 C 
ATOM     26  N   UNL     1       5.914  -5.188  28.447  0.00  0.00    -0.317 N 
ATOM     27  H   UNL     1       6.569  -4.410  28.436  0.00  0.00    +0.148 HD
ATOM     28  C   UNL     1       5.955  -6.012  27.343  0.00  0.00    +0.227 C 
ATOM     29  O   UNL     1       5.353  -7.079  27.267  0.00  0.00    -0.274 OA
ENDBRANCH  24  28
ENDBRANCH  18  24
ENDBRANCH   1  21
TORSDOF 4
ENDMDL
MODEL 2
REMARK VINA RESULT:      -7.5      2.948      9.529
REMARK  Name = 
REMARK  5 active torsions:
REMARK  status: ('A' for Active; 'I' for Inactive)
REMARK    1  A    between atoms: C_1  and  N_2
REMARK    2  A    between atoms: C_3  and  C_5
REMARK    3  A    between atoms: C_5  and  N_6
REMARK    4  A    between atoms: C_9  and  N_12
REMARK    5  A    between atoms: C_15  and  C_19
REMARK                            x       y       z     vdW  Elec       q    Type
REMARK                         _______ _______ _______ _____ _____    ______ ____
ROOT
ATOM      1  N   UNL     1       8.611  -2.283  23.325  0.00  0.00    -0.311 N 
ATOM      2  H   UNL     1       7.762  -1.756  23.490  0.00  0.00    +0.149 HD
ATOM      3  C   UNL     1       8.646  -3.337  24.211  0.00  0.00    +0.216 A 
ATOM      4  N   UNL     1       9.796  -3.986  24.434  0.00  0.00    -0.223 NA
ATOM      5  C   UNL     1       9.775  -4.990  25.321  0.00  0.00    +0.116 A 
ATOM      6  C   UNL     1       8.644  -5.367  25.992  0.00  0.00    +0.050 A 
ATOM      7  C   UNL     1       7.501  -4.658  25.687  0.00  0.00    +0.094 A 
ATOM      8  N   UNL     1       7.484  -3.642  24.807  0.00  0.00    -0.213 NA
ENDROOT
BRANCH   7   9
ATOM      9  C   UNL     1       6.246  -4.941  26.377  0.00  0.00    +0.092 A 
ATOM     10  N   UNL     1       5.192  -5.726  25.926  0.00  0.00    -0.298 N 
ATOM     11  C   UNL     1       4.254  -5.760  26.963  0.00  0.00    +0.138 A 
ATOM     12  C   UNL     1       3.081  -6.543  26.776  0.00  0.00    +0.047 A 
ATOM     13  C   UNL     1       2.897  -7.211  25.622  0.00  0.00    +0.005 A 
ATOM     14  C   UNL     1       3.877  -7.149  24.553  0.00  0.00    +0.018 A 
ATOM     15  N   UNL     1       4.633  -5.040  27.995  0.00  0.00    -0.235 NA
ATOM     16  C   UNL     1       4.996  -6.422  24.726  0.00  0.00    +0.093 A 
ATOM     17  C   UNL     1       5.848  -4.532  27.641  0.00  0.00    +0.141 A 
ENDBRANCH   7   9
BRANCH   1  21
ATOM     18  N   UNL     1       9.139   1.370  23.102  0.00  0.00    -0.294 NA
ATOM     19  C   UNL     1       9.305   0.629  24.364  0.00  0.00    +0.086 C 
ATOM     20  C   UNL     1      10.183  -0.624  24.284  0.00  0.00    +0.037 C 
ATOM     21  C   UNL     1       9.843  -1.530  23.094  0.00  0.00    +0.076 C 
ATOM     22  C   UNL     1       9.681  -0.716  21.813  0.00  0.00    +0.037 C 
ATOM     23  C   UNL     1       8.729   0.455  22.022  0.00  0.00    +0.086 C 
BRANCH  18  24
ATOM     24  C   UNL     1      10.353   2.156  22.755  0.00  0.00    +0.180 C 
BRANCH  24  28
ATOM     25  C   UNL     1      11.644   5.615  23.703  0.00  0.00    +0.128 C 
ATOM     26  N   UNL     1      11.454   4.301  23.154  0.00  0.00    -0.317 N 
ATOM     27  H   UNL     1      12.239   3.785  22.763  0.00  0.00    +0.148 HD
ATOM     28  C   UNL     1      10.317   3.557  23.389  0.00  0.00    +0.227 C 
ATOM     29  O   UNL     1       9.340   3.982  24.001  0.00  0.00    -0.274 OA
ENDBRANCH  24  28
ENDBRANCH  18  24
ENDBRANCH   1  21
TORSDOF 4
ENDMDL
MODEL 3
REMARK VINA RESULT:      -7.5      3.428      9.505
REMARK  Name = 
REMARK  5 active torsions:
REMARK  status: ('A' for Active; 'I' for Inactive)
REMARK    1  A    between atoms: C_1  and  N_2
REMARK    2  A    between atoms: C_3  and  C_5
REMARK    3  A    between atoms: C_5  and  N_6
REMARK    4  A    between atoms: C_9  and  N_12
REMARK    5  A    between atoms: C_15  and  C_19
REMARK                            x       y       z     vdW  Elec       q    Type
REMARK                         _______ _______ _______ _____ _____    ______ ____
ROOT
ATOM      1  N   UNL     1       8.898  -1.097  22.613  0.00  0.00    -0.311 N 
ATOM      2  H   UNL     1       7.970  -0.852  22.289  0.00  0.00    +0.149 HD
ATOM      3  C   UNL     1       8.824  -2.314  23.256  0.00  0.00    +0.216 A 
ATOM      4  N   UNL     1       9.822  -2.708  24.058  0.00  0.00    -0.223 NA
ATOM      5  C   UNL     1       9.688  -3.891  24.672  0.00  0.00    +0.116 A 
ATOM      6  C   UNL     1       8.592  -4.693  24.512  0.00  0.00    +0.050 A 
ATOM      7  C   UNL     1       7.622  -4.220  23.652  0.00  0.00    +0.094 A 
ATOM      8  N   UNL     1       7.719  -3.036  23.022  0.00  0.00    -0.213 NA
ENDROOT
BRANCH   7   9
ATOM      9  C   UNL     1       6.388  -4.969  23.441  0.00  0.00    +0.092 A 
ATOM     10  N   UNL     1       5.653  -5.673  24.388  0.00  0.00    -0.298 N 
ATOM     11  C   UNL     1       4.518  -6.154  23.728  0.00  0.00    +0.138 A 
ATOM     12  C   UNL     1       3.562  -6.882  24.491  0.00  0.00    +0.047 A 
ATOM     13  C   UNL     1       3.773  -7.098  25.802  0.00  0.00    +0.005 A 
ATOM     14  C   UNL     1       4.968  -6.602  26.463  0.00  0.00    +0.018 A 
ATOM     15  N   UNL     1       4.512  -5.830  22.455  0.00  0.00    -0.235 NA
ATOM     16  C   UNL     1       5.870  -5.901  25.753  0.00  0.00    +0.093 A 
ATOM     17  C   UNL     1       5.656  -5.110  22.272  0.00  0.00    +0.141 A 
ENDBRANCH   7   9
BRANCH   1  21
ATOM     18  N   UNL     1       8.163   2.505  23.007  0.00  0.00    -0.294 NA
ATOM     19  C   UNL     1       7.860   1.523  24.062  0.00  0.00    +0.086 C 
ATOM     20  C   UNL     1       9.008   0.579  24.436  0.00  0.00    +0.037 C 
ATOM     21  C   UNL     1       9.706  -0.041  23.219  0.00  0.00    +0.076 C 
ATOM     22  C   UNL     1       9.998   1.016  22.157  0.00  0.00    +0.037 C 
ATOM     23  C   UNL     1       8.752   1.833  21.836  0.00  0.00    +0.086 C 
BRANCH  18  24
ATOM     24  C   UNL     1       9.010   3.619  23.512  0.00  0.00    +0.180 C 
BRANCH  24  28
ATOM     25  C   UNL     1       7.178   6.526  21.863  0.00  0.00    +0.128 C 
ATOM     26  N   UNL     1       7.840   5.286  22.163  0.00  0.00    -0.317 N 
ATOM     27  H   UNL     1       8.211   4.704  21.416  0.00  0.00    +0.148 HD
ATOM     28  C   UNL     1       8.273   4.967  23.433  0.00  0.00    +0.227 C 
ATOM     29  O   UNL     1       8.052   5.660  24.422  0.00  0.00    -0.274 OA
ENDBRANCH  24  28
ENDBRANCH  18  24
ENDBRANCH   1  21
TORSDOF 4
ENDMDL
MODEL 4
REMARK VINA RESULT:      -7.3      2.641      2.999
REMARK  Name = 
REMARK  5 active torsions:
REMARK  status: ('A' for Active; 'I' for Inactive)
REMARK    1  A    between atoms: C_1  and  N_2
REMARK    2  A    between atoms: C_3  and  C_5
REMARK    3  A    between atoms: C_5  and  N_6
REMARK    4  A    between atoms: C_9  and  N_12
REMARK    5  A    between atoms: C_15  and  C_19
REMARK                            x       y       z     vdW  Elec       q    Type
REMARK                         _______ _______ _______ _____ _____    ______ ____
ROOT
ATOM      1  N   UNL     1       7.505  -2.279  23.668  0.00  0.00    -0.311 N 
ATOM      2  H   UNL     1       6.617  -1.891  23.965  0.00  0.00    +0.149 HD
ATOM      3  C   UNL     1       8.180  -1.315  22.952  0.00  0.00    +0.216 A 
ATOM      4  N   UNL     1       9.212  -1.662  22.172  0.00  0.00    -0.223 NA
ATOM      5  C   UNL     1       9.818  -0.686  21.483  0.00  0.00    +0.116 A 
ATOM      6  C   UNL     1       9.429   0.624  21.547  0.00  0.00    +0.050 A 
ATOM      7  C   UNL     1       8.371   0.895  22.390  0.00  0.00    +0.094 A 
ATOM      8  N   UNL     1       7.735  -0.058  23.094  0.00  0.00    -0.213 NA
ENDROOT
BRANCH   7   9
ATOM      9  C   UNL     1       7.840   2.249  22.502  0.00  0.00    +0.092 A 
ATOM     10  N   UNL     1       8.493   3.377  22.987  0.00  0.00    -0.298 N 
ATOM     11  C   UNL     1       7.607   4.446  22.822  0.00  0.00    +0.138 A 
ATOM     12  C   UNL     1       8.050   5.743  23.204  0.00  0.00    +0.047 A 
ATOM     13  C   UNL     1       9.283   5.908  23.715  0.00  0.00    +0.005 A 
ATOM     14  C   UNL     1      10.181   4.780  23.891  0.00  0.00    +0.018 A 
ATOM     15  N   UNL     1       6.460   4.063  22.307  0.00  0.00    -0.235 NA
ATOM     16  C   UNL     1       9.775   3.552  23.521  0.00  0.00    +0.093 A 
ATOM     17  C   UNL     1       6.594   2.720  22.114  0.00  0.00    +0.141 A 
ENDBRANCH   7   9
BRANCH   1  21
ATOM     18  N   UNL     1       5.030  -4.984  24.150  0.00  0.00    -0.294 NA
ATOM     19  C   UNL     1       4.991  -4.084  22.984  0.00  0.00    +0.086 C 
ATOM     20  C   UNL     1       6.318  -3.916  22.235  0.00  0.00    +0.037 C 
ATOM     21  C   UNL     1       7.511  -3.650  23.162  0.00  0.00    +0.076 C 
ATOM     22  C   UNL     1       7.505  -4.607  24.352  0.00  0.00    +0.037 C 
ATOM     23  C   UNL     1       6.146  -4.620  25.040  0.00  0.00    +0.086 C 
BRANCH  18  24
ATOM     24  C   UNL     1       5.066  -6.415  23.746  0.00  0.00    +0.180 C 
BRANCH  24  28
ATOM     25  C   UNL     1       1.461  -7.575  23.304  0.00  0.00    +0.128 C 
ATOM     26  N   UNL     1       2.778  -7.022  23.140  0.00  0.00    -0.317 N 
ATOM     27  H   UNL     1       2.964  -6.340  22.409  0.00  0.00    +0.148 HD
ATOM     28  C   UNL     1       3.754  -7.134  24.107  0.00  0.00    +0.227 C 
ATOM     29  O   UNL     1       3.619  -7.787  25.138  0.00  0.00    -0.274 OA
ENDBRANCH  24  28
ENDBRANCH  18  24
ENDBRANCH   1  21
TORSDOF 4
ENDMDL
MODEL 5
REMARK VINA RESULT:      -7.3      1.287      2.046
REMARK  Name = 
REMARK  5 active torsions:
REMARK  status: ('A' for Active; 'I' for Inactive)
REMARK    1  A    between atoms: C_1  and  N_2
REMARK    2  A    between atoms: C_3  and  C_5
REMARK    3  A    between atoms: C_5  and  N_6
REMARK    4  A    between atoms: C_9  and  N_12
REMARK    5  A    between atoms: C_15  and  C_19
REMARK                            x       y       z     vdW  Elec       q    Type
REMARK                         _______ _______ _______ _____ _____    ______ ____
ROOT
ATOM      1  N   UNL     1       8.964  -2.206  24.676  0.00  0.00    -0.311 N 
ATOM      2  H   UNL     1       8.712  -1.629  25.470  0.00  0.00    +0.149 HD
ATOM      3  C   UNL     1       9.163  -1.383  23.589  0.00  0.00    +0.216 A 
ATOM      4  N   UNL     1       9.176  -1.900  22.353  0.00  0.00    -0.223 NA
ATOM      5  C   UNL     1       9.353  -1.050  21.333  0.00  0.00    +0.116 A 
ATOM      6  C   UNL     1       9.518   0.297  21.505  0.00  0.00    +0.050 A 
ATOM      7  C   UNL     1       9.512   0.741  22.812  0.00  0.00    +0.094 A 
ATOM      8  N   UNL     1       9.332  -0.081  23.861  0.00  0.00    -0.213 NA
ENDROOT
BRANCH   7   9
ATOM      9  C   UNL     1       9.631   2.163  23.113  0.00  0.00    +0.092 A 
ATOM     10  N   UNL     1       8.664   3.148  22.946  0.00  0.00    -0.298 N 
ATOM     11  C   UNL     1       9.218   4.331  23.444  0.00  0.00    +0.138 A 
ATOM     12  C   UNL     1       8.408   5.502  23.433  0.00  0.00    +0.047 A 
ATOM     13  C   UNL     1       7.157   5.447  22.942  0.00  0.00    +0.005 A 
ATOM     14  C   UNL     1       6.608   4.209  22.416  0.00  0.00    +0.018 A 
ATOM     15  N   UNL     1      10.448   4.160  23.873  0.00  0.00    -0.235 NA
ATOM     16  C   UNL     1       7.362   3.095  22.434  0.00  0.00    +0.093 A 
ATOM     17  C   UNL     1      10.709   2.838  23.667  0.00  0.00    +0.141 A 
ENDBRANCH   7   9
BRANCH   1  21
ATOM     18  N   UNL     1       7.326  -4.398  27.163  0.00  0.00    -0.294 NA
ATOM     19  C   UNL     1       6.596  -3.331  26.457  0.00  0.00    +0.086 C 
ATOM     20  C   UNL     1       6.763  -3.314  24.933  0.00  0.00    +0.037 C 
ATOM     21  C   UNL     1       8.221  -3.448  24.478  0.00  0.00    +0.076 C 
ATOM     22  C   UNL     1       8.932  -4.565  25.239  0.00  0.00    +0.037 C 
ATOM     23  C   UNL     1       8.738  -4.416  26.743  0.00  0.00    +0.086 C 
BRANCH  18  24
ATOM     24  C   UNL     1       6.666  -5.722  27.004  0.00  0.00    +0.180 C 
BRANCH  24  28
ATOM     25  C   UNL     1       5.146  -5.401  30.485  0.00  0.00    +0.128 C 
ATOM     26  N   UNL     1       5.697  -5.170  29.178  0.00  0.00    -0.317 N 
ATOM     27  H   UNL     1       6.064  -4.255  28.927  0.00  0.00    +0.148 HD
ATOM     28  C   UNL     1       6.037  -6.198  28.325  0.00  0.00    +0.227 C 
ATOM     29  O   UNL     1       5.815  -7.382  28.563  0.00  0.00    -0.274 OA
ENDBRANCH  24  28
ENDBRANCH  18  24
ENDBRANCH   1  21
TORSDOF 4
ENDMDL
MODEL 6
REMARK VINA RESULT:      -7.2      3.178      9.580
REMARK  Name = 
REMARK  5 active torsions:
REMARK  status: ('A' for Active; 'I' for Inactive)
REMARK    1  A    between atoms: C_1  and  N_2
REMARK    2  A    between atoms: C_3  and  C_5
REMARK    3  A    between atoms: C_5  and  N_6
REMARK    4  A    between atoms: C_9  and  N_12
REMARK    5  A    between atoms: C_15  and  C_19
REMARK                            x       y       z     vdW  Elec       q    Type
REMARK                         _______ _______ _______ _____ _____    ______ ____
ROOT
ATOM      1  N   UNL     1       8.118  -0.966  23.749  0.00  0.00    -0.311 N 
ATOM      2  H   UNL     1       8.291  -0.766  24.727  0.00  0.00    +0.149 HD
ATOM      3  C   UNL     1       7.799  -2.301  23.630  0.00  0.00    +0.216 A 
ATOM      4  N   UNL     1       7.852  -2.896  22.431  0.00  0.00    -0.223 NA
ATOM      5  C   UNL     1       7.550  -4.200  22.378  0.00  0.00    +0.116 A 
ATOM      6  C   UNL     1       7.197  -4.929  23.480  0.00  0.00    +0.050 A 
ATOM      7  C   UNL     1       7.149  -4.232  24.670  0.00  0.00    +0.094 A 
ATOM      8  N   UNL     1       7.449  -2.925  24.764  0.00  0.00    -0.213 NA
ENDROOT
BRANCH   7   9
ATOM      9  C   UNL     1       6.831  -4.917  25.919  0.00  0.00    +0.092 A 
ATOM     10  N   UNL     1       5.595  -5.405  26.325  0.00  0.00    -0.298 N 
ATOM     11  C   UNL     1       5.807  -6.045  27.550  0.00  0.00    +0.138 A 
ATOM     12  C   UNL     1       4.695  -6.678  28.173  0.00  0.00    +0.047 A 
ATOM     13  C   UNL     1       3.485  -6.639  27.586  0.00  0.00    +0.005 A 
ATOM     14  C   UNL     1       3.285  -5.955  26.320  0.00  0.00    +0.018 A 
ATOM     15  N   UNL     1       7.059  -5.963  27.940  0.00  0.00    -0.235 NA
ATOM     16  C   UNL     1       4.333  -5.364  25.718  0.00  0.00    +0.093 A 
ATOM     17  C   UNL     1       7.690  -5.270  26.949  0.00  0.00    +0.141 A 
ENDBRANCH   7   9
BRANCH   1  21
ATOM     18  N   UNL     1      10.068   2.172  23.913  0.00  0.00    -0.294 NA
ATOM     19  C   UNL     1      10.634   0.875  24.320  0.00  0.00    +0.086 C 
ATOM     20  C   UNL     1      10.456  -0.268  23.314  0.00  0.00    +0.037 C 
ATOM     21  C   UNL     1       9.028  -0.380  22.767  0.00  0.00    +0.076 C 
ATOM     22  C   UNL     1       8.488   0.988  22.360  0.00  0.00    +0.037 C 
ATOM     23  C   UNL     1       8.669   2.006  23.479  0.00  0.00    +0.086 C 
BRANCH  18  24
ATOM     24  C   UNL     1      10.907   2.848  22.887  0.00  0.00    +0.180 C 
BRANCH  24  28
ATOM     25  C   UNL     1      10.447   6.408  24.171  0.00  0.00    +0.128 C 
ATOM     26  N   UNL     1      10.275   5.042  23.757  0.00  0.00    -0.317 N 
ATOM     27  H   UNL     1       9.350   4.681  23.539  0.00  0.00    +0.148 HD
ATOM     28  C   UNL     1      11.330   4.255  23.344  0.00  0.00    +0.227 C 
ATOM     29  O   UNL     1      12.503   4.614  23.383  0.00  0.00    -0.274 OA
ENDBRANCH  24  28
ENDBRANCH  18  24
ENDBRANCH   1  21
TORSDOF 4
ENDMDL
MODEL 7
REMARK VINA RESULT:      -7.2      2.794      9.344
REMARK  Name = 
REMARK  5 active torsions:
REMARK  status: ('A' for Active; 'I' for Inactive)
REMARK    1  A    between atoms: C_1  and  N_2
REMARK    2  A    between atoms: C_3  and  C_5
REMARK    3  A    between atoms: C_5  and  N_6
REMARK    4  A    between atoms: C_9  and  N_12
REMARK    5  A    between atoms: C_15  and  C_19
REMARK                            x       y       z     vdW  Elec       q    Type
REMARK                         _______ _______ _______ _____ _____    ______ ____
ROOT
ATOM      1  N   UNL     1       8.707  -2.390  23.178  0.00  0.00    -0.311 N 
ATOM      2  H   UNL     1       7.784  -1.974  23.168  0.00  0.00    +0.149 HD
ATOM      3  C   UNL     1       8.686  -3.471  24.033  0.00  0.00    +0.216 A 
ATOM      4  N   UNL     1       9.836  -3.989  24.483  0.00  0.00    -0.223 NA
ATOM      5  C   UNL     1       9.754  -5.026  25.327  0.00  0.00    +0.116 A 
ATOM      6  C   UNL     1       8.564  -5.563  25.735  0.00  0.00    +0.050 A 
ATOM      7  C   UNL     1       7.431  -4.981  25.206  0.00  0.00    +0.094 A 
ATOM      8  N   UNL     1       7.472  -3.936  24.361  0.00  0.00    -0.213 NA
ENDROOT
BRANCH   7   9
ATOM      9  C   UNL     1       6.105  -5.440  25.607  0.00  0.00    +0.092 A 
ATOM     10  N   UNL     1       5.535  -5.376  26.873  0.00  0.00    -0.298 N 
ATOM     11  C   UNL     1       4.231  -5.865  26.743  0.00  0.00    +0.138 A 
ATOM     12  C   UNL     1       3.402  -5.868  27.899  0.00  0.00    +0.047 A 
ATOM     13  C   UNL     1       3.884  -5.419  29.072  0.00  0.00    +0.005 A 
ATOM     14  C   UNL     1       5.247  -4.930  29.187  0.00  0.00    +0.018 A 
ATOM     15  N   UNL     1       3.968  -6.250  25.514  0.00  0.00    -0.235 NA
ATOM     16  C   UNL     1       6.034  -4.911  28.096  0.00  0.00    +0.093 A 
ATOM     17  C   UNL     1       5.112  -5.998  24.816  0.00  0.00    +0.141 A 
ENDBRANCH   7   9
BRANCH   1  21
ATOM     18  N   UNL     1       8.815   1.304  23.075  0.00  0.00    -0.294 NA
ATOM     19  C   UNL     1       8.786   0.556  24.343  0.00  0.00    +0.086 C 
ATOM     20  C   UNL     1       9.808  -0.579  24.463  0.00  0.00    +0.037 C 
ATOM     21  C   UNL     1       9.856  -1.488  23.229  0.00  0.00    +0.076 C 
ATOM     22  C   UNL     1       9.885  -0.666  21.943  0.00  0.00    +0.037 C 
ATOM     23  C   UNL     1       8.773   0.376  21.931  0.00  0.00    +0.086 C 
BRANCH  18  24
ATOM     24  C   UNL     1       9.969   2.241  23.008  0.00  0.00    +0.180 C 
BRANCH  24  28
ATOM     25  C   UNL     1      10.433   5.954  23.735  0.00  0.00    +0.128 C 
ATOM     26  N   UNL     1      10.596   4.575  23.362  0.00  0.00    -0.317 N 
ATOM     27  H   UNL     1      11.525   4.167  23.285  0.00  0.00    +0.148 HD
ATOM     28  C   UNL     1       9.554   3.673  23.386  0.00  0.00    +0.227 C 
ATOM     29  O   UNL     1       8.391   3.982  23.633  0.00  0.00    -0.274 OA
ENDBRANCH  24  28
ENDBRANCH  18  24
ENDBRANCH   1  21
TORSDOF 4
ENDMDL
MODEL 8
REMARK VINA RESULT:      -7.0      3.479      9.269
REMARK  Name = 
REMARK  5 active torsions:
REMARK  status: ('A' for Active; 'I' for Inactive)
REMARK    1  A    between atoms: C_1  and  N_2
REMARK    2  A    between atoms: C_3  and  C_5
REMARK    3  A    between atoms: C_5  and  N_6
REMARK    4  A    between atoms: C_9  and  N_12
REMARK    5  A    between atoms: C_15  and  C_19
REMARK                            x       y       z     vdW  Elec       q    Type
REMARK                         _______ _______ _______ _____ _____    ______ ____
ROOT
ATOM      1  N   UNL     1       8.764  -3.010  23.340  0.00  0.00    -0.311 N 
ATOM      2  H   UNL     1       8.021  -2.783  22.689  0.00  0.00    +0.149 HD
ATOM      3  C   UNL     1       8.231  -3.777  24.354  0.00  0.00    +0.216 A 
ATOM      4  N   UNL     1       8.907  -3.931  25.500  0.00  0.00    -0.223 NA
ATOM      5  C   UNL     1       8.331  -4.670  26.458  0.00  0.00    +0.116 A 
ATOM      6  C   UNL     1       7.107  -5.261  26.309  0.00  0.00    +0.050 A 
ATOM      7  C   UNL     1       6.491  -5.067  25.089  0.00  0.00    +0.094 A 
ATOM      8  N   UNL     1       7.034  -4.328  24.106  0.00  0.00    -0.213 NA
ENDROOT
BRANCH   7   9
ATOM      9  C   UNL     1       5.161  -5.610  24.835  0.00  0.00    +0.092 A 
ATOM     10  N   UNL     1       3.939  -4.975  25.019  0.00  0.00    -0.298 N 
ATOM     11  C   UNL     1       2.960  -5.865  24.566  0.00  0.00    +0.138 A 
ATOM     12  C   UNL     1       1.603  -5.439  24.603  0.00  0.00    +0.047 A 
ATOM     13  C   UNL     1       1.296  -4.217  25.073  0.00  0.00    +0.005 A 
ATOM     14  C   UNL     1       2.328  -3.314  25.552  0.00  0.00    +0.018 A 
ATOM     15  N   UNL     1       3.478  -7.000  24.151  0.00  0.00    -0.235 NA
ATOM     16  C   UNL     1       3.615  -3.704  25.509  0.00  0.00    +0.093 A 
ATOM     17  C   UNL     1       4.823  -6.852  24.318  0.00  0.00    +0.141 A 
ENDBRANCH   7   9
BRANCH   1  21
ATOM     18  N   UNL     1       8.853   0.523  22.253  0.00  0.00    -0.294 NA
ATOM     19  C   UNL     1       8.178   0.101  23.492  0.00  0.00    +0.086 C 
ATOM     20  C   UNL     1       9.005  -0.794  24.422  0.00  0.00    +0.037 C 
ATOM     21  C   UNL     1       9.703  -1.948  23.694  0.00  0.00    +0.076 C 
ATOM     22  C   UNL     1      10.387  -1.459  22.419  0.00  0.00    +0.037 C 
ATOM     23  C   UNL     1       9.428  -0.644  21.560  0.00  0.00    +0.086 C 
BRANCH  18  24
ATOM     24  C   UNL     1       9.858   1.591  22.503  0.00  0.00    +0.180 C 
BRANCH  24  28
ATOM     25  C   UNL     1       7.604   4.661  22.649  0.00  0.00    +0.128 C 
ATOM     26  N   UNL     1       8.285   3.448  22.289  0.00  0.00    -0.317 N 
ATOM     27  H   UNL     1       8.280   3.118  21.327  0.00  0.00    +0.148 HD
ATOM     28  C   UNL     1       9.208   2.843  23.116  0.00  0.00    +0.227 C 
ATOM     29  O   UNL     1       9.457   3.228  24.255  0.00  0.00    -0.274 OA
ENDBRANCH  24  28
ENDBRANCH  18  24
ENDBRANCH   1  21
TORSDOF 4
ENDMDL
MODEL 9
REMARK VINA RESULT:      -6.7      2.294      2.913
REMARK  Name = 
REMARK  5 active torsions:
REMARK  status: ('A' for Active; 'I' for Inactive)
REMARK    1  A    between atoms: C_1  and  N_2
REMARK    2  A    between atoms: C_3  and  C_5
REMARK    3  A    between atoms: C_5  and  N_6
REMARK    4  A    between atoms: C_9  and  N_12
REMARK    5  A    between atoms: C_15  and  C_19
REMARK                            x       y       z     vdW  Elec       q    Type
REMARK                         _______ _______ _______ _____ _____    ______ ____
ROOT
ATOM      1  N   UNL     1       8.030  -2.586  25.420  0.00  0.00    -0.311 N 
ATOM      2  H   UNL     1       7.133  -2.138  25.567  0.00  0.00    +0.149 HD
ATOM      3  C   UNL     1       8.696  -1.906  24.424  0.00  0.00    +0.216 A 
ATOM      4  N   UNL     1       9.741  -2.475  23.809  0.00  0.00    -0.223 NA
ATOM      5  C   UNL     1      10.337  -1.776  22.834  0.00  0.00    +0.116 A 
ATOM      6  C   UNL     1       9.925  -0.528  22.453  0.00  0.00    +0.050 A 
ATOM      7  C   UNL     1       8.855  -0.010  23.153  0.00  0.00    +0.094 A 
ATOM      8  N   UNL     1       8.228  -0.683  24.133  0.00  0.00    -0.213 NA
ENDROOT
BRANCH   7   9
ATOM      9  C   UNL     1       8.300   1.293  22.801  0.00  0.00    +0.092 A 
ATOM     10  N   UNL     1       8.168   2.406  23.623  0.00  0.00    -0.298 N 
ATOM     11  C   UNL     1       7.658   3.430  22.819  0.00  0.00    +0.138 A 
ATOM     12  C   UNL     1       7.466   4.710  23.412  0.00  0.00    +0.047 A 
ATOM     13  C   UNL     1       7.763   4.899  24.711  0.00  0.00    +0.005 A 
ATOM     14  C   UNL     1       8.277   3.815  25.530  0.00  0.00    +0.018 A 
ATOM     15  N   UNL     1       7.439   3.030  21.587  0.00  0.00    -0.235 NA
ATOM     16  C   UNL     1       8.474   2.606  24.975  0.00  0.00    +0.093 A 
ATOM     17  C   UNL     1       7.825   1.722  21.571  0.00  0.00    +0.141 A 
ENDBRANCH   7   9
BRANCH   1  21
ATOM     18  N   UNL     1       5.340  -5.017  26.141  0.00  0.00    -0.294 NA
ATOM     19  C   UNL     1       5.633  -4.556  24.774  0.00  0.00    +0.086 C 
ATOM     20  C   UNL     1       7.106  -4.624  24.356  0.00  0.00    +0.037 C 
ATOM     21  C   UNL     1       8.064  -4.046  25.405  0.00  0.00    +0.076 C 
ATOM     22  C   UNL     1       7.718  -4.555  26.802  0.00  0.00    +0.037 C 
ATOM     23  C   UNL     1       6.238  -4.361  27.107  0.00  0.00    +0.086 C 
BRANCH  18  24
ATOM     24  C   UNL     1       5.374  -6.501  26.246  0.00  0.00    +0.180 C 
BRANCH  24  28
ATOM     25  C   UNL     1       1.893  -7.987  25.801  0.00  0.00    +0.128 C 
ATOM     26  N   UNL     1       3.083  -7.348  26.291  0.00  0.00    -0.317 N 
ATOM     27  H   UNL     1       3.231  -7.228  27.289  0.00  0.00    +0.148 HD
ATOM     28  C   UNL     1       4.194  -7.146  25.499  0.00  0.00    +0.227 C 
ATOM     29  O   UNL     1       4.231  -7.404  24.299  0.00  0.00    -0.274 OA
ENDBRANCH  24  28
ENDBRANCH  18  24
ENDBRANCH   1  21
TORSDOF 4
ENDMDL
