MODEL 1
REMARK VINA RESULT:      -6.9      0.000      0.000
REMARK  Name = 
REMARK  9 active torsions:
REMARK  status: ('A' for Active; 'I' for Inactive)
REMARK    1  A    between atoms: C_1  and  C_2
REMARK    2  A    between atoms: C_2  and  O_3
REMARK    3  A    between atoms: C_2  and  C_4
REMARK    4  A    between atoms: C_2  and  C_15
REMARK    5  A    between atoms: C_4  and  S_5
REMARK    6  A    between atoms: S_5  and  C_8
REMARK    7  A    between atoms: N_17  and  C_18
REMARK    8  A    between atoms: C_20  and  C_26
REMARK    9  A    between atoms: C_21  and  C_24
REMARK                            x       y       z     vdW  Elec       q    Type
REMARK                         _______ _______ _______ _____ _____    ______ ____
ROOT
ATOM      1  C   UNL     1       8.981  -3.233  24.850  0.00  0.00    +0.250 C 
ATOM      2  N   UNL     1       8.141  -2.183  25.205  0.00  0.00    -0.283 N 
ATOM      3  H   UNL     1       7.200  -2.411  25.493  0.00  0.00    +0.155 HD
ATOM      4  O   UNL     1       9.995  -3.107  24.166  0.00  0.00    -0.272 OA
ENDROOT
BRANCH   2   5
ATOM      5  C   UNL     1       8.315  -0.840  24.816  0.00  0.00    +0.034 A 
ATOM      6  C   UNL     1       8.218   0.153  25.794  0.00  0.00    +0.024 A 
ATOM      7  C   UNL     1       8.410   1.494  25.455  0.00  0.00    +0.021 A 
ATOM      8  C   UNL     1       8.722   1.856  24.135  0.00  0.00    +0.064 A 
ATOM      9  C   UNL     1       8.827   0.868  23.147  0.00  0.00    +0.074 A 
ATOM     10  C   UNL     1       8.613  -0.473  23.504  0.00  0.00    +0.037 A 
BRANCH   9  11
ATOM     11  C   UNL     1       9.189   1.199  21.722  0.00  0.00    +0.419 C 
ATOM     12  F   UNL     1       9.362   0.081  20.968  0.00  0.00    -0.166 F 
ATOM     13  F   UNL     1      10.338   1.916  21.623  0.00  0.00    -0.166 F 
ATOM     14  F   UNL     1       8.238   1.930  21.075  0.00  0.00    -0.166 F 
ENDBRANCH   9  11
BRANCH   8  15
ATOM     15  C   UNL     1       8.957   3.239  23.838  0.00  0.00    +0.100 C 
ATOM     16  N   UNL     1       9.166   4.354  23.591  0.00  0.00    -0.191 NA
ENDBRANCH   8  15
ENDBRANCH   2   5
BRANCH   1  18
ATOM     17  C   UNL     1       9.860  -5.523  25.430  0.00  0.00    +0.053 C 
ATOM     18  C   UNL     1       8.629  -4.607  25.502  0.00  0.00    +0.158 C 
BRANCH  18  19
ATOM     19  O   UNL     1       8.371  -4.393  26.909  0.00  0.00    -0.378 OA
ATOM     20  H   UNL     1       8.022  -5.217  27.295  0.00  0.00    +0.211 HD
ENDBRANCH  18  19
BRANCH  18  21
ATOM     21  C   UNL     1       7.378  -5.297  24.964  0.00  0.00    +0.215 C 
BRANCH  21  22
ATOM     22  S   UNL     1       5.998  -5.264  26.080  0.00  0.00    +0.000 S 
ATOM     23  O   UNL     1       5.735  -3.895  26.470  0.00  0.00    -0.169 OA
ATOM     24  O   UNL     1       6.182  -6.311  27.063  0.00  0.00    -0.169 OA
BRANCH  22  25
ATOM     25  C   UNL     1       4.623  -5.784  25.076  0.00  0.00    +0.088 A 
ATOM     26  C   UNL     1       4.102  -7.072  25.236  0.00  0.00    +0.030 A 
ATOM     27  C   UNL     1       3.050  -7.482  24.417  0.00  0.00    +0.040 A 
ATOM     28  C   UNL     1       2.541  -6.618  23.452  0.00  0.00    +0.124 A 
ATOM     29  F   UNL     1       1.545  -7.024  22.658  0.00  0.00    -0.205 F 
ATOM     30  C   UNL     1       3.059  -5.334  23.291  0.00  0.00    +0.040 A 
ATOM     31  C   UNL     1       4.106  -4.910  24.107  0.00  0.00    +0.030 A 
ENDBRANCH  22  25
ENDBRANCH  21  22
ENDBRANCH  18  21
ENDBRANCH   1  18
TORSDOF 8
ENDMDL
MODEL 2
REMARK VINA RESULT:      -6.8      4.091      9.103
REMARK  Name = 
REMARK  9 active torsions:
REMARK  status: ('A' for Active; 'I' for Inactive)
REMARK    1  A    between atoms: C_1  and  C_2
REMARK    2  A    between atoms: C_2  and  O_3
REMARK    3  A    between atoms: C_2  and  C_4
REMARK    4  A    between atoms: C_2  and  C_15
REMARK    5  A    between atoms: C_4  and  S_5
REMARK    6  A    between atoms: S_5  and  C_8
REMARK    7  A    between atoms: N_17  and  C_18
REMARK    8  A    between atoms: C_20  and  C_26
REMARK    9  A    between atoms: C_21  and  C_24
REMARK                            x       y       z     vdW  Elec       q    Type
REMARK                         _______ _______ _______ _____ _____    ______ ____
ROOT
ATOM      1  C   UNL     1       8.028  -1.836  22.905  0.00  0.00    +0.250 C 
ATOM      2  N   UNL     1       8.246  -3.174  23.218  0.00  0.00    -0.283 N 
ATOM      3  H   UNL     1       9.113  -3.592  22.913  0.00  0.00    +0.155 HD
ATOM      4  O   UNL     1       6.922  -1.300  22.892  0.00  0.00    -0.272 OA
ENDROOT
BRANCH   2   5
ATOM      5  C   UNL     1       7.237  -4.105  23.538  0.00  0.00    +0.034 A 
ATOM      6  C   UNL     1       6.715  -4.897  22.512  0.00  0.00    +0.024 A 
ATOM      7  C   UNL     1       5.733  -5.850  22.792  0.00  0.00    +0.021 A 
ATOM      8  C   UNL     1       5.275  -6.035  24.106  0.00  0.00    +0.064 A 
ATOM      9  C   UNL     1       5.796  -5.248  25.143  0.00  0.00    +0.074 A 
ATOM     10  C   UNL     1       6.770  -4.284  24.840  0.00  0.00    +0.037 A 
BRANCH   9  11
ATOM     11  C   UNL     1       5.361  -5.426  26.576  0.00  0.00    +0.419 C 
ATOM     12  F   UNL     1       6.030  -4.594  27.417  0.00  0.00    -0.166 F 
ATOM     13  F   UNL     1       5.564  -6.688  27.035  0.00  0.00    -0.166 F 
ATOM     14  F   UNL     1       4.039  -5.164  26.779  0.00  0.00    -0.166 F 
ENDBRANCH   9  11
BRANCH   8  15
ATOM     15  C   UNL     1       4.300  -7.054  24.358  0.00  0.00    +0.100 C 
ATOM     16  N   UNL     1       3.511  -7.877  24.582  0.00  0.00    -0.191 NA
ENDBRANCH   8  15
ENDBRANCH   2   5
BRANCH   1  18
ATOM     17  C   UNL     1      10.547  -1.885  22.939  0.00  0.00    +0.053 C 
ATOM     18  C   UNL     1       9.323  -0.990  22.697  0.00  0.00    +0.158 C 
BRANCH  18  19
ATOM     19  O   UNL     1       9.389  -0.590  21.308  0.00  0.00    -0.378 OA
ATOM     20  H   UNL     1       9.350   0.383  21.258  0.00  0.00    +0.211 HD
ENDBRANCH  18  19
BRANCH  18  21
ATOM     21  C   UNL     1       9.405   0.308  23.495  0.00  0.00    +0.215 C 
BRANCH  21  22
ATOM     22  S   UNL     1       9.130   1.771  22.527  0.00  0.00    +0.000 S 
ATOM     23  O   UNL     1       7.866   1.650  21.832  0.00  0.00    -0.169 OA
ATOM     24  O   UNL     1      10.355   2.088  21.823  0.00  0.00    -0.169 OA
BRANCH  22  25
ATOM     25  C   UNL     1       8.926   3.057  23.741  0.00  0.00    +0.088 A 
ATOM     26  C   UNL     1       7.965   2.908  24.746  0.00  0.00    +0.030 A 
ATOM     27  C   UNL     1       7.787   3.940  25.668  0.00  0.00    +0.040 A 
ATOM     28  C   UNL     1       8.553   5.097  25.574  0.00  0.00    +0.124 A 
ATOM     29  F   UNL     1       8.364   6.089  26.451  0.00  0.00    -0.205 F 
ATOM     30  C   UNL     1       9.511   5.247  24.574  0.00  0.00    +0.040 A 
ATOM     31  C   UNL     1       9.703   4.222  23.650  0.00  0.00    +0.030 A 
ENDBRANCH  22  25
ENDBRANCH  21  22
ENDBRANCH  18  21
ENDBRANCH   1  18
TORSDOF 8
ENDMDL
MODEL 3
REMARK VINA RESULT:      -6.7      3.837      8.447
REMARK  Name = 
REMARK  9 active torsions:
REMARK  status: ('A' for Active; 'I' for Inactive)
REMARK    1  A    between atoms: C_1  and  C_2
REMARK    2  A    between atoms: C_2  and  O_3
REMARK    3  A    between atoms: C_2  and  C_4
REMARK    4  A    between atoms: C_2  and  C_15
REMARK    5  A    between atoms: C_4  and  S_5
REMARK    6  A    between atoms: S_5  and  C_8
REMARK    7  A    between atoms: N_17  and  C_18
REMARK    8  A    between atoms: C_20  and  C_26
REMARK    9  A    between atoms: C_21  and  C_24
REMARK                            x       y       z     vdW  Elec       q    Type
REMARK                         _______ _______ _______ _____ _____    ______ ____
ROOT
ATOM      1  C   UNL     1       9.171  -1.553  24.017  0.00  0.00    +0.250 C 
ATOM      2  N   UNL     1       7.789  -1.709  23.994  0.00  0.00    -0.283 N 
ATOM      3  H   UNL     1       7.222  -0.914  24.251  0.00  0.00    +0.155 HD
ATOM      4  O   UNL     1       9.971  -2.485  24.074  0.00  0.00    -0.272 OA
ENDROOT
BRANCH   2   5
ATOM      5  C   UNL     1       7.113  -2.944  24.056  0.00  0.00    +0.034 A 
ATOM      6  C   UNL     1       6.333  -3.218  25.183  0.00  0.00    +0.024 A 
ATOM      7  C   UNL     1       5.625  -4.419  25.272  0.00  0.00    +0.021 A 
ATOM      8  C   UNL     1       5.675  -5.353  24.225  0.00  0.00    +0.064 A 
ATOM      9  C   UNL     1       6.450  -5.085  23.088  0.00  0.00    +0.074 A 
ATOM     10  C   UNL     1       7.168  -3.880  23.024  0.00  0.00    +0.037 A 
BRANCH   9  11
ATOM     11  C   UNL     1       6.513  -6.039  21.923  0.00  0.00    +0.419 C 
ATOM     12  F   UNL     1       5.332  -6.104  21.253  0.00  0.00    -0.166 F 
ATOM     13  F   UNL     1       6.818  -7.309  22.297  0.00  0.00    -0.166 F 
ATOM     14  F   UNL     1       7.443  -5.695  20.987  0.00  0.00    -0.166 F 
ENDBRANCH   9  11
BRANCH   8  15
ATOM     15  C   UNL     1       4.898  -6.552  24.335  0.00  0.00    +0.100 C 
ATOM     16  N   UNL     1       4.253  -7.514  24.417  0.00  0.00    -0.191 NA
ENDBRANCH   8  15
ENDBRANCH   2   5
BRANCH   1  18
ATOM     17  C   UNL     1      10.674   0.248  24.938  0.00  0.00    +0.053 C 
ATOM     18  C   UNL     1       9.671  -0.088  23.824  0.00  0.00    +0.158 C 
BRANCH  18  19
ATOM     19  O   UNL     1      10.413  -0.017  22.584  0.00  0.00    -0.378 OA
ATOM     20  H   UNL     1      10.963   0.788  22.591  0.00  0.00    +0.211 HD
ENDBRANCH  18  19
BRANCH  18  21
ATOM     21  C   UNL     1       8.583   0.976  23.704  0.00  0.00    +0.215 C 
BRANCH  21  22
ATOM     22  S   UNL     1       8.798   2.079  22.330  0.00  0.00    +0.000 S 
ATOM     23  O   UNL     1       8.464   1.382  21.105  0.00  0.00    -0.169 OA
ATOM     24  O   UNL     1      10.062   2.765  22.491  0.00  0.00    -0.169 OA
BRANCH  22  25
ATOM     25  C   UNL     1       7.543   3.317  22.574  0.00  0.00    +0.088 A 
ATOM     26  C   UNL     1       7.914   4.599  22.993  0.00  0.00    +0.030 A 
ATOM     27  C   UNL     1       6.918   5.550  23.219  0.00  0.00    +0.040 A 
ATOM     28  C   UNL     1       5.581   5.215  23.036  0.00  0.00    +0.124 A 
ATOM     29  F   UNL     1       4.631   6.127  23.272  0.00  0.00    -0.205 F 
ATOM     30  C   UNL     1       5.209   3.939  22.618  0.00  0.00    +0.040 A 
ATOM     31  C   UNL     1       6.194   2.981  22.383  0.00  0.00    +0.030 A 
ENDBRANCH  22  25
ENDBRANCH  21  22
ENDBRANCH  18  21
ENDBRANCH   1  18
TORSDOF 8
ENDMDL
MODEL 4
REMARK VINA RESULT:      -6.7      2.626      3.698
REMARK  Name = 
REMARK  9 active torsions:
REMARK  status: ('A' for Active; 'I' for Inactive)
REMARK    1  A    between atoms: C_1  and  C_2
REMARK    2  A    between atoms: C_2  and  O_3
REMARK    3  A    between atoms: C_2  and  C_4
REMARK    4  A    between atoms: C_2  and  C_15
REMARK    5  A    between atoms: C_4  and  S_5
REMARK    6  A    between atoms: S_5  and  C_8
REMARK    7  A    between atoms: N_17  and  C_18
REMARK    8  A    between atoms: C_20  and  C_26
REMARK    9  A    between atoms: C_21  and  C_24
REMARK                            x       y       z     vdW  Elec       q    Type
REMARK                         _______ _______ _______ _____ _____    ______ ____
ROOT
ATOM      1  C   UNL     1       9.512  -0.362  24.080  0.00  0.00    +0.250 C 
ATOM      2  N   UNL     1       8.861   0.709  23.476  0.00  0.00    -0.283 N 
ATOM      3  H   UNL     1       8.703   0.662  22.480  0.00  0.00    +0.155 HD
ATOM      4  O   UNL     1      10.072  -0.304  25.172  0.00  0.00    -0.272 OA
ENDROOT
BRANCH   2   5
ATOM      5  C   UNL     1       8.773   2.009  24.013  0.00  0.00    +0.034 A 
ATOM      6  C   UNL     1       7.803   2.261  24.987  0.00  0.00    +0.024 A 
ATOM      7  C   UNL     1       7.699   3.529  25.564  0.00  0.00    +0.021 A 
ATOM      8  C   UNL     1       8.578   4.556  25.185  0.00  0.00    +0.064 A 
ATOM      9  C   UNL     1       9.558   4.312  24.213  0.00  0.00    +0.074 A 
ATOM     10  C   UNL     1       9.635   3.037  23.632  0.00  0.00    +0.037 A 
BRANCH   9  11
ATOM     11  C   UNL     1      10.545   5.371  23.792  0.00  0.00    +0.419 C 
ATOM     12  F   UNL     1      11.529   4.863  23.003  0.00  0.00    -0.166 F 
ATOM     13  F   UNL     1      11.161   5.966  24.846  0.00  0.00    -0.166 F 
ATOM     14  F   UNL     1       9.985   6.382  23.070  0.00  0.00    -0.166 F 
ENDBRANCH   9  11
BRANCH   8  15
ATOM     15  C   UNL     1       8.468   5.829  25.834  0.00  0.00    +0.100 C 
ATOM     16  N   UNL     1       8.396   6.866  26.351  0.00  0.00    -0.191 NA
ENDBRANCH   8  15
ENDBRANCH   2   5
BRANCH   1  18
ATOM     17  C   UNL     1       9.362  -1.463  21.818  0.00  0.00    +0.053 C 
ATOM     18  C   UNL     1       9.370  -1.724  23.332  0.00  0.00    +0.158 C 
BRANCH  18  19
ATOM     19  O   UNL     1      10.551  -2.517  23.595  0.00  0.00    -0.378 OA
ATOM     20  H   UNL     1      10.823  -2.380  24.521  0.00  0.00    +0.211 HD
ENDBRANCH  18  19
BRANCH  18  21
ATOM     21  C   UNL     1       8.194  -2.598  23.760  0.00  0.00    +0.215 C 
BRANCH  21  22
ATOM     22  S   UNL     1       8.606  -3.816  24.984  0.00  0.00    +0.000 S 
ATOM     23  O   UNL     1       8.782  -3.163  26.264  0.00  0.00    -0.169 OA
ATOM     24  O   UNL     1       9.622  -4.690  24.433  0.00  0.00    -0.169 OA
BRANCH  22  25
ATOM     25  C   UNL     1       7.135  -4.810  25.113  0.00  0.00    +0.088 A 
ATOM     26  C   UNL     1       6.735  -5.287  26.365  0.00  0.00    +0.030 A 
ATOM     27  C   UNL     1       5.602  -6.098  26.449  0.00  0.00    +0.040 A 
ATOM     28  C   UNL     1       4.896  -6.428  25.296  0.00  0.00    +0.124 A 
ATOM     29  F   UNL     1       3.823  -7.220  25.383  0.00  0.00    -0.205 F 
ATOM     30  C   UNL     1       5.294  -5.954  24.048  0.00  0.00    +0.040 A 
ATOM     31  C   UNL     1       6.420  -5.139  23.951  0.00  0.00    +0.030 A 
ENDBRANCH  22  25
ENDBRANCH  21  22
ENDBRANCH  18  21
ENDBRANCH   1  18
TORSDOF 8
ENDMDL
MODEL 5
REMARK VINA RESULT:      -6.7      1.633      2.072
REMARK  Name = 
REMARK  9 active torsions:
REMARK  status: ('A' for Active; 'I' for Inactive)
REMARK    1  A    between atoms: C_1  and  C_2
REMARK    2  A    between atoms: C_2  and  O_3
REMARK    3  A    between atoms: C_2  and  C_4
REMARK    4  A    between atoms: C_2  and  C_15
REMARK    5  A    between atoms: C_4  and  S_5
REMARK    6  A    between atoms: S_5  and  C_8
REMARK    7  A    between atoms: N_17  and  C_18
REMARK    8  A    between atoms: C_20  and  C_26
REMARK    9  A    between atoms: C_21  and  C_24
REMARK                            x       y       z     vdW  Elec       q    Type
REMARK                         _______ _______ _______ _____ _____    ______ ____
ROOT
ATOM      1  C   UNL     1       8.779  -3.264  24.728  0.00  0.00    +0.250 C 
ATOM      2  N   UNL     1       8.089  -2.150  25.195  0.00  0.00    -0.283 N 
ATOM      3  H   UNL     1       7.370  -2.299  25.887  0.00  0.00    +0.155 HD
ATOM      4  O   UNL     1       9.410  -3.295  23.673  0.00  0.00    -0.272 OA
ENDROOT
BRANCH   2   5
ATOM      5  C   UNL     1       7.994  -0.916  24.521  0.00  0.00    +0.034 A 
ATOM      6  C   UNL     1       6.748  -0.524  24.024  0.00  0.00    +0.024 A 
ATOM      7  C   UNL     1       6.606   0.703  23.373  0.00  0.00    +0.021 A 
ATOM      8  C   UNL     1       7.706   1.563  23.228  0.00  0.00    +0.064 A 
ATOM      9  C   UNL     1       8.959   1.183  23.728  0.00  0.00    +0.074 A 
ATOM     10  C   UNL     1       9.086  -0.063  24.364  0.00  0.00    +0.037 A 
BRANCH   9  11
ATOM     11  C   UNL     1      10.165   2.081  23.627  0.00  0.00    +0.419 C 
ATOM     12  F   UNL     1      11.255   1.540  24.234  0.00  0.00    -0.166 F 
ATOM     13  F   UNL     1       9.966   3.297  24.197  0.00  0.00    -0.166 F 
ATOM     14  F   UNL     1      10.551   2.331  22.344  0.00  0.00    -0.166 F 
ENDBRANCH   9  11
BRANCH   8  15
ATOM     15  C   UNL     1       7.508   2.834  22.595  0.00  0.00    +0.100 C 
ATOM     16  N   UNL     1       7.349   3.854  22.064  0.00  0.00    -0.191 NA
ENDBRANCH   8  15
ENDBRANCH   2   5
BRANCH   1  18
ATOM     17  C   UNL     1      10.108  -5.275  25.463  0.00  0.00    +0.053 C 
ATOM     18  C   UNL     1       8.823  -4.471  25.715  0.00  0.00    +0.158 C 
BRANCH  18  19
ATOM     19  O   UNL     1       8.931  -3.957  27.063  0.00  0.00    -0.378 OA
ATOM     20  H   UNL     1       8.116  -4.177  27.551  0.00  0.00    +0.211 HD
ENDBRANCH  18  19
BRANCH  18  21
ATOM     21  C   UNL     1       7.588  -5.368  25.724  0.00  0.00    +0.215 C 
BRANCH  21  22
ATOM     22  S   UNL     1       6.564  -5.175  27.161  0.00  0.00    +0.000 S 
ATOM     23  O   UNL     1       6.241  -3.774  27.329  0.00  0.00    -0.169 OA
ATOM     24  O   UNL     1       7.138  -5.955  28.237  0.00  0.00    -0.169 OA
BRANCH  22  25
ATOM     25  C   UNL     1       5.049  -6.001  26.723  0.00  0.00    +0.088 A 
ATOM     26  C   UNL     1       4.931  -6.599  25.464  0.00  0.00    +0.030 A 
ATOM     27  C   UNL     1       3.726  -7.209  25.117  0.00  0.00    +0.040 A 
ATOM     28  C   UNL     1       2.661  -7.209  26.013  0.00  0.00    +0.124 A 
ATOM     29  F   UNL     1       1.503  -7.780  25.666  0.00  0.00    -0.205 F 
ATOM     30  C   UNL     1       2.777  -6.614  27.267  0.00  0.00    +0.040 A 
ATOM     31  C   UNL     1       3.978  -6.006  27.629  0.00  0.00    +0.030 A 
ENDBRANCH  22  25
ENDBRANCH  21  22
ENDBRANCH  18  21
ENDBRANCH   1  18
TORSDOF 8
ENDMDL
MODEL 6
REMARK VINA RESULT:      -6.7      4.453      9.243
REMARK  Name = 
REMARK  9 active torsions:
REMARK  status: ('A' for Active; 'I' for Inactive)
REMARK    1  A    between atoms: C_1  and  C_2
REMARK    2  A    between atoms: C_2  and  O_3
REMARK    3  A    between atoms: C_2  and  C_4
REMARK    4  A    between atoms: C_2  and  C_15
REMARK    5  A    between atoms: C_4  and  S_5
REMARK    6  A    between atoms: S_5  and  C_8
REMARK    7  A    between atoms: N_17  and  C_18
REMARK    8  A    between atoms: C_20  and  C_26
REMARK    9  A    between atoms: C_21  and  C_24
REMARK                            x       y       z     vdW  Elec       q    Type
REMARK                         _______ _______ _______ _____ _____    ______ ____
ROOT
ATOM      1  C   UNL     1       5.888   1.624  23.985  0.00  0.00    +0.250 C 
ATOM      2  N   UNL     1       7.008   1.064  23.379  0.00  0.00    -0.283 N 
ATOM      3  H   UNL     1       7.350   1.496  22.533  0.00  0.00    +0.155 HD
ATOM      4  O   UNL     1       5.167   1.033  24.786  0.00  0.00    -0.272 OA
ENDROOT
BRANCH   2   5
ATOM      5  C   UNL     1       7.459  -0.257  23.575  0.00  0.00    +0.034 A 
ATOM      6  C   UNL     1       8.541  -0.469  24.433  0.00  0.00    +0.024 A 
ATOM      7  C   UNL     1       9.002  -1.765  24.675  0.00  0.00    +0.021 A 
ATOM      8  C   UNL     1       8.373  -2.867  24.075  0.00  0.00    +0.064 A 
ATOM      9  C   UNL     1       7.284  -2.666  23.216  0.00  0.00    +0.074 A 
ATOM     10  C   UNL     1       6.846  -1.354  22.972  0.00  0.00    +0.037 A 
BRANCH   9  11
ATOM     11  C   UNL     1       6.554  -3.815  22.570  0.00  0.00    +0.419 C 
ATOM     12  F   UNL     1       5.501  -3.392  21.820  0.00  0.00    -0.166 F 
ATOM     13  F   UNL     1       6.056  -4.699  23.473  0.00  0.00    -0.166 F 
ATOM     14  F   UNL     1       7.332  -4.547  21.724  0.00  0.00    -0.166 F 
ENDBRANCH   9  11
BRANCH   8  15
ATOM     15  C   UNL     1       8.848  -4.183  24.385  0.00  0.00    +0.100 C 
ATOM     16  N   UNL     1       9.249  -5.246  24.625  0.00  0.00    -0.191 NA
ENDBRANCH   8  15
ENDBRANCH   2   5
BRANCH   1  18
ATOM     17  C   UNL     1       4.570   3.284  22.622  0.00  0.00    +0.053 C 
ATOM     18  C   UNL     1       5.668   3.140  23.687  0.00  0.00    +0.158 C 
BRANCH  18  19
ATOM     19  O   UNL     1       5.152   3.771  24.882  0.00  0.00    -0.378 OA
ATOM     20  H   UNL     1       5.297   3.177  25.641  0.00  0.00    +0.211 HD
ENDBRANCH  18  19
BRANCH  18  21
ATOM     21  C   UNL     1       6.919   3.934  23.321  0.00  0.00    +0.215 C 
BRANCH  21  22
ATOM     22  S   UNL     1       7.792   4.594  24.718  0.00  0.00    +0.000 S 
ATOM     23  O   UNL     1       7.755   3.632  25.799  0.00  0.00    -0.169 OA
ATOM     24  O   UNL     1       7.373   5.967  24.910  0.00  0.00    -0.169 OA
BRANCH  22  25
ATOM     25  C   UNL     1       9.482   4.681  24.166  0.00  0.00    +0.088 A 
ATOM     26  C   UNL     1      10.105   3.529  23.675  0.00  0.00    +0.030 A 
ATOM     27  C   UNL     1      11.442   3.600  23.283  0.00  0.00    +0.040 A 
ATOM     28  C   UNL     1      12.137   4.800  23.392  0.00  0.00    +0.124 A 
ATOM     29  F   UNL     1      13.424   4.855  23.030  0.00  0.00    -0.205 F 
ATOM     30  C   UNL     1      11.518   5.948  23.881  0.00  0.00    +0.040 A 
ATOM     31  C   UNL     1      10.182   5.893  24.271  0.00  0.00    +0.030 A 
ENDBRANCH  22  25
ENDBRANCH  21  22
ENDBRANCH  18  21
ENDBRANCH   1  18
TORSDOF 8
ENDMDL
MODEL 7
REMARK VINA RESULT:      -6.6      3.318      4.406
REMARK  Name = 
REMARK  9 active torsions:
REMARK  status: ('A' for Active; 'I' for Inactive)
REMARK    1  A    between atoms: C_1  and  C_2
REMARK    2  A    between atoms: C_2  and  O_3
REMARK    3  A    between atoms: C_2  and  C_4
REMARK    4  A    between atoms: C_2  and  C_15
REMARK    5  A    between atoms: C_4  and  S_5
REMARK    6  A    between atoms: S_5  and  C_8
REMARK    7  A    between atoms: N_17  and  C_18
REMARK    8  A    between atoms: C_20  and  C_26
REMARK    9  A    between atoms: C_21  and  C_24
REMARK                            x       y       z     vdW  Elec       q    Type
REMARK                         _______ _______ _______ _____ _____    ______ ____
ROOT
ATOM      1  C   UNL     1       6.009  -1.315  25.789  0.00  0.00    +0.250 C 
ATOM      2  N   UNL     1       7.142  -0.657  26.258  0.00  0.00    -0.283 N 
ATOM      3  H   UNL     1       7.465  -0.881  27.187  0.00  0.00    +0.155 HD
ATOM      4  O   UNL     1       5.311  -0.914  24.860  0.00  0.00    -0.272 OA
ENDROOT
BRANCH   2   5
ATOM      5  C   UNL     1       7.633   0.565  25.756  0.00  0.00    +0.034 A 
ATOM      6  C   UNL     1       7.010   1.748  26.162  0.00  0.00    +0.024 A 
ATOM      7  C   UNL     1       7.482   2.982  25.709  0.00  0.00    +0.021 A 
ATOM      8  C   UNL     1       8.597   3.048  24.858  0.00  0.00    +0.064 A 
ATOM      9  C   UNL     1       9.233   1.867  24.449  0.00  0.00    +0.074 A 
ATOM     10  C   UNL     1       8.733   0.635  24.902  0.00  0.00    +0.037 A 
BRANCH   9  11
ATOM     11  C   UNL     1      10.451   1.883  23.562  0.00  0.00    +0.419 C 
ATOM     12  F   UNL     1      10.125   2.055  22.253  0.00  0.00    -0.166 F 
ATOM     13  F   UNL     1      11.171   0.734  23.635  0.00  0.00    -0.166 F 
ATOM     14  F   UNL     1      11.324   2.888  23.855  0.00  0.00    -0.166 F 
ENDBRANCH   9  11
BRANCH   8  15
ATOM     15  C   UNL     1       9.078   4.335  24.453  0.00  0.00    +0.100 C 
ATOM     16  N   UNL     1       9.460   5.376  24.106  0.00  0.00    -0.191 NA
ENDBRANCH   8  15
ENDBRANCH   2   5
BRANCH   1  18
ATOM     17  C   UNL     1       4.902  -2.511  27.711  0.00  0.00    +0.053 C 
ATOM     18  C   UNL     1       5.742  -2.708  26.440  0.00  0.00    +0.158 C 
BRANCH  18  19
ATOM     19  O   UNL     1       4.924  -3.487  25.537  0.00  0.00    -0.378 OA
ATOM     20  H   UNL     1       4.707  -2.941  24.758  0.00  0.00    +0.211 HD
ENDBRANCH  18  19
BRANCH  18  21
ATOM     21  C   UNL     1       6.976  -3.565  26.706  0.00  0.00    +0.215 C 
BRANCH  21  22
ATOM     22  S   UNL     1       7.412  -4.643  25.364  0.00  0.00    +0.000 S 
ATOM     23  O   UNL     1       6.203  -5.134  24.738  0.00  0.00    -0.169 OA
ATOM     24  O   UNL     1       8.448  -5.545  25.822  0.00  0.00    -0.169 OA
BRANCH  22  25
ATOM     25  C   UNL     1       8.199  -3.565  24.186  0.00  0.00    +0.088 A 
ATOM     26  C   UNL     1       9.524  -3.171  24.393  0.00  0.00    +0.030 A 
ATOM     27  C   UNL     1      10.118  -2.294  23.485  0.00  0.00    +0.040 A 
ATOM     28  C   UNL     1       9.389  -1.819  22.398  0.00  0.00    +0.124 A 
ATOM     29  F   UNL     1       9.960  -0.965  21.542  0.00  0.00    -0.205 F 
ATOM     30  C   UNL     1       8.069  -2.210  22.191  0.00  0.00    +0.040 A 
ATOM     31  C   UNL     1       7.466  -3.090  23.088  0.00  0.00    +0.030 A 
ENDBRANCH  22  25
ENDBRANCH  21  22
ENDBRANCH  18  21
ENDBRANCH   1  18
TORSDOF 8
ENDMDL
MODEL 8
REMARK VINA RESULT:      -6.5      2.952      3.911
REMARK  Name = 
REMARK  9 active torsions:
REMARK  status: ('A' for Active; 'I' for Inactive)
REMARK    1  A    between atoms: C_1  and  C_2
REMARK    2  A    between atoms: C_2  and  O_3
REMARK    3  A    between atoms: C_2  and  C_4
REMARK    4  A    between atoms: C_2  and  C_15
REMARK    5  A    between atoms: C_4  and  S_5
REMARK    6  A    between atoms: S_5  and  C_8
REMARK    7  A    between atoms: N_17  and  C_18
REMARK    8  A    between atoms: C_20  and  C_26
REMARK    9  A    between atoms: C_21  and  C_24
REMARK                            x       y       z     vdW  Elec       q    Type
REMARK                         _______ _______ _______ _____ _____    ______ ____
ROOT
ATOM      1  C   UNL     1       9.300  -0.918  24.383  0.00  0.00    +0.250 C 
ATOM      2  N   UNL     1       9.098   0.101  23.458  0.00  0.00    -0.283 N 
ATOM      3  H   UNL     1       9.136  -0.138  22.478  0.00  0.00    +0.155 HD
ATOM      4  O   UNL     1       9.625  -0.735  25.554  0.00  0.00    -0.272 OA
ENDROOT
BRANCH   2   5
ATOM      5  C   UNL     1       9.259   1.476  23.722  0.00  0.00    +0.034 A 
ATOM      6  C   UNL     1      10.365   2.133  23.175  0.00  0.00    +0.024 A 
ATOM      7  C   UNL     1      10.548   3.500  23.390  0.00  0.00    +0.021 A 
ATOM      8  C   UNL     1       9.615   4.233  24.141  0.00  0.00    +0.064 A 
ATOM      9  C   UNL     1       8.499   3.586  24.690  0.00  0.00    +0.074 A 
ATOM     10  C   UNL     1       8.342   2.207  24.477  0.00  0.00    +0.037 A 
BRANCH   9  11
ATOM     11  C   UNL     1       7.452   4.330  25.477  0.00  0.00    +0.419 C 
ATOM     12  F   UNL     1       6.474   3.502  25.933  0.00  0.00    -0.166 F 
ATOM     13  F   UNL     1       6.835   5.298  24.751  0.00  0.00    -0.166 F 
ATOM     14  F   UNL     1       7.945   4.954  26.584  0.00  0.00    -0.166 F 
ENDBRANCH   9  11
BRANCH   8  15
ATOM     15  C   UNL     1       9.815   5.643  24.300  0.00  0.00    +0.100 C 
ATOM     16  N   UNL     1       9.958   6.789  24.423  0.00  0.00    -0.191 NA
ENDBRANCH   8  15
ENDBRANCH   2   5
BRANCH   1  18
ATOM     17  C   UNL     1       8.553  -2.265  22.388  0.00  0.00    +0.053 C 
ATOM     18  C   UNL     1       8.947  -2.349  23.871  0.00  0.00    +0.158 C 
BRANCH  18  19
ATOM     19  O   UNL     1      10.142  -3.162  23.921  0.00  0.00    -0.378 OA
ATOM     20  H   UNL     1      10.921  -2.584  23.815  0.00  0.00    +0.211 HD
ENDBRANCH  18  19
BRANCH  18  21
ATOM     21  C   UNL     1       7.907  -3.111  24.689  0.00  0.00    +0.215 C 
BRANCH  21  22
ATOM     22  S   UNL     1       8.490  -4.656  25.339  0.00  0.00    +0.000 S 
ATOM     23  O   UNL     1       9.407  -4.397  26.430  0.00  0.00    -0.169 OA
ATOM     24  O   UNL     1       8.856  -5.509  24.228  0.00  0.00    -0.169 OA
BRANCH  22  25
ATOM     25  C   UNL     1       7.037  -5.396  26.055  0.00  0.00    +0.088 A 
ATOM     26  C   UNL     1       5.989  -5.798  25.222  0.00  0.00    +0.030 A 
ATOM     27  C   UNL     1       4.839  -6.340  25.797  0.00  0.00    +0.040 A 
ATOM     28  C   UNL     1       4.745  -6.465  27.180  0.00  0.00    +0.124 A 
ATOM     29  F   UNL     1       3.632  -6.968  27.724  0.00  0.00    -0.205 F 
ATOM     30  C   UNL     1       5.788  -6.065  28.011  0.00  0.00    +0.040 A 
ATOM     31  C   UNL     1       6.945  -5.527  27.449  0.00  0.00    +0.030 A 
ENDBRANCH  22  25
ENDBRANCH  21  22
ENDBRANCH  18  21
ENDBRANCH   1  18
TORSDOF 8
ENDMDL
MODEL 9
REMARK VINA RESULT:      -6.5      4.054      9.412
REMARK  Name = 
REMARK  9 active torsions:
REMARK  status: ('A' for Active; 'I' for Inactive)
REMARK    1  A    between atoms: C_1  and  C_2
REMARK    2  A    between atoms: C_2  and  O_3
REMARK    3  A    between atoms: C_2  and  C_4
REMARK    4  A    between atoms: C_2  and  C_15
REMARK    5  A    between atoms: C_4  and  S_5
REMARK    6  A    between atoms: S_5  and  C_8
REMARK    7  A    between atoms: N_17  and  C_18
REMARK    8  A    between atoms: C_20  and  C_26
REMARK    9  A    between atoms: C_21  and  C_24
REMARK                            x       y       z     vdW  Elec       q    Type
REMARK                         _______ _______ _______ _____ _____    ______ ____
ROOT
ATOM      1  C   UNL     1       8.084  -1.406  22.689  0.00  0.00    +0.250 C 
ATOM      2  N   UNL     1       8.361  -2.737  22.988  0.00  0.00    -0.283 N 
ATOM      3  H   UNL     1       9.230  -3.123  22.651  0.00  0.00    +0.155 HD
ATOM      4  O   UNL     1       6.960  -0.911  22.717  0.00  0.00    -0.272 OA
ENDROOT
BRANCH   2   5
ATOM      5  C   UNL     1       7.398  -3.704  23.340  0.00  0.00    +0.034 A 
ATOM      6  C   UNL     1       6.853  -4.498  22.328  0.00  0.00    +0.024 A 
ATOM      7  C   UNL     1       5.916  -5.486  22.638  0.00  0.00    +0.021 A 
ATOM      8  C   UNL     1       5.527  -5.704  23.969  0.00  0.00    +0.064 A 
ATOM      9  C   UNL     1       6.071  -4.916  24.993  0.00  0.00    +0.074 A 
ATOM     10  C   UNL     1       6.999  -3.917  24.660  0.00  0.00    +0.037 A 
BRANCH   9  11
ATOM     11  C   UNL     1       5.711  -5.129  26.441  0.00  0.00    +0.419 C 
ATOM     12  F   UNL     1       5.992  -6.393  26.855  0.00  0.00    -0.166 F 
ATOM     13  F   UNL     1       4.393  -4.922  26.692  0.00  0.00    -0.166 F 
ATOM     14  F   UNL     1       6.385  -4.309  27.296  0.00  0.00    -0.166 F 
ENDBRANCH   9  11
BRANCH   8  15
ATOM     15  C   UNL     1       4.597  -6.758  24.251  0.00  0.00    +0.100 C 
ATOM     16  N   UNL     1       3.845  -7.608  24.498  0.00  0.00    -0.191 NA
ENDBRANCH   8  15
ENDBRANCH   2   5
BRANCH   1  18
ATOM     17  C   UNL     1      10.572  -1.419  22.288  0.00  0.00    +0.053 C 
ATOM     18  C   UNL     1       9.339  -0.514  22.437  0.00  0.00    +0.158 C 
BRANCH  18  19
ATOM     19  O   UNL     1       9.178   0.154  21.165  0.00  0.00    -0.378 OA
ATOM     20  H   UNL     1       8.318   0.614  21.156  0.00  0.00    +0.211 HD
ENDBRANCH  18  19
BRANCH  18  21
ATOM     21  C   UNL     1       9.576   0.601  23.451  0.00  0.00    +0.215 C 
BRANCH  21  22
ATOM     22  S   UNL     1       8.515   2.009  23.240  0.00  0.00    +0.000 S 
ATOM     23  O   UNL     1       7.581   2.069  24.344  0.00  0.00    -0.169 OA
ATOM     24  O   UNL     1       8.065   2.037  21.864  0.00  0.00    -0.169 OA
BRANCH  22  25
ATOM     25  C   UNL     1       9.609   3.402  23.417  0.00  0.00    +0.088 A 
ATOM     26  C   UNL     1      10.983   3.225  23.231  0.00  0.00    +0.030 A 
ATOM     27  C   UNL     1      11.835   4.315  23.410  0.00  0.00    +0.040 A 
ATOM     28  C   UNL     1      11.314   5.552  23.778  0.00  0.00    +0.124 A 
ATOM     29  F   UNL     1      12.139   6.588  23.967  0.00  0.00    -0.205 F 
ATOM     30  C   UNL     1       9.946   5.730  23.964  0.00  0.00    +0.040 A 
ATOM     31  C   UNL     1       9.083   4.651  23.782  0.00  0.00    +0.030 A 
ENDBRANCH  22  25
ENDBRANCH  21  22
ENDBRANCH  18  21
ENDBRANCH   1  18
TORSDOF 8
ENDMDL
