MODEL 1
REMARK VINA RESULT:      -3.4      0.000      0.000
REMARK  Name = 
REMARK  5 active torsions:
REMARK  status: ('A' for Active; 'I' for Inactive)
REMARK    1  A    between atoms: N_1  and  CA_2
REMARK    2  A    between atoms: CA_2  and  CB_4
REMARK    3  A    between atoms: CA_2  and  C_6
REMARK    4  A    between atoms: CB_4  and  SG_5
REMARK    5  A    between atoms: C_6  and  O_7
REMARK                            x       y       z     vdW  Elec       q    Type
REMARK                         _______ _______ _______ _____ _____    ______ ____
ROOT
ATOM      1  CA  CYS A   1       9.095  -4.592  25.554  0.00  0.00    +0.170 C 
ENDROOT
BRANCH   1   2
ATOM      2  N   CYS A   1      10.211  -5.585  25.389  0.00  0.00    -0.318 NA
ATOM      3  H1  CYS A   1      10.294  -5.799  24.388  0.00  0.00    +0.119 HD
ATOM      4  H2  CYS A   1      11.083  -5.076  25.577  0.00  0.00    +0.119 HD
ENDBRANCH   1   2
BRANCH   1   5
ATOM      5  C   CYS A   1       7.878  -5.324  26.136  0.00  0.00    +0.323 C 
ATOM      6  OXT CYS A   1       6.807  -5.465  25.569  0.00  0.00    -0.249 OA
BRANCH   5   7
ATOM      7  O   CYS A   1       8.134  -5.792  27.385  0.00  0.00    -0.480 OA
ATOM      8  H   CYS A   1       8.933  -6.372  27.298  0.00  0.00    +0.295 HD
ENDBRANCH   5   7
ENDBRANCH   1   5
BRANCH   1   9
ATOM      9  CB  CYS A   1       8.688  -3.914  24.240  0.00  0.00    +0.095 C 
BRANCH   9  10
ATOM     10  SG  CYS A   1       9.708  -2.443  23.889  0.00  0.00    -0.176 S 
ATOM     11  HG  CYS A   1       9.018  -2.027  22.816  0.00  0.00    +0.102 HD
ENDBRANCH   9  10
ENDBRANCH   1   9
TORSDOF 5
ENDMDL
MODEL 2
REMARK VINA RESULT:      -3.3      2.065      2.244
REMARK  Name = 
REMARK  5 active torsions:
REMARK  status: ('A' for Active; 'I' for Inactive)
REMARK    1  A    between atoms: N_1  and  CA_2
REMARK    2  A    between atoms: CA_2  and  CB_4
REMARK    3  A    between atoms: CA_2  and  C_6
REMARK    4  A    between atoms: CB_4  and  SG_5
REMARK    5  A    between atoms: C_6  and  O_7
REMARK                            x       y       z     vdW  Elec       q    Type
REMARK                         _______ _______ _______ _____ _____    ______ ____
ROOT
ATOM      1  CA  CYS A   1       8.086  -4.779  26.077  0.00  0.00    +0.170 C 
ENDROOT
BRANCH   1   2
ATOM      2  N   CYS A   1       8.091  -5.750  27.223  0.00  0.00    -0.318 NA
ATOM      3  H1  CYS A   1       7.624  -6.609  26.908  0.00  0.00    +0.119 HD
ATOM      4  H2  CYS A   1       9.064  -6.061  27.337  0.00  0.00    +0.119 HD
ENDBRANCH   1   2
BRANCH   1   5
ATOM      5  C   CYS A   1       9.010  -5.321  24.978  0.00  0.00    +0.323 C 
ATOM      6  OXT CYS A   1       8.677  -5.536  23.825  0.00  0.00    -0.249 OA
BRANCH   5   7
ATOM      7  O   CYS A   1      10.262  -5.548  25.454  0.00  0.00    -0.480 OA
ATOM      8  H   CYS A   1      10.880  -5.172  24.777  0.00  0.00    +0.295 HD
ENDBRANCH   5   7
ENDBRANCH   1   5
BRANCH   1   9
ATOM      9  CB  CYS A   1       8.552  -3.372  26.472  0.00  0.00    +0.095 C 
BRANCH   9  10
ATOM     10  SG  CYS A   1       8.390  -2.188  25.094  0.00  0.00    -0.176 S 
ATOM     11  HG  CYS A   1       7.091  -2.414  24.847  0.00  0.00    +0.102 HD
ENDBRANCH   9  10
ENDBRANCH   1   9
TORSDOF 5
ENDMDL
MODEL 3
REMARK VINA RESULT:      -3.3      2.609      2.774
REMARK  Name = 
REMARK  5 active torsions:
REMARK  status: ('A' for Active; 'I' for Inactive)
REMARK    1  A    between atoms: N_1  and  CA_2
REMARK    2  A    between atoms: CA_2  and  CB_4
REMARK    3  A    between atoms: CA_2  and  C_6
REMARK    4  A    between atoms: CB_4  and  SG_5
REMARK    5  A    between atoms: C_6  and  O_7
REMARK                            x       y       z     vdW  Elec       q    Type
REMARK                         _______ _______ _______ _____ _____    ______ ____
ROOT
ATOM      1  CA  CYS A   1       7.995  -5.262  25.725  0.00  0.00    +0.170 C 
ENDROOT
BRANCH   1   2
ATOM      2  N   CYS A   1       8.117  -5.640  27.174  0.00  0.00    -0.318 NA
ATOM      3  H1  CYS A   1       8.872  -5.077  27.582  0.00  0.00    +0.119 HD
ATOM      4  H2  CYS A   1       7.285  -5.263  27.644  0.00  0.00    +0.119 HD
ENDBRANCH   1   2
BRANCH   1   5
ATOM      5  C   CYS A   1       9.387  -4.876  25.206  0.00  0.00    +0.323 C 
ATOM      6  OXT CYS A   1       9.614  -3.989  24.401  0.00  0.00    -0.249 OA
BRANCH   5   7
ATOM      7  O   CYS A   1      10.351  -5.664  25.749  0.00  0.00    -0.480 OA
ATOM      8  H   CYS A   1      10.525  -6.377  25.082  0.00  0.00    +0.295 HD
ENDBRANCH   5   7
ENDBRANCH   1   5
BRANCH   1   9
ATOM      9  CB  CYS A   1       7.030  -4.094  25.482  0.00  0.00    +0.095 C 
BRANCH   9  10
ATOM     10  SG  CYS A   1       5.954  -4.389  24.040  0.00  0.00    -0.176 S 
ATOM     11  HG  CYS A   1       6.637  -3.622  23.176  0.00  0.00    +0.102 HD
ENDBRANCH   9  10
ENDBRANCH   1   9
TORSDOF 5
ENDMDL
MODEL 4
REMARK VINA RESULT:      -3.2      6.619      6.956
REMARK  Name = 
REMARK  5 active torsions:
REMARK  status: ('A' for Active; 'I' for Inactive)
REMARK    1  A    between atoms: N_1  and  CA_2
REMARK    2  A    between atoms: CA_2  and  CB_4
REMARK    3  A    between atoms: CA_2  and  C_6
REMARK    4  A    between atoms: CB_4  and  SG_5
REMARK    5  A    between atoms: C_6  and  O_7
REMARK                            x       y       z     vdW  Elec       q    Type
REMARK                         _______ _______ _______ _____ _____    ______ ____
ROOT
ATOM      1  CA  CYS A   1       9.322   0.019  22.287  0.00  0.00    +0.170 C 
ENDROOT
BRANCH   1   2
ATOM      2  N   CYS A   1       9.644  -0.918  21.158  0.00  0.00    -0.318 NA
ATOM      3  H1  CYS A   1       9.215  -1.827  21.373  0.00  0.00    +0.119 HD
ATOM      4  H2  CYS A   1       9.091  -0.602  20.351  0.00  0.00    +0.119 HD
ENDBRANCH   1   2
BRANCH   1   5
ATOM      5  C   CYS A   1       9.025   1.405  21.699  0.00  0.00    +0.323 C 
ATOM      6  OXT CYS A   1       7.922   1.805  21.366  0.00  0.00    -0.249 OA
BRANCH   5   7
ATOM      7  O   CYS A   1      10.160   2.142  21.577  0.00  0.00    -0.480 OA
ATOM      8  H   CYS A   1      10.063   2.650  20.731  0.00  0.00    +0.295 HD
ENDBRANCH   5   7
ENDBRANCH   1   5
BRANCH   1   9
ATOM      9  CB  CYS A   1      10.457   0.145  23.312  0.00  0.00    +0.095 C 
BRANCH   9  10
ATOM     10  SG  CYS A   1       9.843   0.029  25.026  0.00  0.00    -0.176 S 
ATOM     11  HG  CYS A   1      10.892  -0.645  25.522  0.00  0.00    +0.102 HD
ENDBRANCH   9  10
ENDBRANCH   1   9
TORSDOF 5
ENDMDL
MODEL 5
REMARK VINA RESULT:      -3.2      6.162      6.804
REMARK  Name = 
REMARK  5 active torsions:
REMARK  status: ('A' for Active; 'I' for Inactive)
REMARK    1  A    between atoms: N_1  and  CA_2
REMARK    2  A    between atoms: CA_2  and  CB_4
REMARK    3  A    between atoms: CA_2  and  C_6
REMARK    4  A    between atoms: CB_4  and  SG_5
REMARK    5  A    between atoms: C_6  and  O_7
REMARK                            x       y       z     vdW  Elec       q    Type
REMARK                         _______ _______ _______ _____ _____    ______ ____
ROOT
ATOM      1  CA  CYS A   1       9.484   0.081  22.665  0.00  0.00    +0.170 C 
ENDROOT
BRANCH   1   2
ATOM      2  N   CYS A   1       9.780  -0.590  21.354  0.00  0.00    -0.318 NA
ATOM      3  H1  CYS A   1       9.024  -1.258  21.166  0.00  0.00    +0.119 HD
ATOM      4  H2  CYS A   1       9.631   0.118  20.624  0.00  0.00    +0.119 HD
ENDBRANCH   1   2
BRANCH   1   5
ATOM      5  C   CYS A   1      10.055   1.505  22.621  0.00  0.00    +0.323 C 
ATOM      6  OXT CYS A   1      10.622   2.062  23.546  0.00  0.00    -0.249 OA
BRANCH   5   7
ATOM      7  O   CYS A   1       9.839   2.086  21.413  0.00  0.00    -0.480 OA
ATOM      8  H   CYS A   1       8.857   2.070  21.278  0.00  0.00    +0.295 HD
ENDBRANCH   5   7
ENDBRANCH   1   5
BRANCH   1   9
ATOM      9  CB  CYS A   1      10.078  -0.658  23.871  0.00  0.00    +0.095 C 
BRANCH   9  10
ATOM     10  SG  CYS A   1       9.704  -2.442  23.829  0.00  0.00    -0.176 S 
ATOM     11  HG  CYS A   1      10.973  -2.870  23.914  0.00  0.00    +0.102 HD
ENDBRANCH   9  10
ENDBRANCH   1   9
TORSDOF 5
ENDMDL
MODEL 6
REMARK VINA RESULT:      -3.2      5.846      6.287
REMARK  Name = 
REMARK  5 active torsions:
REMARK  status: ('A' for Active; 'I' for Inactive)
REMARK    1  A    between atoms: N_1  and  CA_2
REMARK    2  A    between atoms: CA_2  and  CB_4
REMARK    3  A    between atoms: CA_2  and  C_6
REMARK    4  A    between atoms: CB_4  and  SG_5
REMARK    5  A    between atoms: C_6  and  O_7
REMARK                            x       y       z     vdW  Elec       q    Type
REMARK                         _______ _______ _______ _____ _____    ______ ____
ROOT
ATOM      1  CA  CYS A   1       9.657   0.688  22.011  0.00  0.00    +0.170 C 
ENDROOT
BRANCH   1   2
ATOM      2  N   CYS A   1       8.831   1.422  20.993  0.00  0.00    -0.318 NA
ATOM      3  H1  CYS A   1       9.474   1.948  20.389  0.00  0.00    +0.119 HD
ATOM      4  H2  CYS A   1       8.462   0.711  20.351  0.00  0.00    +0.119 HD
ENDBRANCH   1   2
BRANCH   1   5
ATOM      5  C   CYS A   1       9.272  -0.797  21.968  0.00  0.00    +0.323 C 
ATOM      6  OXT CYS A   1       8.208  -1.258  22.348  0.00  0.00    -0.249 OA
BRANCH   5   7
ATOM      7  O   CYS A   1      10.280  -1.554  21.461  0.00  0.00    -0.480 OA
ATOM      8  H   CYS A   1       9.937  -1.922  20.607  0.00  0.00    +0.295 HD
ENDBRANCH   5   7
ENDBRANCH   1   5
BRANCH   1   9
ATOM      9  CB  CYS A   1       9.465   1.212  23.440  0.00  0.00    +0.095 C 
BRANCH   9  10
ATOM     10  SG  CYS A   1      10.735   0.565  24.579  0.00  0.00    -0.176 S 
ATOM     11  HG  CYS A   1      11.799   1.022  23.902  0.00  0.00    +0.102 HD
ENDBRANCH   9  10
ENDBRANCH   1   9
TORSDOF 5
ENDMDL
MODEL 7
REMARK VINA RESULT:      -3.1      4.135      4.649
REMARK  Name = 
REMARK  5 active torsions:
REMARK  status: ('A' for Active; 'I' for Inactive)
REMARK    1  A    between atoms: N_1  and  CA_2
REMARK    2  A    between atoms: CA_2  and  CB_4
REMARK    3  A    between atoms: CA_2  and  C_6
REMARK    4  A    between atoms: CB_4  and  SG_5
REMARK    5  A    between atoms: C_6  and  O_7
REMARK                            x       y       z     vdW  Elec       q    Type
REMARK                         _______ _______ _______ _____ _____    ______ ____
ROOT
ATOM      1  CA  CYS A   1      10.443  -1.370  22.785  0.00  0.00    +0.170 C 
ENDROOT
BRANCH   1   2
ATOM      2  N   CYS A   1       9.913  -1.496  21.385  0.00  0.00    -0.318 NA
ATOM      3  H1  CYS A   1      10.164  -0.640  20.877  0.00  0.00    +0.119 HD
ATOM      4  H2  CYS A   1      10.492  -2.204  20.918  0.00  0.00    +0.119 HD
ENDBRANCH   1   2
BRANCH   1   5
ATOM      5  C   CYS A   1       9.662  -2.334  23.689  0.00  0.00    +0.323 C 
ATOM      6  OXT CYS A   1      10.078  -3.403  24.101  0.00  0.00    -0.249 OA
BRANCH   5   7
ATOM      7  O   CYS A   1       8.423  -1.852  23.969  0.00  0.00    -0.480 OA
ATOM      8  H   CYS A   1       8.210  -1.215  23.240  0.00  0.00    +0.295 HD
ENDBRANCH   5   7
ENDBRANCH   1   5
BRANCH   1   9
ATOM      9  CB  CYS A   1      10.325   0.051  23.352  0.00  0.00    +0.095 C 
BRANCH   9  10
ATOM     10  SG  CYS A   1       9.815   1.252  22.079  0.00  0.00    -0.176 S 
ATOM     11  HG  CYS A   1      11.026   1.419  21.527  0.00  0.00    +0.102 HD
ENDBRANCH   9  10
ENDBRANCH   1   9
TORSDOF 5
ENDMDL
MODEL 8
REMARK VINA RESULT:      -3.1      5.101      5.678
REMARK  Name = 
REMARK  5 active torsions:
REMARK  status: ('A' for Active; 'I' for Inactive)
REMARK    1  A    between atoms: N_1  and  CA_2
REMARK    2  A    between atoms: CA_2  and  CB_4
REMARK    3  A    between atoms: CA_2  and  C_6
REMARK    4  A    between atoms: CB_4  and  SG_5
REMARK    5  A    between atoms: C_6  and  O_7
REMARK                            x       y       z     vdW  Elec       q    Type
REMARK                         _______ _______ _______ _____ _____    ______ ____
ROOT
ATOM      1  CA  CYS A   1       9.811  -0.137  23.277  0.00  0.00    +0.170 C 
ENDROOT
BRANCH   1   2
ATOM      2  N   CYS A   1      10.751   0.190  24.402  0.00  0.00    -0.318 NA
ATOM      3  H1  CYS A   1      10.301   0.903  24.989  0.00  0.00    +0.119 HD
ATOM      4  H2  CYS A   1      10.758  -0.629  25.022  0.00  0.00    +0.119 HD
ENDBRANCH   1   2
BRANCH   1   5
ATOM      5  C   CYS A   1      10.128  -1.552  22.775  0.00  0.00    +0.323 C 
ATOM      6  OXT CYS A   1      10.280  -2.532  23.486  0.00  0.00    -0.249 OA
BRANCH   5   7
ATOM      7  O   CYS A   1      10.236  -1.583  21.421  0.00  0.00    -0.480 OA
ATOM      8  H   CYS A   1       9.801  -2.426  21.135  0.00  0.00    +0.295 HD
ENDBRANCH   5   7
ENDBRANCH   1   5
BRANCH   1   9
ATOM      9  CB  CYS A   1       9.908   0.843  22.101  0.00  0.00    +0.095 C 
BRANCH   9  10
ATOM     10  SG  CYS A   1       8.336   1.721  21.814  0.00  0.00    -0.176 S 
ATOM     11  HG  CYS A   1       8.064   1.169  20.621  0.00  0.00    +0.102 HD
ENDBRANCH   9  10
ENDBRANCH   1   9
TORSDOF 5
ENDMDL
MODEL 9
REMARK VINA RESULT:      -3.0      2.098      2.176
REMARK  Name = 
REMARK  5 active torsions:
REMARK  status: ('A' for Active; 'I' for Inactive)
REMARK    1  A    between atoms: N_1  and  CA_2
REMARK    2  A    between atoms: CA_2  and  CB_4
REMARK    3  A    between atoms: CA_2  and  C_6
REMARK    4  A    between atoms: CB_4  and  SG_5
REMARK    5  A    between atoms: C_6  and  O_7
REMARK                            x       y       z     vdW  Elec       q    Type
REMARK                         _______ _______ _______ _____ _____    ______ ____
ROOT
ATOM      1  CA  CYS A   1       8.680  -3.825  25.069  0.00  0.00    +0.170 C 
ENDROOT
BRANCH   1   2
ATOM      2  N   CYS A   1       9.876  -3.521  24.212  0.00  0.00    -0.318 NA
ATOM      3  H1  CYS A   1      10.500  -2.909  24.751  0.00  0.00    +0.119 HD
ATOM      4  H2  CYS A   1      10.421  -4.390  24.154  0.00  0.00    +0.119 HD
ENDBRANCH   1   2
BRANCH   1   5
ATOM      5  C   CYS A   1       8.854  -5.230  25.663  0.00  0.00    +0.323 C 
ATOM      6  OXT CYS A   1       8.053  -5.787  26.394  0.00  0.00    -0.249 OA
BRANCH   5   7
ATOM      7  O   CYS A   1      10.034  -5.784  25.281  0.00  0.00    -0.480 OA
ATOM      8  H   CYS A   1       9.822  -6.360  24.502  0.00  0.00    +0.295 HD
ENDBRANCH   5   7
ENDBRANCH   1   5
BRANCH   1   9
ATOM      9  CB  CYS A   1       7.354  -3.770  24.300  0.00  0.00    +0.095 C 
BRANCH   9  10
ATOM     10  SG  CYS A   1       7.313  -4.967  22.925  0.00  0.00    -0.176 S 
ATOM     11  HG  CYS A   1       6.516  -4.250  22.117  0.00  0.00    +0.102 HD
ENDBRANCH   9  10
ENDBRANCH   1   9
TORSDOF 5
ENDMDL
