MODEL 1
REMARK VINA RESULT:      -7.6      0.000      0.000
REMARK  Name = 
REMARK  2 active torsions:
REMARK  status: ('A' for Active; 'I' for Inactive)
REMARK    1  A    between atoms: O_1  and  C_2
REMARK    2  A    between atoms: C_5  and  C_8
REMARK                            x       y       z     vdW  Elec       q    Type
REMARK                         _______ _______ _______ _____ _____    ______ ____
ROOT
ATOM      1  C   UNL     1       6.984  -2.728  22.815  0.00  0.00    +0.001 A 
ATOM      2  C   UNL     1       6.200  -3.374  21.869  0.00  0.00    +0.120 A 
ATOM      3  N   UNL     1       5.437  -4.471  22.106  0.00  0.00    -0.254 NA
ATOM      4  C   UNL     1       5.413  -4.973  23.349  0.00  0.00    +0.072 A 
ATOM      5  C   UNL     1       4.615  -6.080  23.587  0.00  0.00    +0.029 A 
ATOM      6  C   UNL     1       4.524  -6.666  24.851  0.00  0.00    +0.011 A 
ATOM      7  C   UNL     1       5.248  -6.144  25.926  0.00  0.00    -0.014 A 
ATOM      8  C   UNL     1       5.156  -6.727  27.196  0.00  0.00    +0.028 A 
ATOM      9  C   UNL     1       5.883  -6.179  28.238  0.00  0.00    +0.111 A 
ATOM     10  N   UNL     1       6.683  -5.108  28.104  0.00  0.00    -0.263 NA
ATOM     11  C   UNL     1       6.756  -4.562  26.864  0.00  0.00    +0.119 A 
ATOM     12  C   UNL     1       6.076  -5.019  25.720  0.00  0.00    +0.009 A 
ATOM     13  C   UNL     1       6.160  -4.429  24.412  0.00  0.00    +0.010 A 
ATOM     14  C   UNL     1       6.955  -3.299  24.095  0.00  0.00    +0.020 A 
ENDROOT
BRANCH   1  18
ATOM     15  C   UNL     1       9.205   0.834  21.870  0.00  0.00    +0.117 A 
ATOM     16  C   UNL     1       7.969   0.935  22.487  0.00  0.00    +0.046 A 
ATOM     17  C   UNL     1       7.254  -0.226  22.798  0.00  0.00    +0.012 A 
ATOM     18  C   UNL     1       7.767  -1.509  22.513  0.00  0.00    -0.016 A 
ATOM     19  C   UNL     1       9.038  -1.571  21.911  0.00  0.00    +0.012 A 
ATOM     20  C   UNL     1       9.753  -0.409  21.585  0.00  0.00    +0.046 A 
BRANCH  15  21
ATOM     21  O   UNL     1       9.850   1.991  21.551  0.00  0.00    -0.507 OA
ATOM     22  H   UNL     1      10.149   2.417  22.371  0.00  0.00    +0.292 HD
ENDBRANCH  15  21
ENDBRANCH   1  18
TORSDOF 2
ENDMDL
MODEL 2
REMARK VINA RESULT:      -7.3      1.425      3.060
REMARK  Name = 
REMARK  2 active torsions:
REMARK  status: ('A' for Active; 'I' for Inactive)
REMARK    1  A    between atoms: O_1  and  C_2
REMARK    2  A    between atoms: C_5  and  C_8
REMARK                            x       y       z     vdW  Elec       q    Type
REMARK                         _______ _______ _______ _____ _____    ______ ____
ROOT
ATOM      1  C   UNL     1       8.250  -2.091  24.495  0.00  0.00    +0.001 A 
ATOM      2  C   UNL     1       8.795  -2.523  25.697  0.00  0.00    +0.120 A 
ATOM      3  N   UNL     1       8.332  -3.563  26.435  0.00  0.00    -0.254 NA
ATOM      4  C   UNL     1       7.276  -4.250  25.974  0.00  0.00    +0.072 A 
ATOM      5  C   UNL     1       6.822  -5.324  26.722  0.00  0.00    +0.029 A 
ATOM      6  C   UNL     1       5.734  -6.098  26.316  0.00  0.00    +0.011 A 
ATOM      7  C   UNL     1       5.063  -5.806  25.127  0.00  0.00    -0.014 A 
ATOM      8  C   UNL     1       3.973  -6.583  24.715  0.00  0.00    +0.028 A 
ATOM      9  C   UNL     1       3.335  -6.268  23.528  0.00  0.00    +0.111 A 
ATOM     10  N   UNL     1       3.704  -5.247  22.736  0.00  0.00    -0.263 NA
ATOM     11  C   UNL     1       4.760  -4.508  23.157  0.00  0.00    +0.119 A 
ATOM     12  C   UNL     1       5.493  -4.716  24.340  0.00  0.00    +0.009 A 
ATOM     13  C   UNL     1       6.614  -3.927  24.773  0.00  0.00    +0.010 A 
ATOM     14  C   UNL     1       7.132  -2.816  24.061  0.00  0.00    +0.020 A 
ENDROOT
BRANCH   1  18
ATOM     15  C   UNL     1       9.837   1.201  22.223  0.00  0.00    +0.117 A 
ATOM     16  C   UNL     1       9.797   1.272  23.606  0.00  0.00    +0.046 A 
ATOM     17  C   UNL     1       9.287   0.197  24.340  0.00  0.00    +0.012 A 
ATOM     18  C   UNL     1       8.821  -0.975  23.709  0.00  0.00    -0.016 A 
ATOM     19  C   UNL     1       8.904  -1.021  22.303  0.00  0.00    +0.012 A 
ATOM     20  C   UNL     1       9.403   0.060  21.563  0.00  0.00    +0.046 A 
BRANCH  15  21
ATOM     21  O   UNL     1      10.307   2.285  21.546  0.00  0.00    -0.507 OA
ATOM     22  H   UNL     1      10.044   3.088  22.024  0.00  0.00    +0.292 HD
ENDBRANCH  15  21
ENDBRANCH   1  18
TORSDOF 2
ENDMDL
MODEL 3
REMARK VINA RESULT:      -7.3      2.842      4.464
REMARK  Name = 
REMARK  2 active torsions:
REMARK  status: ('A' for Active; 'I' for Inactive)
REMARK    1  A    between atoms: O_1  and  C_2
REMARK    2  A    between atoms: C_5  and  C_8
REMARK                            x       y       z     vdW  Elec       q    Type
REMARK                         _______ _______ _______ _____ _____    ______ ____
ROOT
ATOM      1  C   UNL     1       8.254   0.055  23.723  0.00  0.00    +0.001 A 
ATOM      2  C   UNL     1       9.107  -0.319  24.752  0.00  0.00    +0.120 A 
ATOM      3  N   UNL     1       9.347  -1.596  25.142  0.00  0.00    -0.254 NA
ATOM      4  C   UNL     1       8.736  -2.589  24.479  0.00  0.00    +0.072 A 
ATOM      5  C   UNL     1       9.003  -3.892  24.868  0.00  0.00    +0.029 A 
ATOM      6  C   UNL     1       8.416  -4.987  24.232  0.00  0.00    +0.011 A 
ATOM      7  C   UNL     1       7.529  -4.795  23.170  0.00  0.00    -0.014 A 
ATOM      8  C   UNL     1       6.941  -5.892  22.526  0.00  0.00    +0.028 A 
ATOM      9  C   UNL     1       6.071  -5.664  21.475  0.00  0.00    +0.111 A 
ATOM     10  N   UNL     1       5.752  -4.439  21.027  0.00  0.00    -0.263 NA
ATOM     11  C   UNL     1       6.332  -3.393  21.667  0.00  0.00    +0.119 A 
ATOM     12  C   UNL     1       7.228  -3.482  22.748  0.00  0.00    +0.009 A 
ATOM     13  C   UNL     1       7.840  -2.365  23.416  0.00  0.00    +0.010 A 
ATOM     14  C   UNL     1       7.612  -1.008  23.073  0.00  0.00    +0.020 A 
ENDROOT
BRANCH   1  18
ATOM     15  C   UNL     1       7.729   4.133  22.453  0.00  0.00    +0.117 A 
ATOM     16  C   UNL     1       6.944   3.132  21.903  0.00  0.00    +0.046 A 
ATOM     17  C   UNL     1       7.114   1.810  22.324  0.00  0.00    +0.012 A 
ATOM     18  C   UNL     1       8.059   1.463  23.312  0.00  0.00    -0.016 A 
ATOM     19  C   UNL     1       8.819   2.512  23.867  0.00  0.00    +0.012 A 
ATOM     20  C   UNL     1       8.661   3.838  23.438  0.00  0.00    +0.046 A 
BRANCH  15  21
ATOM     21  O   UNL     1       7.557   5.401  21.987  0.00  0.00    -0.507 OA
ATOM     22  H   UNL     1       8.365   5.910  22.165  0.00  0.00    +0.292 HD
ENDBRANCH  15  21
ENDBRANCH   1  18
TORSDOF 2
ENDMDL
MODEL 4
REMARK VINA RESULT:      -7.1      3.763      7.452
REMARK  Name = 
REMARK  2 active torsions:
REMARK  status: ('A' for Active; 'I' for Inactive)
REMARK    1  A    between atoms: O_1  and  C_2
REMARK    2  A    between atoms: C_5  and  C_8
REMARK                            x       y       z     vdW  Elec       q    Type
REMARK                         _______ _______ _______ _____ _____    ______ ____
ROOT
ATOM      1  C   UNL     1       7.779  -2.401  23.216  0.00  0.00    +0.001 A 
ATOM      2  C   UNL     1       9.046  -2.681  23.708  0.00  0.00    +0.120 A 
ATOM      3  N   UNL     1       9.995  -1.754  23.994  0.00  0.00    -0.254 NA
ATOM      4  C   UNL     1       9.695  -0.460  23.811  0.00  0.00    +0.072 A 
ATOM      5  C   UNL     1      10.661   0.482  24.126  0.00  0.00    +0.029 A 
ATOM      6  C   UNL     1      10.435   1.851  23.972  0.00  0.00    +0.011 A 
ATOM      7  C   UNL     1       9.209   2.314  23.487  0.00  0.00    -0.014 A 
ATOM      8  C   UNL     1       8.978   3.688  23.335  0.00  0.00    +0.028 A 
ATOM      9  C   UNL     1       7.750   4.111  22.858  0.00  0.00    +0.111 A 
ATOM     10  N   UNL     1       6.754   3.273  22.527  0.00  0.00    -0.263 NA
ATOM     11  C   UNL     1       7.002   1.949  22.681  0.00  0.00    +0.119 A 
ATOM     12  C   UNL     1       8.203   1.385  23.151  0.00  0.00    +0.009 A 
ATOM     13  C   UNL     1       8.452  -0.022  23.313  0.00  0.00    +0.010 A 
ATOM     14  C   UNL     1       7.513  -1.040  23.011  0.00  0.00    +0.020 A 
ENDROOT
BRANCH   1  18
ATOM     15  C   UNL     1       4.837  -5.471  22.553  0.00  0.00    +0.117 A 
ATOM     16  C   UNL     1       4.473  -4.288  23.175  0.00  0.00    +0.046 A 
ATOM     17  C   UNL     1       5.430  -3.291  23.382  0.00  0.00    +0.012 A 
ATOM     18  C   UNL     1       6.766  -3.449  22.959  0.00  0.00    -0.016 A 
ATOM     19  C   UNL     1       7.092  -4.654  22.305  0.00  0.00    +0.012 A 
ATOM     20  C   UNL     1       6.138  -5.662  22.108  0.00  0.00    +0.046 A 
BRANCH  15  21
ATOM     21  O   UNL     1       3.882  -6.431  22.405  0.00  0.00    -0.507 OA
ATOM     22  H   UNL     1       3.008  -6.010  22.455  0.00  0.00    +0.292 HD
ENDBRANCH  15  21
ENDBRANCH   1  18
TORSDOF 2
ENDMDL
MODEL 5
REMARK VINA RESULT:      -7.1      3.979      7.653
REMARK  Name = 
REMARK  2 active torsions:
REMARK  status: ('A' for Active; 'I' for Inactive)
REMARK    1  A    between atoms: O_1  and  C_2
REMARK    2  A    between atoms: C_5  and  C_8
REMARK                            x       y       z     vdW  Elec       q    Type
REMARK                         _______ _______ _______ _____ _____    ______ ____
ROOT
ATOM      1  C   UNL     1       8.809  -1.960  24.396  0.00  0.00    +0.001 A 
ATOM      2  C   UNL     1       9.459  -2.121  23.180  0.00  0.00    +0.120 A 
ATOM      3  N   UNL     1       9.847  -1.110  22.363  0.00  0.00    -0.254 NA
ATOM      4  C   UNL     1       9.607   0.150  22.752  0.00  0.00    +0.072 A 
ATOM      5  C   UNL     1      10.026   1.178  21.922  0.00  0.00    +0.029 A 
ATOM      6  C   UNL     1       9.823   2.520  22.249  0.00  0.00    +0.011 A 
ATOM      7  C   UNL     1       9.182   2.867  23.440  0.00  0.00    -0.014 A 
ATOM      8  C   UNL     1       8.981   4.213  23.774  0.00  0.00    +0.028 A 
ATOM      9  C   UNL     1       8.347   4.520  24.964  0.00  0.00    +0.111 A 
ATOM     10  N   UNL     1       7.907   3.594  25.832  0.00  0.00    -0.263 NA
ATOM     11  C   UNL     1       8.112   2.299  25.487  0.00  0.00    +0.119 A 
ATOM     12  C   UNL     1       8.737   1.848  24.309  0.00  0.00    +0.009 A 
ATOM     13  C   UNL     1       8.952   0.471  23.956  0.00  0.00    +0.010 A 
ATOM     14  C   UNL     1       8.550  -0.630  24.755  0.00  0.00    +0.020 A 
ENDROOT
BRANCH   1  18
ATOM     15  C   UNL     1       7.782  -5.225  27.005  0.00  0.00    +0.117 A 
ATOM     16  C   UNL     1       7.043  -4.054  27.040  0.00  0.00    +0.046 A 
ATOM     17  C   UNL     1       7.376  -2.999  26.186  0.00  0.00    +0.012 A 
ATOM     18  C   UNL     1       8.444  -3.097  25.270  0.00  0.00    -0.016 A 
ATOM     19  C   UNL     1       9.154  -4.313  25.244  0.00  0.00    +0.012 A 
ATOM     20  C   UNL     1       8.832  -5.369  26.108  0.00  0.00    +0.046 A 
BRANCH  15  21
ATOM     21  O   UNL     1       7.447  -6.214  27.880  0.00  0.00    -0.507 OA
ATOM     22  H   UNL     1       6.929  -5.826  28.604  0.00  0.00    +0.292 HD
ENDBRANCH  15  21
ENDBRANCH   1  18
TORSDOF 2
ENDMDL
MODEL 6
REMARK VINA RESULT:      -7.0      2.320      4.331
REMARK  Name = 
REMARK  2 active torsions:
REMARK  status: ('A' for Active; 'I' for Inactive)
REMARK    1  A    between atoms: O_1  and  C_2
REMARK    2  A    between atoms: C_5  and  C_8
REMARK                            x       y       z     vdW  Elec       q    Type
REMARK                         _______ _______ _______ _____ _____    ______ ____
ROOT
ATOM      1  C   UNL     1       8.638  -0.234  24.924  0.00  0.00    +0.001 A 
ATOM      2  C   UNL     1       8.925  -0.746  26.182  0.00  0.00    +0.120 A 
ATOM      3  N   UNL     1       8.612  -1.996  26.606  0.00  0.00    -0.254 NA
ATOM      4  C   UNL     1       7.992  -2.821  25.750  0.00  0.00    +0.072 A 
ATOM      5  C   UNL     1       7.695  -4.103  26.183  0.00  0.00    +0.029 A 
ATOM      6  C   UNL     1       7.056  -5.031  25.359  0.00  0.00    +0.011 A 
ATOM      7  C   UNL     1       6.694  -4.686  24.055  0.00  0.00    -0.014 A 
ATOM      8  C   UNL     1       6.056  -5.616  23.223  0.00  0.00    +0.028 A 
ATOM      9  C   UNL     1       5.717  -5.241  21.936  0.00  0.00    +0.111 A 
ATOM     10  N   UNL     1       5.964  -4.022  21.428  0.00  0.00    -0.263 NA
ATOM     11  C   UNL     1       6.581  -3.139  22.252  0.00  0.00    +0.119 A 
ATOM     12  C   UNL     1       6.976  -3.387  23.580  0.00  0.00    +0.009 A 
ATOM     13  C   UNL     1       7.632  -2.443  24.442  0.00  0.00    +0.010 A 
ATOM     14  C   UNL     1       7.965  -1.117  24.068  0.00  0.00    +0.020 A 
ENDROOT
BRANCH   1  18
ATOM     15  C   UNL     1       9.872   3.716  23.744  0.00  0.00    +0.117 A 
ATOM     16  C   UNL     1      10.595   2.612  23.322  0.00  0.00    +0.046 A 
ATOM     17  C   UNL     1      10.186   1.330  23.703  0.00  0.00    +0.012 A 
ATOM     18  C   UNL     1       9.040   1.125  24.498  0.00  0.00    -0.016 A 
ATOM     19  C   UNL     1       8.315   2.270  24.884  0.00  0.00    +0.012 A 
ATOM     20  C   UNL     1       8.729   3.558  24.515  0.00  0.00    +0.046 A 
BRANCH  15  21
ATOM     21  O   UNL     1      10.327   4.948  23.381  0.00  0.00    -0.507 OA
ATOM     22  H   UNL     1      11.298   4.940  23.402  0.00  0.00    +0.292 HD
ENDBRANCH  15  21
ENDBRANCH   1  18
TORSDOF 2
ENDMDL
MODEL 7
REMARK VINA RESULT:      -6.8      2.677      3.194
REMARK  Name = 
REMARK  2 active torsions:
REMARK  status: ('A' for Active; 'I' for Inactive)
REMARK    1  A    between atoms: O_1  and  C_2
REMARK    2  A    between atoms: C_5  and  C_8
REMARK                            x       y       z     vdW  Elec       q    Type
REMARK                         _______ _______ _______ _____ _____    ______ ____
ROOT
ATOM      1  C   UNL     1       8.948  -0.860  24.004  0.00  0.00    +0.001 A 
ATOM      2  C   UNL     1       9.953  -1.692  23.531  0.00  0.00    +0.120 A 
ATOM      3  N   UNL     1      10.131  -2.986  23.898  0.00  0.00    -0.254 NA
ATOM      4  C   UNL     1       9.268  -3.525  24.771  0.00  0.00    +0.072 A 
ATOM      5  C   UNL     1       9.444  -4.853  25.124  0.00  0.00    +0.029 A 
ATOM      6  C   UNL     1       8.590  -5.497  26.022  0.00  0.00    +0.011 A 
ATOM      7  C   UNL     1       7.520  -4.808  26.597  0.00  0.00    -0.014 A 
ATOM      8  C   UNL     1       6.659  -5.452  27.495  0.00  0.00    +0.028 A 
ATOM      9  C   UNL     1       5.606  -4.740  28.042  0.00  0.00    +0.111 A 
ATOM     10  N   UNL     1       5.356  -3.451  27.759  0.00  0.00    -0.263 NA
ATOM     11  C   UNL     1       6.204  -2.849  26.889  0.00  0.00    +0.119 A 
ATOM     12  C   UNL     1       7.312  -3.452  26.266  0.00  0.00    +0.009 A 
ATOM     13  C   UNL     1       8.201  -2.803  25.341  0.00  0.00    +0.010 A 
ATOM     14  C   UNL     1       8.083  -1.449  24.936  0.00  0.00    +0.020 A 
ENDROOT
BRANCH   1  18
ATOM     15  C   UNL     1       8.365   3.198  22.695  0.00  0.00    +0.117 A 
ATOM     16  C   UNL     1       8.750   2.942  24.001  0.00  0.00    +0.046 A 
ATOM     17  C   UNL     1       8.944   1.623  24.420  0.00  0.00    +0.012 A 
ATOM     18  C   UNL     1       8.774   0.535  23.539  0.00  0.00    -0.016 A 
ATOM     19  C   UNL     1       8.410   0.837  22.212  0.00  0.00    +0.012 A 
ATOM     20  C   UNL     1       8.201   2.158  21.791  0.00  0.00    +0.046 A 
BRANCH  15  21
ATOM     21  O   UNL     1       8.151   4.496  22.339  0.00  0.00    -0.507 OA
ATOM     22  H   UNL     1       7.246   4.579  21.997  0.00  0.00    +0.292 HD
ENDBRANCH  15  21
ENDBRANCH   1  18
TORSDOF 2
ENDMDL
MODEL 8
REMARK VINA RESULT:      -6.8      2.634      2.976
REMARK  Name = 
REMARK  2 active torsions:
REMARK  status: ('A' for Active; 'I' for Inactive)
REMARK    1  A    between atoms: O_1  and  C_2
REMARK    2  A    between atoms: C_5  and  C_8
REMARK                            x       y       z     vdW  Elec       q    Type
REMARK                         _______ _______ _______ _____ _____    ______ ____
ROOT
ATOM      1  C   UNL     1       8.907  -2.121  24.572  0.00  0.00    +0.001 A 
ATOM      2  C   UNL     1       9.548  -3.351  24.525  0.00  0.00    +0.120 A 
ATOM      3  N   UNL     1       9.177  -4.452  25.227  0.00  0.00    -0.254 NA
ATOM      4  C   UNL     1       8.098  -4.367  26.019  0.00  0.00    +0.072 A 
ATOM      5  C   UNL     1       7.712  -5.500  26.716  0.00  0.00    +0.029 A 
ATOM      6  C   UNL     1       6.599  -5.505  27.559  0.00  0.00    +0.011 A 
ATOM      7  C   UNL     1       5.834  -4.349  27.725  0.00  0.00    -0.014 A 
ATOM      8  C   UNL     1       4.714  -4.352  28.567  0.00  0.00    +0.028 A 
ATOM      9  C   UNL     1       3.976  -3.189  28.704  0.00  0.00    +0.111 A 
ATOM     10  N   UNL     1       4.272  -2.043  28.069  0.00  0.00    -0.263 NA
ATOM     11  C   UNL     1       5.361  -2.065  27.261  0.00  0.00    +0.119 A 
ATOM     12  C   UNL     1       6.199  -3.173  27.036  0.00  0.00    +0.009 A 
ATOM     13  C   UNL     1       7.349  -3.184  26.173  0.00  0.00    +0.010 A 
ATOM     14  C   UNL     1       7.802  -2.063  25.432  0.00  0.00    +0.020 A 
ENDROOT
BRANCH   1  18
ATOM     15  C   UNL     1      10.069   1.292  22.222  0.00  0.00    +0.117 A 
ATOM     16  C   UNL     1      10.301   1.283  23.587  0.00  0.00    +0.046 A 
ATOM     17  C   UNL     1       9.928   0.169  24.345  0.00  0.00    +0.012 A 
ATOM     18  C   UNL     1       9.330  -0.963  23.753  0.00  0.00    -0.016 A 
ATOM     19  C   UNL     1       9.136  -0.927  22.358  0.00  0.00    +0.012 A 
ATOM     20  C   UNL     1       9.496   0.193  21.596  0.00  0.00    +0.046 A 
BRANCH  15  21
ATOM     21  O   UNL     1      10.414   2.412  21.527  0.00  0.00    -0.507 OA
ATOM     22  H   UNL     1      10.781   3.062  22.148  0.00  0.00    +0.292 HD
ENDBRANCH  15  21
ENDBRANCH   1  18
TORSDOF 2
ENDMDL
MODEL 9
REMARK VINA RESULT:      -6.8      3.730      7.360
REMARK  Name = 
REMARK  2 active torsions:
REMARK  status: ('A' for Active; 'I' for Inactive)
REMARK    1  A    between atoms: O_1  and  C_2
REMARK    2  A    between atoms: C_5  and  C_8
REMARK                            x       y       z     vdW  Elec       q    Type
REMARK                         _______ _______ _______ _____ _____    ______ ____
ROOT
ATOM      1  C   UNL     1       7.870  -3.270  25.365  0.00  0.00    +0.001 A 
ATOM      2  C   UNL     1       9.086  -3.792  24.946  0.00  0.00    +0.120 A 
ATOM      3  N   UNL     1       9.893  -3.235  24.008  0.00  0.00    -0.254 NA
ATOM      4  C   UNL     1       9.510  -2.079  23.445  0.00  0.00    +0.072 A 
ATOM      5  C   UNL     1      10.350  -1.505  22.505  0.00  0.00    +0.029 A 
ATOM      6  C   UNL     1      10.035  -0.301  21.871  0.00  0.00    +0.011 A 
ATOM      7  C   UNL     1       8.845   0.366  22.174  0.00  0.00    -0.014 A 
ATOM      8  C   UNL     1       8.528   1.576  21.543  0.00  0.00    +0.028 A 
ATOM      9  C   UNL     1       7.344   2.211  21.871  0.00  0.00    +0.111 A 
ATOM     10  N   UNL     1       6.468   1.732  22.770  0.00  0.00    -0.263 NA
ATOM     11  C   UNL     1       6.797   0.559  23.366  0.00  0.00    +0.119 A 
ATOM     12  C   UNL     1       7.962  -0.191  23.123  0.00  0.00    +0.009 A 
ATOM     13  C   UNL     1       8.301  -1.433  23.765  0.00  0.00    +0.010 A 
ATOM     14  C   UNL     1       7.491  -2.078  24.734  0.00  0.00    +0.020 A 
ENDROOT
BRANCH   1  18
ATOM     15  C   UNL     1       5.511  -5.040  28.499  0.00  0.00    +0.117 A 
ATOM     16  C   UNL     1       5.143  -3.816  27.965  0.00  0.00    +0.046 A 
ATOM     17  C   UNL     1       5.909  -3.248  26.942  0.00  0.00    +0.012 A 
ATOM     18  C   UNL     1       7.047  -3.898  26.423  0.00  0.00    -0.016 A 
ATOM     19  C   UNL     1       7.373  -5.154  26.972  0.00  0.00    +0.012 A 
ATOM     20  C   UNL     1       6.615  -5.721  28.006  0.00  0.00    +0.046 A 
BRANCH  15  21
ATOM     21  O   UNL     1       4.758  -5.539  29.519  0.00  0.00    -0.507 OA
ATOM     22  H   UNL     1       4.830  -6.508  29.513  0.00  0.00    +0.292 HD
ENDBRANCH  15  21
ENDBRANCH   1  18
TORSDOF 2
ENDMDL
