MODEL 1
REMARK VINA RESULT:      -6.0      0.000      0.000
REMARK  Name = 
REMARK  5 active torsions:
REMARK  status: ('A' for Active; 'I' for Inactive)
REMARK    1  A    between atoms: C_2  and  C_4
REMARK    2  A    between atoms: C_7  and  C_8
REMARK    3  A    between atoms: C_8  and  C_9
REMARK    4  A    between atoms: C_9  and  C_11
REMARK    5  A    between atoms: C_11  and  O_12
REMARK                            x       y       z     vdW  Elec       q    Type
REMARK                         _______ _______ _______ _____ _____    ______ ____
ROOT
ATOM      1  C   UNL     1       9.010  -3.685  25.467  0.00  0.00    +0.065 A 
ATOM      2  C   UNL     1       9.601  -3.278  24.269  0.00  0.00    +0.016 A 
ATOM      3  C   UNL     1       9.530  -1.940  23.870  0.00  0.00    +0.005 A 
ATOM      4  C   UNL     1       8.879  -0.986  24.669  0.00  0.00    -0.040 A 
ATOM      5  C   UNL     1       8.316  -1.399  25.887  0.00  0.00    +0.005 A 
ATOM      6  C   UNL     1       8.379  -2.741  26.284  0.00  0.00    +0.016 A 
ENDROOT
BRANCH   1  10
ATOM      7  N   UNL     1       8.177  -5.607  26.790  0.00  0.00    -0.247 N 
ATOM      8  H   UNL     1       7.307  -5.093  26.884  0.00  0.00    +0.288 HD
ATOM      9  H   UNL     1       8.012  -6.607  26.757  0.00  0.00    +0.288 HD
ATOM     10  C   UNL     1       9.039  -5.127  25.847  0.00  0.00    +0.308 C 
ATOM     11  N   UNL     1       9.866  -5.924  25.255  0.00  0.00    -0.099 NA
ATOM     12  H   UNL     1       9.784  -6.863  25.648  0.00  0.00    +0.363 HD
ENDBRANCH   1  10
BRANCH   4  13
ATOM     13  C   UNL     1       8.705   0.426  24.160  0.00  0.00    +0.121 C 
BRANCH  13  14
ATOM     14  C   UNL     1       9.916   1.083  23.549  0.00  0.00    +0.243 C 
ATOM     15  O   UNL     1      10.932   1.474  24.115  0.00  0.00    -0.285 OA
BRANCH  14  16
ATOM     16  C   UNL     1       9.843   1.286  22.035  0.00  0.00    +0.373 C 
ATOM     17  O   UNL     1       9.336   0.480  21.283  0.00  0.00    -0.242 OA
BRANCH  16  18
ATOM     18  O   UNL     1      10.398   2.458  21.679  0.00  0.00    -0.475 OA
ATOM     19  H   UNL     1      10.381   3.075  22.448  0.00  0.00    +0.295 HD
ENDBRANCH  16  18
ENDBRANCH  14  16
ENDBRANCH  13  14
ENDBRANCH   4  13
TORSDOF 5
ENDMDL
MODEL 2
REMARK VINA RESULT:      -5.8      4.643      6.292
REMARK  Name = 
REMARK  5 active torsions:
REMARK  status: ('A' for Active; 'I' for Inactive)
REMARK    1  A    between atoms: C_2  and  C_4
REMARK    2  A    between atoms: C_7  and  C_8
REMARK    3  A    between atoms: C_8  and  C_9
REMARK    4  A    between atoms: C_9  and  C_11
REMARK    5  A    between atoms: C_11  and  O_12
REMARK                            x       y       z     vdW  Elec       q    Type
REMARK                         _______ _______ _______ _____ _____    ______ ____
ROOT
ATOM      1  C   UNL     1       9.787   0.302  22.981  0.00  0.00    +0.065 A 
ATOM      2  C   UNL     1       9.764  -0.154  24.301  0.00  0.00    +0.016 A 
ATOM      3  C   UNL     1       9.361  -1.463  24.584  0.00  0.00    +0.005 A 
ATOM      4  C   UNL     1       8.990  -2.339  23.552  0.00  0.00    -0.040 A 
ATOM      5  C   UNL     1       9.048  -1.882  22.227  0.00  0.00    +0.005 A 
ATOM      6  C   UNL     1       9.444  -0.568  21.941  0.00  0.00    +0.016 A 
ENDROOT
BRANCH   1  10
ATOM      7  N   UNL     1      10.765   2.475  23.663  0.00  0.00    -0.247 N 
ATOM      8  H   UNL     1      11.302   1.953  24.348  0.00  0.00    +0.288 HD
ATOM      9  H   UNL     1      11.282   3.277  23.322  0.00  0.00    +0.288 HD
ATOM     10  C   UNL     1      10.157   1.719  22.701  0.00  0.00    +0.308 C 
ATOM     11  N   UNL     1       9.927   2.217  21.532  0.00  0.00    -0.099 NA
ATOM     12  H   UNL     1      10.207   3.200  21.512  0.00  0.00    +0.363 HD
ENDBRANCH   1  10
BRANCH   4  13
ATOM     13  C   UNL     1       8.439  -3.706  23.890  0.00  0.00    +0.121 C 
BRANCH  13  14
ATOM     14  C   UNL     1       9.130  -4.463  24.995  0.00  0.00    +0.243 C 
ATOM     15  O   UNL     1      10.254  -4.955  24.988  0.00  0.00    -0.285 OA
BRANCH  14  16
ATOM     16  C   UNL     1       8.305  -4.636  26.270  0.00  0.00    +0.373 C 
ATOM     17  O   UNL     1       7.680  -3.731  26.782  0.00  0.00    -0.242 OA
BRANCH  16  18
ATOM     18  O   UNL     1       8.368  -5.903  26.718  0.00  0.00    -0.475 OA
ATOM     19  H   UNL     1       9.311  -6.153  26.860  0.00  0.00    +0.295 HD
ENDBRANCH  16  18
ENDBRANCH  14  16
ENDBRANCH  13  14
ENDBRANCH   4  13
TORSDOF 5
ENDMDL
MODEL 3
REMARK VINA RESULT:      -5.5      4.733      6.455
REMARK  Name = 
REMARK  5 active torsions:
REMARK  status: ('A' for Active; 'I' for Inactive)
REMARK    1  A    between atoms: C_2  and  C_4
REMARK    2  A    between atoms: C_7  and  C_8
REMARK    3  A    between atoms: C_8  and  C_9
REMARK    4  A    between atoms: C_9  and  C_11
REMARK    5  A    between atoms: C_11  and  O_12
REMARK                            x       y       z     vdW  Elec       q    Type
REMARK                         _______ _______ _______ _____ _____    ______ ____
ROOT
ATOM      1  C   UNL     1      10.412   2.342  23.197  0.00  0.00    +0.065 A 
ATOM      2  C   UNL     1       9.954   1.770  22.008  0.00  0.00    +0.016 A 
ATOM      3  C   UNL     1       9.827   0.382  21.900  0.00  0.00    +0.005 A 
ATOM      4  C   UNL     1      10.141  -0.454  22.984  0.00  0.00    -0.040 A 
ATOM      5  C   UNL     1      10.569   0.132  24.185  0.00  0.00    +0.005 A 
ATOM      6  C   UNL     1      10.705   1.522  24.292  0.00  0.00    +0.016 A 
ENDROOT
BRANCH   1  10
ATOM      7  N   UNL     1      11.845   4.362  23.105  0.00  0.00    -0.247 N 
ATOM      8  H   UNL     1      12.483   3.813  22.538  0.00  0.00    +0.288 HD
ATOM      9  H   UNL     1      11.857   5.338  22.834  0.00  0.00    +0.288 HD
ATOM     10  C   UNL     1      10.603   3.819  23.274  0.00  0.00    +0.308 C 
ATOM     11  N   UNL     1       9.580   4.583  23.473  0.00  0.00    -0.099 NA
ATOM     12  H   UNL     1       9.882   5.557  23.532  0.00  0.00    +0.363 HD
ENDBRANCH   1  10
BRANCH   4  13
ATOM     13  C   UNL     1      10.116  -1.955  22.805  0.00  0.00    +0.121 C 
BRANCH  13  14
ATOM     14  C   UNL     1       8.850  -2.666  23.207  0.00  0.00    +0.243 C 
ATOM     15  O   UNL     1       7.782  -2.711  22.604  0.00  0.00    -0.285 OA
BRANCH  14  16
ATOM     16  C   UNL     1       8.924  -3.410  24.541  0.00  0.00    +0.373 C 
ATOM     17  O   UNL     1       8.118  -3.249  25.433  0.00  0.00    -0.242 OA
BRANCH  16  18
ATOM     18  O   UNL     1       9.975  -4.248  24.569  0.00  0.00    -0.475 OA
ATOM     19  H   UNL     1      10.329  -4.298  25.489  0.00  0.00    +0.295 HD
ENDBRANCH  16  18
ENDBRANCH  14  16
ENDBRANCH  13  14
ENDBRANCH   4  13
TORSDOF 5
ENDMDL
MODEL 4
REMARK VINA RESULT:      -5.5      4.898      6.631
REMARK  Name = 
REMARK  5 active torsions:
REMARK  status: ('A' for Active; 'I' for Inactive)
REMARK    1  A    between atoms: C_2  and  C_4
REMARK    2  A    between atoms: C_7  and  C_8
REMARK    3  A    between atoms: C_8  and  C_9
REMARK    4  A    between atoms: C_9  and  C_11
REMARK    5  A    between atoms: C_11  and  O_12
REMARK                            x       y       z     vdW  Elec       q    Type
REMARK                         _______ _______ _______ _____ _____    ______ ____
ROOT
ATOM      1  C   UNL     1       7.957   3.360  22.622  0.00  0.00    +0.065 A 
ATOM      2  C   UNL     1       8.491   3.426  23.911  0.00  0.00    +0.016 A 
ATOM      3  C   UNL     1       9.354   2.425  24.365  0.00  0.00    +0.005 A 
ATOM      4  C   UNL     1       9.708   1.351  23.533  0.00  0.00    -0.040 A 
ATOM      5  C   UNL     1       9.192   1.310  22.228  0.00  0.00    +0.005 A 
ATOM      6  C   UNL     1       8.320   2.309  21.775  0.00  0.00    +0.016 A 
ENDROOT
BRANCH   1  10
ATOM      7  N   UNL     1       5.643   4.176  22.269  0.00  0.00    -0.247 N 
ATOM      8  H   UNL     1       5.363   3.523  22.993  0.00  0.00    +0.288 HD
ATOM      9  H   UNL     1       5.064   5.007  22.278  0.00  0.00    +0.288 HD
ATOM     10  C   UNL     1       6.987   4.402  22.176  0.00  0.00    +0.308 C 
ATOM     11  N   UNL     1       7.427   5.531  21.728  0.00  0.00    -0.099 NA
ATOM     12  H   UNL     1       6.644   6.118  21.436  0.00  0.00    +0.363 HD
ENDBRANCH   1  10
BRANCH   4  13
ATOM     13  C   UNL     1      10.541   0.217  24.085  0.00  0.00    +0.121 C 
BRANCH  13  14
ATOM     14  C   UNL     1       9.805  -1.036  24.483  0.00  0.00    +0.243 C 
ATOM     15  O   UNL     1       8.989  -1.181  25.388  0.00  0.00    -0.285 OA
BRANCH  14  16
ATOM     16  C   UNL     1      10.139  -2.272  23.648  0.00  0.00    +0.373 C 
ATOM     17  O   UNL     1      10.019  -3.405  24.066  0.00  0.00    -0.242 OA
BRANCH  16  18
ATOM     18  O   UNL     1      10.560  -1.925  22.419  0.00  0.00    -0.475 OA
ATOM     19  H   UNL     1      10.790  -2.739  21.910  0.00  0.00    +0.295 HD
ENDBRANCH  16  18
ENDBRANCH  14  16
ENDBRANCH  13  14
ENDBRANCH   4  13
TORSDOF 5
ENDMDL
MODEL 5
REMARK VINA RESULT:      -5.4      4.696      6.416
REMARK  Name = 
REMARK  5 active torsions:
REMARK  status: ('A' for Active; 'I' for Inactive)
REMARK    1  A    between atoms: C_2  and  C_4
REMARK    2  A    between atoms: C_7  and  C_8
REMARK    3  A    between atoms: C_8  and  C_9
REMARK    4  A    between atoms: C_9  and  C_11
REMARK    5  A    between atoms: C_11  and  O_12
REMARK                            x       y       z     vdW  Elec       q    Type
REMARK                         _______ _______ _______ _____ _____    ______ ____
ROOT
ATOM      1  C   UNL     1       9.749   1.632  23.147  0.00  0.00    +0.065 A 
ATOM      2  C   UNL     1       9.950   1.112  24.427  0.00  0.00    +0.016 A 
ATOM      3  C   UNL     1      10.099  -0.266  24.610  0.00  0.00    +0.005 A 
ATOM      4  C   UNL     1      10.065  -1.143  23.514  0.00  0.00    -0.040 A 
ATOM      5  C   UNL     1       9.895  -0.608  22.228  0.00  0.00    +0.005 A 
ATOM      6  C   UNL     1       9.738   0.771  22.044  0.00  0.00    +0.016 A 
ENDROOT
BRANCH   1  10
ATOM      7  N   UNL     1       8.408   3.554  22.341  0.00  0.00    -0.247 N 
ATOM      8  H   UNL     1       7.603   2.938  22.385  0.00  0.00    +0.288 HD
ATOM      9  H   UNL     1       8.152   4.511  22.551  0.00  0.00    +0.288 HD
ATOM     10  C   UNL     1       9.528   3.097  22.976  0.00  0.00    +0.308 C 
ATOM     11  N   UNL     1      10.388   3.931  23.460  0.00  0.00    -0.099 NA
ATOM     12  H   UNL     1      10.109   4.887  23.232  0.00  0.00    +0.363 HD
ENDBRANCH   1  10
BRANCH   4  13
ATOM     13  C   UNL     1      10.102  -2.636  23.748  0.00  0.00    +0.121 C 
BRANCH  13  14
ATOM     14  C   UNL     1       8.958  -3.231  24.527  0.00  0.00    +0.243 C 
ATOM     15  O   UNL     1       7.773  -2.915  24.494  0.00  0.00    -0.285 OA
BRANCH  14  16
ATOM     16  C   UNL     1       9.347  -4.363  25.479  0.00  0.00    +0.373 C 
ATOM     17  O   UNL     1       9.022  -4.385  26.648  0.00  0.00    -0.242 OA
BRANCH  16  18
ATOM     18  O   UNL     1      10.068  -5.303  24.843  0.00  0.00    -0.475 OA
ATOM     19  H   UNL     1       9.635  -6.182  24.959  0.00  0.00    +0.295 HD
ENDBRANCH  16  18
ENDBRANCH  14  16
ENDBRANCH  13  14
ENDBRANCH   4  13
TORSDOF 5
ENDMDL
MODEL 6
REMARK VINA RESULT:      -5.4      1.170      2.064
REMARK  Name = 
REMARK  5 active torsions:
REMARK  status: ('A' for Active; 'I' for Inactive)
REMARK    1  A    between atoms: C_2  and  C_4
REMARK    2  A    between atoms: C_7  and  C_8
REMARK    3  A    between atoms: C_8  and  C_9
REMARK    4  A    between atoms: C_9  and  C_11
REMARK    5  A    between atoms: C_11  and  O_12
REMARK                            x       y       z     vdW  Elec       q    Type
REMARK                         _______ _______ _______ _____ _____    ______ ____
ROOT
ATOM      1  C   UNL     1       8.313  -3.728  25.579  0.00  0.00    +0.065 A 
ATOM      2  C   UNL     1       7.992  -2.452  26.048  0.00  0.00    +0.016 A 
ATOM      3  C   UNL     1       8.631  -1.328  25.516  0.00  0.00    +0.005 A 
ATOM      4  C   UNL     1       9.589  -1.461  24.498  0.00  0.00    -0.040 A 
ATOM      5  C   UNL     1       9.881  -2.744  24.012  0.00  0.00    +0.005 A 
ATOM      6  C   UNL     1       9.248  -3.872  24.548  0.00  0.00    +0.016 A 
ENDROOT
BRANCH   1  10
ATOM      7  N   UNL     1       6.465  -5.370  25.742  0.00  0.00    -0.247 N 
ATOM      8  H   UNL     1       6.262  -5.153  24.771  0.00  0.00    +0.288 HD
ATOM      9  H   UNL     1       6.253  -6.338  25.955  0.00  0.00    +0.288 HD
ATOM     10  C   UNL     1       7.670  -4.921  26.201  0.00  0.00    +0.308 C 
ATOM     11  N   UNL     1       8.276  -5.545  27.156  0.00  0.00    -0.099 NA
ATOM     12  H   UNL     1       7.694  -6.314  27.492  0.00  0.00    +0.363 HD
ENDBRANCH   1  10
BRANCH   4  13
ATOM     13  C   UNL     1      10.357  -0.246  24.027  0.00  0.00    +0.121 C 
BRANCH  13  14
ATOM     14  C   UNL     1      10.040   0.264  22.645  0.00  0.00    +0.243 C 
ATOM     15  O   UNL     1       9.773  -0.388  21.640  0.00  0.00    -0.285 OA
BRANCH  14  16
ATOM     16  C   UNL     1      10.072   1.785  22.497  0.00  0.00    +0.373 C 
ATOM     17  O   UNL     1      10.613   2.517  23.299  0.00  0.00    -0.242 OA
BRANCH  16  18
ATOM     18  O   UNL     1       9.442   2.174  21.374  0.00  0.00    -0.475 OA
ATOM     19  H   UNL     1       8.657   2.722  21.613  0.00  0.00    +0.295 HD
ENDBRANCH  16  18
ENDBRANCH  14  16
ENDBRANCH  13  14
ENDBRANCH   4  13
TORSDOF 5
ENDMDL
MODEL 7
REMARK VINA RESULT:      -5.4      4.639      6.105
REMARK  Name = 
REMARK  5 active torsions:
REMARK  status: ('A' for Active; 'I' for Inactive)
REMARK    1  A    between atoms: C_2  and  C_4
REMARK    2  A    between atoms: C_7  and  C_8
REMARK    3  A    between atoms: C_8  and  C_9
REMARK    4  A    between atoms: C_9  and  C_11
REMARK    5  A    between atoms: C_11  and  O_12
REMARK                            x       y       z     vdW  Elec       q    Type
REMARK                         _______ _______ _______ _____ _____    ______ ____
ROOT
ATOM      1  C   UNL     1       9.791   0.208  22.944  0.00  0.00    +0.065 A 
ATOM      2  C   UNL     1       9.844  -0.393  24.203  0.00  0.00    +0.016 A 
ATOM      3  C   UNL     1       9.387  -1.703  24.376  0.00  0.00    +0.005 A 
ATOM      4  C   UNL     1       8.884  -2.437  23.289  0.00  0.00    -0.040 A 
ATOM      5  C   UNL     1       8.865  -1.835  22.022  0.00  0.00    +0.005 A 
ATOM      6  C   UNL     1       9.314  -0.520  21.849  0.00  0.00    +0.016 A 
ENDROOT
BRANCH   1  10
ATOM      7  N   UNL     1      10.068   2.267  21.593  0.00  0.00    -0.247 N 
ATOM      8  H   UNL     1       9.317   1.916  21.008  0.00  0.00    +0.288 HD
ATOM      9  H   UNL     1      10.055   3.279  21.641  0.00  0.00    +0.288 HD
ATOM     10  C   UNL     1      10.222   1.627  22.790  0.00  0.00    +0.308 C 
ATOM     11  N   UNL     1      10.714   2.256  23.805  0.00  0.00    -0.099 NA
ATOM     12  H   UNL     1      10.988   3.201  23.529  0.00  0.00    +0.363 HD
ENDBRANCH   1  10
BRANCH   4  13
ATOM     13  C   UNL     1       8.281  -3.803  23.522  0.00  0.00    +0.121 C 
BRANCH  13  14
ATOM     14  C   UNL     1       6.850  -3.997  23.093  0.00  0.00    +0.243 C 
ATOM     15  O   UNL     1       5.832  -3.584  23.640  0.00  0.00    -0.285 OA
BRANCH  14  16
ATOM     16  C   UNL     1       6.665  -4.821  21.819  0.00  0.00    +0.373 C 
ATOM     17  O   UNL     1       7.259  -5.858  21.610  0.00  0.00    -0.242 OA
BRANCH  16  18
ATOM     18  O   UNL     1       5.766  -4.247  20.998  0.00  0.00    -0.475 OA
ATOM     19  H   UNL     1       5.331  -3.495  21.465  0.00  0.00    +0.295 HD
ENDBRANCH  16  18
ENDBRANCH  14  16
ENDBRANCH  13  14
ENDBRANCH   4  13
TORSDOF 5
ENDMDL
MODEL 8
REMARK VINA RESULT:      -5.4      4.950      5.920
REMARK  Name = 
REMARK  5 active torsions:
REMARK  status: ('A' for Active; 'I' for Inactive)
REMARK    1  A    between atoms: C_2  and  C_4
REMARK    2  A    between atoms: C_7  and  C_8
REMARK    3  A    between atoms: C_8  and  C_9
REMARK    4  A    between atoms: C_9  and  C_11
REMARK    5  A    between atoms: C_11  and  O_12
REMARK                            x       y       z     vdW  Elec       q    Type
REMARK                         _______ _______ _______ _____ _____    ______ ____
ROOT
ATOM      1  C   UNL     1       6.212  -5.759  27.182  0.00  0.00    +0.065 A 
ATOM      2  C   UNL     1       7.463  -5.196  26.923  0.00  0.00    +0.016 A 
ATOM      3  C   UNL     1       7.783  -4.760  25.634  0.00  0.00    +0.005 A 
ATOM      4  C   UNL     1       6.852  -4.866  24.588  0.00  0.00    -0.040 A 
ATOM      5  C   UNL     1       5.586  -5.404  24.866  0.00  0.00    +0.005 A 
ATOM      6  C   UNL     1       5.266  -5.849  26.155  0.00  0.00    +0.016 A 
ENDROOT
BRANCH   1  10
ATOM      7  N   UNL     1       5.431  -7.547  28.710  0.00  0.00    -0.247 N 
ATOM      8  H   UNL     1       5.688  -8.205  27.981  0.00  0.00    +0.288 HD
ATOM      9  H   UNL     1       5.567  -7.947  29.631  0.00  0.00    +0.288 HD
ATOM     10  C   UNL     1       5.909  -6.279  28.547  0.00  0.00    +0.308 C 
ATOM     11  N   UNL     1       6.132  -5.530  29.576  0.00  0.00    -0.099 NA
ATOM     12  H   UNL     1       5.845  -6.016  30.427  0.00  0.00    +0.363 HD
ENDBRANCH   1  10
BRANCH   4  13
ATOM     13  C   UNL     1       7.263  -4.505  23.179  0.00  0.00    +0.121 C 
BRANCH  13  14
ATOM     14  C   UNL     1       6.173  -4.481  22.138  0.00  0.00    +0.243 C 
ATOM     15  O   UNL     1       5.311  -3.625  21.963  0.00  0.00    -0.285 OA
BRANCH  14  16
ATOM     16  C   UNL     1       6.150  -5.689  21.202  0.00  0.00    +0.373 C 
ATOM     17  O   UNL     1       5.961  -5.596  20.007  0.00  0.00    -0.242 OA
BRANCH  16  18
ATOM     18  O   UNL     1       6.375  -6.829  21.879  0.00  0.00    -0.475 OA
ATOM     19  H   UNL     1       7.266  -7.180  21.641  0.00  0.00    +0.295 HD
ENDBRANCH  16  18
ENDBRANCH  14  16
ENDBRANCH  13  14
ENDBRANCH   4  13
TORSDOF 5
ENDMDL
MODEL 9
REMARK VINA RESULT:      -5.3      4.679      6.285
REMARK  Name = 
REMARK  5 active torsions:
REMARK  status: ('A' for Active; 'I' for Inactive)
REMARK    1  A    between atoms: C_2  and  C_4
REMARK    2  A    between atoms: C_7  and  C_8
REMARK    3  A    between atoms: C_8  and  C_9
REMARK    4  A    between atoms: C_9  and  C_11
REMARK    5  A    between atoms: C_11  and  O_12
REMARK                            x       y       z     vdW  Elec       q    Type
REMARK                         _______ _______ _______ _____ _____    ______ ____
ROOT
ATOM      1  C   UNL     1      10.256   2.045  23.227  0.00  0.00    +0.065 A 
ATOM      2  C   UNL     1      10.546   1.360  24.409  0.00  0.00    +0.016 A 
ATOM      3  C   UNL     1      10.504  -0.037  24.439  0.00  0.00    +0.005 A 
ATOM      4  C   UNL     1      10.187  -0.770  23.284  0.00  0.00    -0.040 A 
ATOM      5  C   UNL     1       9.929  -0.074  22.094  0.00  0.00    +0.005 A 
ATOM      6  C   UNL     1       9.962   1.326  22.064  0.00  0.00    +0.016 A 
ENDROOT
BRANCH   1  10
ATOM      7  N   UNL     1      11.414   4.236  23.194  0.00  0.00    -0.247 N 
ATOM      8  H   UNL     1      12.194   3.753  22.760  0.00  0.00    +0.288 HD
ATOM      9  H   UNL     1      11.340   5.190  22.860  0.00  0.00    +0.288 HD
ATOM     10  C   UNL     1      10.241   3.536  23.227  0.00  0.00    +0.308 C 
ATOM     11  N   UNL     1       9.111   4.161  23.229  0.00  0.00    -0.099 NA
ATOM     12  H   UNL     1       9.272   5.170  23.261  0.00  0.00    +0.363 HD
ENDBRANCH   1  10
BRANCH   4  13
ATOM     13  C   UNL     1      10.026  -2.271  23.370  0.00  0.00    +0.121 C 
BRANCH  13  14
ATOM     14  C   UNL     1       8.732  -2.784  23.947  0.00  0.00    +0.243 C 
ATOM     15  O   UNL     1       8.356  -2.748  25.115  0.00  0.00    -0.285 OA
BRANCH  14  16
ATOM     16  C   UNL     1       7.788  -3.434  22.936  0.00  0.00    +0.373 C 
ATOM     17  O   UNL     1       7.238  -2.814  22.050  0.00  0.00    -0.242 OA
BRANCH  16  18
ATOM     18  O   UNL     1       7.674  -4.755  23.161  0.00  0.00    -0.475 OA
ATOM     19  H   UNL     1       7.178  -5.172  22.418  0.00  0.00    +0.295 HD
ENDBRANCH  16  18
ENDBRANCH  14  16
ENDBRANCH  13  14
ENDBRANCH   4  13
TORSDOF 5
ENDMDL
