MODEL 1
REMARK VINA RESULT:      -6.8      0.000      0.000
REMARK  Name = 
REMARK  3 active torsions:
REMARK  status: ('A' for Active; 'I' for Inactive)
REMARK    1  A    between atoms: C_2  and  C_4
REMARK    2  A    between atoms: C_5  and  S_14
REMARK    3  A    between atoms: S_14  and  N_17
REMARK                            x       y       z     vdW  Elec       q    Type
REMARK                         _______ _______ _______ _____ _____    ______ ____
ROOT
ATOM      1  C   UNL     1       7.990  -3.459  25.995  0.00  0.00    +0.129 A 
ATOM      2  N   UNL     1       8.523  -2.340  26.591  0.00  0.00    -0.349 N 
ATOM      3  H   UNL     1       8.625  -2.240  27.594  0.00  0.00    +0.166 HD
ATOM      4  C   UNL     1       8.830  -1.376  25.663  0.00  0.00    +0.049 A 
ATOM      5  C   UNL     1       8.605  -1.930  24.400  0.00  0.00    +0.028 A 
ATOM      6  C   UNL     1       8.929  -1.138  23.276  0.00  0.00    +0.027 A 
ATOM      7  C   UNL     1       9.400   0.167  23.456  0.00  0.00    +0.019 A 
ATOM      8  C   UNL     1       9.565   0.702  24.727  0.00  0.00    +0.017 A 
ATOM      9 BR   UNL     1       9.803   1.220  21.937  0.00  0.00    -0.050 Br
ATOM     10  C   UNL     1       9.295  -0.069  25.858  0.00  0.00    +0.027 A 
ATOM     11  C   UNL     1       8.052  -3.232  24.622  0.00  0.00    +0.143 A 
ENDROOT
BRANCH   1  15
ATOM     12  N   UNL     1       8.258  -5.712  26.762  0.00  0.00    -0.324 N 
ATOM     13  H   UNL     1       8.986  -5.886  26.073  0.00  0.00    +0.145 HD
ATOM     14  H   UNL     1       7.895  -6.507  27.268  0.00  0.00    +0.145 HD
ATOM     15  C   UNL     1       7.537  -4.560  26.804  0.00  0.00    +0.260 C 
ATOM     16  O   UNL     1       6.498  -4.517  27.457  0.00  0.00    -0.269 OA
ENDBRANCH   1  15
BRANCH  11  17
ATOM     17  S   UNL     1       7.515  -4.346  23.412  0.00  0.00    +0.064 S 
ATOM     18  O   UNL     1       8.393  -5.481  23.628  0.00  0.00    -0.153 OA
ATOM     19  O   UNL     1       7.563  -3.566  22.194  0.00  0.00    -0.153 OA
BRANCH  17  20
ATOM     20  N   UNL     1       5.937  -4.815  23.688  0.00  0.00    -0.176 NA
ATOM     21  C   UNL     1       5.404  -6.046  23.092  0.00  0.00    +0.109 C 
ATOM     22  C   UNL     1       3.890  -5.852  23.062  0.00  0.00    +0.018 C 
ATOM     23  C   UNL     1       3.612  -4.624  23.913  0.00  0.00    +0.018 C 
ATOM     24  C   UNL     1       4.886  -3.801  23.821  0.00  0.00    +0.109 C 
ENDBRANCH  17  20
ENDBRANCH  11  17
TORSDOF 3
ENDMDL
MODEL 2
REMARK VINA RESULT:      -6.5      1.846      2.524
REMARK  Name = 
REMARK  3 active torsions:
REMARK  status: ('A' for Active; 'I' for Inactive)
REMARK    1  A    between atoms: C_2  and  C_4
REMARK    2  A    between atoms: C_5  and  S_14
REMARK    3  A    between atoms: S_14  and  N_17
REMARK                            x       y       z     vdW  Elec       q    Type
REMARK                         _______ _______ _______ _____ _____    ______ ____
ROOT
ATOM      1  C   UNL     1       8.967  -3.445  24.528  0.00  0.00    +0.129 A 
ATOM      2  N   UNL     1      10.014  -2.803  23.909  0.00  0.00    -0.349 N 
ATOM      3  H   UNL     1      10.950  -3.185  23.861  0.00  0.00    +0.166 HD
ATOM      4  C   UNL     1       9.636  -1.571  23.434  0.00  0.00    +0.049 A 
ATOM      5  C   UNL     1       8.258  -1.453  23.640  0.00  0.00    +0.028 A 
ATOM      6  C   UNL     1       7.627  -0.285  23.156  0.00  0.00    +0.027 A 
ATOM      7  C   UNL     1       8.390   0.719  22.551  0.00  0.00    +0.019 A 
ATOM      8  C   UNL     1       9.766   0.588  22.407  0.00  0.00    +0.017 A 
ATOM      9 BR   UNL     1       7.528   2.286  21.933  0.00  0.00    -0.050 Br
ATOM     10  C   UNL     1      10.413  -0.571  22.835  0.00  0.00    +0.027 A 
ATOM     11  C   UNL     1       7.853  -2.627  24.352  0.00  0.00    +0.143 A 
ENDROOT
BRANCH   1  15
ATOM     12  N   UNL     1       9.221  -4.760  26.514  0.00  0.00    -0.324 N 
ATOM     13  H   UNL     1       9.284  -3.924  27.089  0.00  0.00    +0.145 HD
ATOM     14  H   UNL     1       9.446  -5.644  26.948  0.00  0.00    +0.145 HD
ATOM     15  C   UNL     1       9.176  -4.723  25.155  0.00  0.00    +0.260 C 
ATOM     16  O   UNL     1       9.389  -5.748  24.512  0.00  0.00    -0.269 OA
ENDBRANCH   1  15
BRANCH  11  17
ATOM     17  S   UNL     1       6.264  -2.985  24.935  0.00  0.00    +0.064 S 
ATOM     18  O   UNL     1       5.504  -1.838  24.474  0.00  0.00    -0.153 OA
ATOM     19  O   UNL     1       6.473  -3.246  26.343  0.00  0.00    -0.153 OA
BRANCH  17  20
ATOM     20  N   UNL     1       5.660  -4.365  24.216  0.00  0.00    -0.176 NA
ATOM     21  C   UNL     1       4.616  -4.281  23.188  0.00  0.00    +0.109 C 
ATOM     22  C   UNL     1       3.934  -5.648  23.198  0.00  0.00    +0.018 C 
ATOM     23  C   UNL     1       4.821  -6.547  24.045  0.00  0.00    +0.018 C 
ATOM     24  C   UNL     1       5.524  -5.597  25.000  0.00  0.00    +0.109 C 
ENDBRANCH  17  20
ENDBRANCH  11  17
TORSDOF 3
ENDMDL
MODEL 3
REMARK VINA RESULT:      -6.5      1.919      2.521
REMARK  Name = 
REMARK  3 active torsions:
REMARK  status: ('A' for Active; 'I' for Inactive)
REMARK    1  A    between atoms: C_2  and  C_4
REMARK    2  A    between atoms: C_5  and  S_14
REMARK    3  A    between atoms: S_14  and  N_17
REMARK                            x       y       z     vdW  Elec       q    Type
REMARK                         _______ _______ _______ _____ _____    ______ ____
ROOT
ATOM      1  C   UNL     1       9.027  -3.349  24.501  0.00  0.00    +0.129 A 
ATOM      2  N   UNL     1      10.107  -2.548  24.215  0.00  0.00    -0.349 N 
ATOM      3  H   UNL     1      11.065  -2.824  24.392  0.00  0.00    +0.166 HD
ATOM      4  C   UNL     1       9.710  -1.328  23.727  0.00  0.00    +0.049 A 
ATOM      5  C   UNL     1       8.322  -1.375  23.572  0.00  0.00    +0.028 A 
ATOM      6  C   UNL     1       7.693  -0.243  23.006  0.00  0.00    +0.027 A 
ATOM      7  C   UNL     1       8.453   0.885  22.679  0.00  0.00    +0.019 A 
ATOM      8  C   UNL     1       9.825   0.914  22.893  0.00  0.00    +0.017 A 
ATOM      9 BR   UNL     1       7.587   2.399  21.946  0.00  0.00    -0.050 Br
ATOM     10  C   UNL     1      10.483  -0.203  23.410  0.00  0.00    +0.027 A 
ATOM     11  C   UNL     1       7.900  -2.643  24.087  0.00  0.00    +0.143 A 
ENDROOT
BRANCH   1  15
ATOM     12  N   UNL     1       9.254  -4.730  26.446  0.00  0.00    -0.324 N 
ATOM     13  H   UNL     1       9.307  -3.913  27.049  0.00  0.00    +0.145 HD
ATOM     14  H   UNL     1       9.473  -5.627  26.854  0.00  0.00    +0.145 HD
ATOM     15  C   UNL     1       9.228  -4.648  25.088  0.00  0.00    +0.260 C 
ATOM     16  O   UNL     1       9.451  -5.651  24.415  0.00  0.00    -0.269 OA
ENDBRANCH   1  15
BRANCH  11  17
ATOM     17  S   UNL     1       6.273  -3.216  24.212  0.00  0.00    +0.064 S 
ATOM     18  O   UNL     1       5.504  -2.027  23.894  0.00  0.00    -0.153 OA
ATOM     19  O   UNL     1       6.231  -3.822  25.525  0.00  0.00    -0.153 OA
BRANCH  17  20
ATOM     20  N   UNL     1       5.962  -4.390  23.067  0.00  0.00    -0.176 NA
ATOM     21  C   UNL     1       5.885  -5.806  23.446  0.00  0.00    +0.109 C 
ATOM     22  C   UNL     1       6.171  -6.580  22.161  0.00  0.00    +0.018 C 
ATOM     23  C   UNL     1       6.116  -5.555  21.039  0.00  0.00    +0.018 C 
ATOM     24  C   UNL     1       6.487  -4.241  21.706  0.00  0.00    +0.109 C 
ENDBRANCH  17  20
ENDBRANCH  11  17
TORSDOF 3
ENDMDL
MODEL 4
REMARK VINA RESULT:      -6.5      3.311      6.126
REMARK  Name = 
REMARK  3 active torsions:
REMARK  status: ('A' for Active; 'I' for Inactive)
REMARK    1  A    between atoms: C_2  and  C_4
REMARK    2  A    between atoms: C_5  and  S_14
REMARK    3  A    between atoms: S_14  and  N_17
REMARK                            x       y       z     vdW  Elec       q    Type
REMARK                         _______ _______ _______ _____ _____    ______ ____
ROOT
ATOM      1  C   UNL     1       6.763  -5.163  23.854  0.00  0.00    +0.129 A 
ATOM      2  N   UNL     1       5.635  -5.885  24.163  0.00  0.00    -0.349 N 
ATOM      3  H   UNL     1       4.984  -6.225  23.466  0.00  0.00    +0.166 HD
ATOM      4  C   UNL     1       5.485  -6.022  25.522  0.00  0.00    +0.049 A 
ATOM      5  C   UNL     1       6.623  -5.474  26.121  0.00  0.00    +0.028 A 
ATOM      6  C   UNL     1       6.726  -5.571  27.527  0.00  0.00    +0.027 A 
ATOM      7  C   UNL     1       5.685  -6.146  28.264  0.00  0.00    +0.019 A 
ATOM      8  C   UNL     1       4.546  -6.636  27.637  0.00  0.00    +0.017 A 
ATOM      9 BR   UNL     1       5.833  -6.242  30.148  0.00  0.00    -0.050 Br
ATOM     10  C   UNL     1       4.433  -6.595  26.247  0.00  0.00    +0.027 A 
ATOM     11  C   UNL     1       7.408  -4.913  25.063  0.00  0.00    +0.143 A 
ENDROOT
BRANCH   1  15
ATOM     12  N   UNL     1       6.916  -3.558  22.082  0.00  0.00    -0.324 N 
ATOM     13  H   UNL     1       6.450  -2.853  22.648  0.00  0.00    +0.145 HD
ATOM     14  H   UNL     1       7.050  -3.355  21.102  0.00  0.00    +0.145 HD
ATOM     15  C   UNL     1       7.064  -4.849  22.481  0.00  0.00    +0.260 C 
ATOM     16  O   UNL     1       7.368  -5.708  21.658  0.00  0.00    -0.269 OA
ENDBRANCH   1  15
BRANCH  11  17
ATOM     17  S   UNL     1       8.894  -4.044  25.230  0.00  0.00    +0.064 S 
ATOM     18  O   UNL     1       9.857  -4.972  24.667  0.00  0.00    -0.153 OA
ATOM     19  O   UNL     1       8.914  -3.679  26.630  0.00  0.00    -0.153 OA
BRANCH  17  20
ATOM     20  N   UNL     1       8.878  -2.650  24.311  0.00  0.00    -0.176 NA
ATOM     21  C   UNL     1      10.038  -2.275  23.494  0.00  0.00    +0.109 C 
ATOM     22  C   UNL     1       9.914  -0.767  23.291  0.00  0.00    +0.018 C 
ATOM     23  C   UNL     1       8.519  -0.397  23.771  0.00  0.00    +0.018 C 
ATOM     24  C   UNL     1       8.179  -1.459  24.804  0.00  0.00    +0.109 C 
ENDBRANCH  17  20
ENDBRANCH  11  17
TORSDOF 3
ENDMDL
MODEL 5
REMARK VINA RESULT:      -6.4      2.211      2.845
REMARK  Name = 
REMARK  3 active torsions:
REMARK  status: ('A' for Active; 'I' for Inactive)
REMARK    1  A    between atoms: C_2  and  C_4
REMARK    2  A    between atoms: C_5  and  S_14
REMARK    3  A    between atoms: S_14  and  N_17
REMARK                            x       y       z     vdW  Elec       q    Type
REMARK                         _______ _______ _______ _____ _____    ______ ____
ROOT
ATOM      1  C   UNL     1       8.994  -3.475  24.513  0.00  0.00    +0.129 A 
ATOM      2  N   UNL     1      10.051  -2.797  23.951  0.00  0.00    -0.349 N 
ATOM      3  H   UNL     1      10.998  -3.154  23.943  0.00  0.00    +0.166 HD
ATOM      4  C   UNL     1       9.661  -1.571  23.473  0.00  0.00    +0.049 A 
ATOM      5  C   UNL     1       8.273  -1.492  23.615  0.00  0.00    +0.028 A 
ATOM      6  C   UNL     1       7.633  -0.336  23.115  0.00  0.00    +0.027 A 
ATOM      7  C   UNL     1       8.396   0.696  22.558  0.00  0.00    +0.019 A 
ATOM      8  C   UNL     1       9.780   0.604  22.477  0.00  0.00    +0.017 A 
ATOM      9 BR   UNL     1       7.522   2.247  21.917  0.00  0.00    -0.050 Br
ATOM     10  C   UNL     1      10.438  -0.543  22.923  0.00  0.00    +0.027 A 
ATOM     11  C   UNL     1       7.867  -2.686  24.294  0.00  0.00    +0.143 A 
ENDROOT
BRANCH   1  15
ATOM     12  N   UNL     1       9.378  -4.781  26.484  0.00  0.00    -0.324 N 
ATOM     13  H   UNL     1       9.528  -3.943  27.040  0.00  0.00    +0.145 HD
ATOM     14  H   UNL     1       9.606  -5.669  26.908  0.00  0.00    +0.145 HD
ATOM     15  C   UNL     1       9.208  -4.755  25.135  0.00  0.00    +0.260 C 
ATOM     16  O   UNL     1       9.318  -5.794  24.489  0.00  0.00    -0.269 OA
ENDBRANCH   1  15
BRANCH  11  17
ATOM     17  S   UNL     1       6.263  -3.093  24.797  0.00  0.00    +0.064 S 
ATOM     18  O   UNL     1       5.665  -3.564  23.562  0.00  0.00    -0.153 OA
ATOM     19  O   UNL     1       5.802  -1.890  25.457  0.00  0.00    -0.153 OA
BRANCH  17  20
ATOM     20  N   UNL     1       6.282  -4.340  25.906  0.00  0.00    -0.176 NA
ATOM     21  C   UNL     1       5.754  -5.664  25.556  0.00  0.00    +0.109 C 
ATOM     22  C   UNL     1       5.403  -6.320  26.890  0.00  0.00    +0.018 C 
ATOM     23  C   UNL     1       6.021  -5.436  27.962  0.00  0.00    +0.018 C 
ATOM     24  C   UNL     1       6.077  -4.054  27.330  0.00  0.00    +0.109 C 
ENDBRANCH  17  20
ENDBRANCH  11  17
TORSDOF 3
ENDMDL
MODEL 6
REMARK VINA RESULT:      -6.3      3.114      5.727
REMARK  Name = 
REMARK  3 active torsions:
REMARK  status: ('A' for Active; 'I' for Inactive)
REMARK    1  A    between atoms: C_2  and  C_4
REMARK    2  A    between atoms: C_5  and  S_14
REMARK    3  A    between atoms: S_14  and  N_17
REMARK                            x       y       z     vdW  Elec       q    Type
REMARK                         _______ _______ _______ _____ _____    ______ ____
ROOT
ATOM      1  C   UNL     1       7.257  -5.350  25.649  0.00  0.00    +0.129 A 
ATOM      2  N   UNL     1       6.377  -5.990  26.490  0.00  0.00    -0.349 N 
ATOM      3  H   UNL     1       6.610  -6.260  27.438  0.00  0.00    +0.166 HD
ATOM      4  C   UNL     1       5.189  -6.264  25.857  0.00  0.00    +0.049 A 
ATOM      5  C   UNL     1       5.247  -5.671  24.593  0.00  0.00    +0.028 A 
ATOM      6  C   UNL     1       4.094  -5.758  23.781  0.00  0.00    +0.027 A 
ATOM      7  C   UNL     1       2.975  -6.466  24.234  0.00  0.00    +0.019 A 
ATOM      8  C   UNL     1       2.972  -7.084  25.479  0.00  0.00    +0.017 A 
ATOM      9 BR   UNL     1       1.450  -6.591  23.121  0.00  0.00    -0.050 Br
ATOM     10  C   UNL     1       4.079  -6.980  26.321  0.00  0.00    +0.027 A 
ATOM     11  C   UNL     1       6.563  -5.121  24.463  0.00  0.00    +0.143 A 
ENDROOT
BRANCH   1  15
ATOM     12  N   UNL     1       9.617  -5.758  25.583  0.00  0.00    -0.324 N 
ATOM     13  H   UNL     1       9.480  -6.603  25.033  0.00  0.00    +0.145 HD
ATOM     14  H   UNL     1      10.539  -5.590  25.960  0.00  0.00    +0.145 HD
ATOM     15  C   UNL     1       8.587  -5.036  26.102  0.00  0.00    +0.260 C 
ATOM     16  O   UNL     1       8.808  -4.208  26.981  0.00  0.00    -0.269 OA
ENDBRANCH   1  15
BRANCH  11  17
ATOM     17  S   UNL     1       7.218  -4.328  23.072  0.00  0.00    +0.064 S 
ATOM     18  O   UNL     1       6.039  -4.127  22.250  0.00  0.00    -0.153 OA
ATOM     19  O   UNL     1       8.294  -5.204  22.662  0.00  0.00    -0.153 OA
BRANCH  17  20
ATOM     20  N   UNL     1       7.861  -2.842  23.479  0.00  0.00    -0.176 NA
ATOM     21  C   UNL     1       9.312  -2.657  23.590  0.00  0.00    +0.109 C 
ATOM     22  C   UNL     1       9.492  -1.440  24.496  0.00  0.00    +0.018 C 
ATOM     23  C   UNL     1       8.112  -0.814  24.626  0.00  0.00    +0.018 C 
ATOM     24  C   UNL     1       7.148  -1.970  24.418  0.00  0.00    +0.109 C 
ENDBRANCH  17  20
ENDBRANCH  11  17
TORSDOF 3
ENDMDL
MODEL 7
REMARK VINA RESULT:      -6.3      3.449      6.441
REMARK  Name = 
REMARK  3 active torsions:
REMARK  status: ('A' for Active; 'I' for Inactive)
REMARK    1  A    between atoms: C_2  and  C_4
REMARK    2  A    between atoms: C_5  and  S_14
REMARK    3  A    between atoms: S_14  and  N_17
REMARK                            x       y       z     vdW  Elec       q    Type
REMARK                         _______ _______ _______ _____ _____    ______ ____
ROOT
ATOM      1  C   UNL     1       8.223  -2.259  22.771  0.00  0.00    +0.129 A 
ATOM      2  N   UNL     1       7.654  -3.435  22.343  0.00  0.00    -0.349 N 
ATOM      3  H   UNL     1       8.089  -4.048  21.664  0.00  0.00    +0.166 HD
ATOM      4  C   UNL     1       6.415  -3.625  22.904  0.00  0.00    +0.049 A 
ATOM      5  C   UNL     1       6.217  -2.596  23.828  0.00  0.00    +0.028 A 
ATOM      6  C   UNL     1       5.028  -2.629  24.591  0.00  0.00    +0.027 A 
ATOM      7  C   UNL     1       4.082  -3.634  24.363  0.00  0.00    +0.019 A 
ATOM      8  C   UNL     1       4.292  -4.614  23.401  0.00  0.00    +0.017 A 
ATOM      9 BR   UNL     1       2.485  -3.645  25.379  0.00  0.00    -0.050 Br
ATOM     10  C   UNL     1       5.475  -4.634  22.661  0.00  0.00    +0.027 A 
ATOM     11  C   UNL     1       7.350  -1.727  23.717  0.00  0.00    +0.143 A 
ENDROOT
BRANCH   1  15
ATOM     12  N   UNL     1       9.492  -1.019  21.160  0.00  0.00    -0.324 N 
ATOM     13  H   UNL     1       8.656  -0.829  20.612  0.00  0.00    +0.145 HD
ATOM     14  H   UNL     1      10.384  -0.792  20.745  0.00  0.00    +0.145 HD
ATOM     15  C   UNL     1       9.496  -1.841  22.244  0.00  0.00    +0.260 C 
ATOM     16  O   UNL     1      10.563  -2.257  22.687  0.00  0.00    -0.269 OA
ENDBRANCH   1  15
BRANCH  11  17
ATOM     17  S   UNL     1       7.605  -0.249  24.578  0.00  0.00    +0.064 S 
ATOM     18  O   UNL     1       8.054  -0.722  25.874  0.00  0.00    -0.153 OA
ATOM     19  O   UNL     1       6.351   0.455  24.414  0.00  0.00    -0.153 OA
BRANCH  17  20
ATOM     20  N   UNL     1       8.822   0.651  23.873  0.00  0.00    -0.176 NA
ATOM     21  C   UNL     1      10.089   0.882  24.577  0.00  0.00    +0.109 C 
ATOM     22  C   UNL     1      10.673   2.144  23.945  0.00  0.00    +0.018 C 
ATOM     23  C   UNL     1       9.837   2.411  22.704  0.00  0.00    +0.018 C 
ATOM     24  C   UNL     1       8.484   1.791  23.015  0.00  0.00    +0.109 C 
ENDBRANCH  17  20
ENDBRANCH  11  17
TORSDOF 3
ENDMDL
MODEL 8
REMARK VINA RESULT:      -6.3      2.946      4.860
REMARK  Name = 
REMARK  3 active torsions:
REMARK  status: ('A' for Active; 'I' for Inactive)
REMARK    1  A    between atoms: C_2  and  C_4
REMARK    2  A    between atoms: C_5  and  S_14
REMARK    3  A    between atoms: S_14  and  N_17
REMARK                            x       y       z     vdW  Elec       q    Type
REMARK                         _______ _______ _______ _____ _____    ______ ____
ROOT
ATOM      1  C   UNL     1       8.326  -3.801  25.257  0.00  0.00    +0.129 A 
ATOM      2  N   UNL     1       7.438  -3.746  26.306  0.00  0.00    -0.349 N 
ATOM      3  H   UNL     1       7.295  -4.512  26.953  0.00  0.00    +0.166 HD
ATOM      4  C   UNL     1       6.745  -2.561  26.313  0.00  0.00    +0.049 A 
ATOM      5  C   UNL     1       7.286  -1.759  25.305  0.00  0.00    +0.028 A 
ATOM      6  C   UNL     1       6.774  -0.448  25.174  0.00  0.00    +0.027 A 
ATOM      7  C   UNL     1       5.728  -0.023  26.000  0.00  0.00    +0.019 A 
ATOM      8  C   UNL     1       5.183  -0.866  26.960  0.00  0.00    +0.017 A 
ATOM      9 BR   UNL     1       5.041   1.728  25.790  0.00  0.00    -0.050 Br
ATOM     10  C   UNL     1       5.694  -2.151  27.143  0.00  0.00    +0.027 A 
ATOM     11  C   UNL     1       8.262  -2.559  24.629  0.00  0.00    +0.143 A 
ENDROOT
BRANCH   1  15
ATOM     12  N   UNL     1      10.073  -5.294  25.936  0.00  0.00    -0.324 N 
ATOM     13  H   UNL     1      10.383  -4.643  26.653  0.00  0.00    +0.145 HD
ATOM     14  H   UNL     1      10.667  -6.085  25.735  0.00  0.00    +0.145 HD
ATOM     15  C   UNL     1       9.102  -4.992  25.032  0.00  0.00    +0.260 C 
ATOM     16  O   UNL     1       8.971  -5.688  24.028  0.00  0.00    -0.269 OA
ENDBRANCH   1  15
BRANCH  11  17
ATOM     17  S   UNL     1       9.198  -2.100  23.250  0.00  0.00    +0.064 S 
ATOM     18  O   UNL     1       8.358  -2.535  22.150  0.00  0.00    -0.153 OA
ATOM     19  O   UNL     1      10.490  -2.700  23.505  0.00  0.00    -0.153 OA
BRANCH  17  20
ATOM     20  N   UNL     1       9.381  -0.442  23.175  0.00  0.00    -0.176 NA
ATOM     21  C   UNL     1       9.185   0.280  21.912  0.00  0.00    +0.109 C 
ATOM     22  C   UNL     1       9.966   1.583  22.071  0.00  0.00    +0.018 C 
ATOM     23  C   UNL     1      10.338   1.666  23.543  0.00  0.00    +0.018 C 
ATOM     24  C   UNL     1      10.395   0.219  24.004  0.00  0.00    +0.109 C 
ENDBRANCH  17  20
ENDBRANCH  11  17
TORSDOF 3
ENDMDL
MODEL 9
REMARK VINA RESULT:      -6.2      2.331      3.847
REMARK  Name = 
REMARK  3 active torsions:
REMARK  status: ('A' for Active; 'I' for Inactive)
REMARK    1  A    between atoms: C_2  and  C_4
REMARK    2  A    between atoms: C_5  and  S_14
REMARK    3  A    between atoms: S_14  and  N_17
REMARK                            x       y       z     vdW  Elec       q    Type
REMARK                         _______ _______ _______ _____ _____    ______ ____
ROOT
ATOM      1  C   UNL     1       7.537  -2.723  22.877  0.00  0.00    +0.129 A 
ATOM      2  N   UNL     1       8.379  -2.207  21.919  0.00  0.00    -0.349 N 
ATOM      3  H   UNL     1       8.695  -2.735  21.116  0.00  0.00    +0.166 HD
ATOM      4  C   UNL     1       8.770  -0.929  22.232  0.00  0.00    +0.049 A 
ATOM      5  C   UNL     1       8.062  -0.547  23.375  0.00  0.00    +0.028 A 
ATOM      6  C   UNL     1       8.248   0.773  23.844  0.00  0.00    +0.027 A 
ATOM      7  C   UNL     1       9.157   1.619  23.199  0.00  0.00    +0.019 A 
ATOM      8  C   UNL     1       9.880   1.188  22.094  0.00  0.00    +0.017 A 
ATOM      9 BR   UNL     1       9.409   3.375  23.858  0.00  0.00    -0.050 Br
ATOM     10  C   UNL     1       9.687  -0.095  21.581  0.00  0.00    +0.027 A 
ATOM     11  C   UNL     1       7.309  -1.693  23.787  0.00  0.00    +0.143 A 
ENDROOT
BRANCH   1  15
ATOM     12  N   UNL     1       5.795  -4.274  22.331  0.00  0.00    -0.324 N 
ATOM     13  H   UNL     1       5.118  -3.520  22.242  0.00  0.00    +0.145 HD
ATOM     14  H   UNL     1       5.442  -5.220  22.331  0.00  0.00    +0.145 HD
ATOM     15  C   UNL     1       7.068  -4.079  22.769  0.00  0.00    +0.260 C 
ATOM     16  O   UNL     1       7.741  -5.042  23.127  0.00  0.00    -0.269 OA
ENDBRANCH   1  15
BRANCH  11  17
ATOM     17  S   UNL     1       6.301  -1.817  25.187  0.00  0.00    +0.064 S 
ATOM     18  O   UNL     1       5.003  -2.107  24.606  0.00  0.00    -0.153 OA
ATOM     19  O   UNL     1       6.560  -0.584  25.898  0.00  0.00    -0.153 OA
BRANCH  17  20
ATOM     20  N   UNL     1       6.767  -3.100  26.149  0.00  0.00    -0.176 NA
ATOM     21  C   UNL     1       8.187  -3.422  26.335  0.00  0.00    +0.109 C 
ATOM     22  C   UNL     1       8.214  -4.894  26.742  0.00  0.00    +0.018 C 
ATOM     23  C   UNL     1       6.772  -5.265  27.047  0.00  0.00    +0.018 C 
ATOM     24  C   UNL     1       5.945  -4.314  26.197  0.00  0.00    +0.109 C 
ENDBRANCH  17  20
ENDBRANCH  11  17
TORSDOF 3
ENDMDL
