MODEL 1
REMARK VINA RESULT:      -7.0      0.000      0.000
REMARK  Name = 
REMARK  14 active torsions:
REMARK  status: ('A' for Active; 'I' for Inactive)
REMARK    1  A    between atoms: N_6  and  C_9
REMARK    2  A    between atoms: C_12  and  C_14
REMARK    3  A    between atoms: C_14  and  O_15
REMARK    4  A    between atoms: O_15  and  P_16
REMARK    5  A    between atoms: P_16  and  O_17
REMARK    6  A    between atoms: P_16  and  O_19
REMARK    7  A    between atoms: O_19  and  P_20
REMARK    8  A    between atoms: P_20  and  O_21
REMARK    9  A    between atoms: P_20  and  O_23
REMARK   10  A    between atoms: O_23  and  P_24
REMARK   11  A    between atoms: P_24  and  O_25
REMARK   12  A    between atoms: P_24  and  O_26
REMARK   13  A    between atoms: C_28  and  O_30
REMARK   14  A    between atoms: C_31  and  O_33
REMARK                            x       y       z     vdW  Elec       q    Type
REMARK                         _______ _______ _______ _____ _____    ______ ____
ROOT
ATOM      1  C   UNL     1       7.486  -5.221  23.831  0.00  0.00    +0.255 C 
ATOM      2  C   UNL     1       6.530  -5.490  22.655  0.00  0.00    +0.195 C 
ATOM      3  C   UNL     1       5.948  -4.113  22.304  0.00  0.00    +0.178 C 
ATOM      4  C   UNL     1       6.718  -3.116  23.183  0.00  0.00    +0.178 C 
ATOM      5  O   UNL     1       7.853  -3.832  23.695  0.00  0.00    -0.346 OA
ENDROOT
BRANCH   1  12
ATOM      6  N   UNL     1       5.923  -5.978  29.077  0.00  0.00    -0.343 N 
ATOM      7  H   UNL     1       4.983  -5.733  29.345  0.00  0.00    +0.144 HD
ATOM      8  H   UNL     1       6.634  -5.640  29.722  0.00  0.00    +0.144 HD
ATOM      9  C   UNL     1       6.280  -5.809  27.771  0.00  0.00    +0.123 A 
ATOM     10  C   UNL     1       5.255  -5.929  26.723  0.00  0.00    +0.061 A 
ATOM     11  C   UNL     1       5.679  -5.729  25.475  0.00  0.00    +0.096 A 
ATOM     12  N   UNL     1       6.999  -5.451  25.193  0.00  0.00    -0.270 N 
ATOM     13  C   UNL     1       7.939  -5.348  26.224  0.00  0.00    +0.352 A 
ATOM     14  O   UNL     1       9.125  -5.112  25.999  0.00  0.00    -0.244 OA
ATOM     15  N   UNL     1       7.519  -5.534  27.524  0.00  0.00    -0.178 NA
ENDBRANCH   1  12
BRANCH   2  16
ATOM     16  O   UNL     1       7.240  -6.010  21.513  0.00  0.00    -0.385 OA
ATOM     17  H   UNL     1       6.591  -6.237  20.823  0.00  0.00    +0.210 HD
ENDBRANCH   2  16
BRANCH   3  18
ATOM     18  O   UNL     1       4.551  -4.090  22.610  0.00  0.00    -0.386 OA
ATOM     19  H   UNL     1       4.106  -3.645  21.866  0.00  0.00    +0.210 HD
ENDBRANCH   3  18
BRANCH   4  20
ATOM     20  C   UNL     1       7.210  -1.842  22.463  0.00  0.00    +0.206 C 
BRANCH  20  21
ATOM     21  O   UNL     1       8.325  -1.233  23.120  0.00  0.00    -0.284 OA
BRANCH  21  22
ATOM     22  P   UNL     1       9.784  -1.170  22.322  0.00  0.00    +0.483 P 
ATOM     23  O   UNL     1      10.715  -0.266  23.135  0.00  0.00    -0.227 OA
BRANCH  22  24
ATOM     24  O   UNL     1      10.325  -2.479  23.314  0.00  0.00    -0.302 OA
ATOM     25  H   UNL     1       9.728  -2.415  24.090  0.00  0.00    +0.222 HD
ENDBRANCH  22  24
BRANCH  22  26
ATOM     26  O   UNL     1       9.243   0.140  21.329  0.00  0.00    -0.186 OA
BRANCH  26  27
ATOM     27  P   UNL     1       9.046   1.557  22.303  0.00  0.00    +0.492 P 
ATOM     28  O   UNL     1       7.816   1.947  21.482  0.00  0.00    -0.226 OA
BRANCH  27  29
ATOM     29  O   UNL     1      10.304   2.267  21.531  0.00  0.00    -0.302 OA
ATOM     30  H   UNL     1      10.160   3.235  21.553  0.00  0.00    +0.222 HD
ENDBRANCH  27  29
BRANCH  27  31
ATOM     31  O   UNL     1       8.849   2.974  23.275  0.00  0.00    -0.186 OA
BRANCH  31  32
ATOM     32  P   UNL     1       8.422   2.365  24.701  0.00  0.00    +0.481 P 
ATOM     33  O   UNL     1       7.934   3.299  25.746  0.00  0.00    -0.227 OA
BRANCH  32  34
ATOM     34  O   UNL     1       9.665   1.448  25.098  0.00  0.00    -0.302 OA
ATOM     35  H   UNL     1       9.472   0.853  25.852  0.00  0.00    +0.222 HD
ENDBRANCH  32  34
BRANCH  32  36
ATOM     36  O   UNL     1       7.338   1.260  24.266  0.00  0.00    -0.302 OA
ATOM     37  H   UNL     1       7.539   0.912  23.373  0.00  0.00    +0.222 HD
ENDBRANCH  32  36
ENDBRANCH  31  32
ENDBRANCH  27  31
ENDBRANCH  26  27
ENDBRANCH  22  26
ENDBRANCH  21  22
ENDBRANCH  20  21
ENDBRANCH   4  20
TORSDOF 14
ENDMDL
MODEL 2
REMARK VINA RESULT:      -6.9      2.220      4.020
REMARK  Name = 
REMARK  14 active torsions:
REMARK  status: ('A' for Active; 'I' for Inactive)
REMARK    1  A    between atoms: N_6  and  C_9
REMARK    2  A    between atoms: C_12  and  C_14
REMARK    3  A    between atoms: C_14  and  O_15
REMARK    4  A    between atoms: O_15  and  P_16
REMARK    5  A    between atoms: P_16  and  O_17
REMARK    6  A    between atoms: P_16  and  O_19
REMARK    7  A    between atoms: O_19  and  P_20
REMARK    8  A    between atoms: P_20  and  O_21
REMARK    9  A    between atoms: P_20  and  O_23
REMARK   10  A    between atoms: O_23  and  P_24
REMARK   11  A    between atoms: P_24  and  O_25
REMARK   12  A    between atoms: P_24  and  O_26
REMARK   13  A    between atoms: C_28  and  O_30
REMARK   14  A    between atoms: C_31  and  O_33
REMARK                            x       y       z     vdW  Elec       q    Type
REMARK                         _______ _______ _______ _____ _____    ______ ____
ROOT
ATOM      1  C   UNL     1       5.663  -2.890  24.654  0.00  0.00    +0.255 C 
ATOM      2  C   UNL     1       4.649  -2.589  25.772  0.00  0.00    +0.195 C 
ATOM      3  C   UNL     1       4.962  -1.150  26.206  0.00  0.00    +0.178 C 
ATOM      4  C   UNL     1       6.022  -0.653  25.211  0.00  0.00    +0.178 C 
ATOM      5  O   UNL     1       6.022  -1.596  24.127  0.00  0.00    -0.346 OA
ENDROOT
BRANCH   1  12
ATOM      6  N   UNL     1      10.373  -5.600  25.657  0.00  0.00    -0.343 N 
ATOM      7  H   UNL     1      10.879  -5.401  26.505  0.00  0.00    +0.144 HD
ATOM      8  H   UNL     1      10.962  -5.629  24.827  0.00  0.00    +0.144 HD
ATOM      9  C   UNL     1       9.199  -4.940  25.441  0.00  0.00    +0.123 A 
ATOM     10  C   UNL     1       8.389  -4.517  26.595  0.00  0.00    +0.061 A 
ATOM     11  C   UNL     1       7.267  -3.860  26.302  0.00  0.00    +0.096 A 
ATOM     12  N   UNL     1       6.887  -3.616  25.000  0.00  0.00    -0.270 N 
ATOM     13  C   UNL     1       7.690  -4.040  23.935  0.00  0.00    +0.352 A 
ATOM     14  O   UNL     1       7.369  -3.845  22.763  0.00  0.00    -0.244 OA
ATOM     15  N   UNL     1       8.864  -4.706  24.215  0.00  0.00    -0.178 NA
ENDBRANCH   1  12
BRANCH   2  16
ATOM     16  O   UNL     1       3.295  -2.652  25.280  0.00  0.00    -0.385 OA
ATOM     17  H   UNL     1       2.770  -3.201  25.890  0.00  0.00    +0.210 HD
ENDBRANCH   2  16
BRANCH   3  18
ATOM     18  O   UNL     1       5.477  -1.152  27.540  0.00  0.00    -0.386 OA
ATOM     19  H   UNL     1       5.992  -0.332  27.646  0.00  0.00    +0.210 HD
ENDBRANCH   3  18
BRANCH   4  20
ATOM     20  C   UNL     1       5.786   0.764  24.646  0.00  0.00    +0.206 C 
BRANCH  20  21
ATOM     21  O   UNL     1       7.001   1.414  24.261  0.00  0.00    -0.284 OA
BRANCH  21  22
ATOM     22  P   UNL     1       6.955   2.520  23.018  0.00  0.00    +0.483 P 
ATOM     23  O   UNL     1       7.262   1.768  21.720  0.00  0.00    -0.227 OA
BRANCH  22  24
ATOM     24  O   UNL     1       5.296   2.099  22.772  0.00  0.00    -0.302 OA
ATOM     25  H   UNL     1       5.138   1.443  23.484  0.00  0.00    +0.222 HD
ENDBRANCH  22  24
BRANCH  22  26
ATOM     26  O   UNL     1       8.615   2.941  23.264  0.00  0.00    -0.186 OA
BRANCH  26  27
ATOM     27  P   UNL     1       9.606   1.543  23.020  0.00  0.00    +0.492 P 
ATOM     28  O   UNL     1      10.592   2.062  24.068  0.00  0.00    -0.226 OA
BRANCH  27  29
ATOM     29  O   UNL     1      10.140   2.165  21.602  0.00  0.00    -0.302 OA
ATOM     30  H   UNL     1       9.458   1.986  20.922  0.00  0.00    +0.222 HD
ENDBRANCH  27  29
BRANCH  27  31
ATOM     31  O   UNL     1      10.597   0.147  22.776  0.00  0.00    -0.186 OA
BRANCH  31  32
ATOM     32  P   UNL     1       9.705  -1.032  23.408  0.00  0.00    +0.481 P 
ATOM     33  O   UNL     1       9.512  -1.056  24.879  0.00  0.00    -0.227 OA
BRANCH  32  34
ATOM     34  O   UNL     1      10.318  -2.351  22.754  0.00  0.00    -0.302 OA
ATOM     35  H   UNL     1       9.738  -3.132  22.862  0.00  0.00    +0.222 HD
ENDBRANCH  32  34
BRANCH  32  36
ATOM     36  O   UNL     1       8.335  -0.875  22.582  0.00  0.00    -0.302 OA
ATOM     37  H   UNL     1       8.290   0.003  22.150  0.00  0.00    +0.222 HD
ENDBRANCH  32  36
ENDBRANCH  31  32
ENDBRANCH  27  31
ENDBRANCH  26  27
ENDBRANCH  22  26
ENDBRANCH  21  22
ENDBRANCH  20  21
ENDBRANCH   4  20
TORSDOF 14
ENDMDL
MODEL 3
REMARK VINA RESULT:      -6.9      1.762      2.694
REMARK  Name = 
REMARK  14 active torsions:
REMARK  status: ('A' for Active; 'I' for Inactive)
REMARK    1  A    between atoms: N_6  and  C_9
REMARK    2  A    between atoms: C_12  and  C_14
REMARK    3  A    between atoms: C_14  and  O_15
REMARK    4  A    between atoms: O_15  and  P_16
REMARK    5  A    between atoms: P_16  and  O_17
REMARK    6  A    between atoms: P_16  and  O_19
REMARK    7  A    between atoms: O_19  and  P_20
REMARK    8  A    between atoms: P_20  and  O_21
REMARK    9  A    between atoms: P_20  and  O_23
REMARK   10  A    between atoms: O_23  and  P_24
REMARK   11  A    between atoms: P_24  and  O_25
REMARK   12  A    between atoms: P_24  and  O_26
REMARK   13  A    between atoms: C_28  and  O_30
REMARK   14  A    between atoms: C_31  and  O_33
REMARK                            x       y       z     vdW  Elec       q    Type
REMARK                         _______ _______ _______ _____ _____    ______ ____
ROOT
ATOM      1  C   UNL     1       8.072  -4.903  25.996  0.00  0.00    +0.255 C 
ATOM      2  C   UNL     1       8.844  -4.851  24.665  0.00  0.00    +0.195 C 
ATOM      3  C   UNL     1       8.483  -3.488  24.059  0.00  0.00    +0.178 C 
ATOM      4  C   UNL     1       7.659  -2.773  25.140  0.00  0.00    +0.178 C 
ATOM      5  O   UNL     1       7.858  -3.521  26.350  0.00  0.00    -0.346 OA
ENDROOT
BRANCH   1  12
ATOM      6  N   UNL     1       3.242  -7.552  26.436  0.00  0.00    -0.343 N 
ATOM      7  H   UNL     1       2.478  -7.274  25.841  0.00  0.00    +0.144 HD
ATOM      8  H   UNL     1       2.978  -7.670  27.411  0.00  0.00    +0.144 HD
ATOM      9  C   UNL     1       4.434  -6.903  26.293  0.00  0.00    +0.123 A 
ATOM     10  C   UNL     1       4.803  -6.358  24.976  0.00  0.00    +0.061 A 
ATOM     11  C   UNL     1       5.972  -5.721  24.923  0.00  0.00    +0.096 A 
ATOM     12  N   UNL     1       6.786  -5.605  26.028  0.00  0.00    -0.270 N 
ATOM     13  C   UNL     1       6.393  -6.142  27.260  0.00  0.00    +0.352 A 
ATOM     14  O   UNL     1       7.107  -6.062  28.259  0.00  0.00    -0.244 OA
ATOM     15  N   UNL     1       5.180  -6.790  27.342  0.00  0.00    -0.178 NA
ENDBRANCH   1  12
BRANCH   2  16
ATOM     16  O   UNL     1      10.269  -4.910  24.886  0.00  0.00    -0.385 OA
ATOM     17  H   UNL     1      10.705  -4.329  24.236  0.00  0.00    +0.210 HD
ENDBRANCH   2  16
BRANCH   3  18
ATOM     18  O   UNL     1       7.708  -3.681  22.872  0.00  0.00    -0.386 OA
ATOM     19  H   UNL     1       7.646  -2.815  22.430  0.00  0.00    +0.210 HD
ENDBRANCH   3  18
BRANCH   4  20
ATOM     20  C   UNL     1       8.038  -1.298  25.393  0.00  0.00    +0.206 C 
BRANCH  20  21
ATOM     21  O   UNL     1       8.738  -0.711  24.292  0.00  0.00    -0.284 OA
BRANCH  21  22
ATOM     22  P   UNL     1      10.153   0.112  24.592  0.00  0.00    +0.483 P 
ATOM     23  O   UNL     1       9.811   1.603  24.664  0.00  0.00    -0.227 OA
BRANCH  22  24
ATOM     24  O   UNL     1       9.781   0.033  26.279  0.00  0.00    -0.302 OA
ATOM     25  H   UNL     1       9.990   0.942  26.583  0.00  0.00    +0.222 HD
ENDBRANCH  22  24
BRANCH  22  26
ATOM     26  O   UNL     1      10.524   0.193  22.904  0.00  0.00    -0.186 OA
BRANCH  26  27
ATOM     27  P   UNL     1       9.234   0.988  22.068  0.00  0.00    +0.492 P 
ATOM     28  O   UNL     1       9.295  -0.074  20.970  0.00  0.00    -0.226 OA
BRANCH  27  29
ATOM     29  O   UNL     1      10.268   2.158  21.575  0.00  0.00    -0.302 OA
ATOM     30  H   UNL     1       9.989   2.999  21.991  0.00  0.00    +0.222 HD
ENDBRANCH  27  29
BRANCH  27  31
ATOM     31  O   UNL     1       7.945   1.782  21.232  0.00  0.00    -0.186 OA
BRANCH  31  32
ATOM     32  P   UNL     1       7.215   2.602  22.408  0.00  0.00    +0.481 P 
ATOM     33  O   UNL     1       5.979   3.354  22.078  0.00  0.00    -0.227 OA
BRANCH  32  34
ATOM     34  O   UNL     1       8.401   3.443  23.062  0.00  0.00    -0.302 OA
ATOM     35  H   UNL     1       8.198   4.400  23.122  0.00  0.00    +0.222 HD
ENDBRANCH  32  34
BRANCH  32  36
ATOM     36  O   UNL     1       6.995   1.453  23.510  0.00  0.00    -0.302 OA
ATOM     37  H   UNL     1       6.537   1.813  24.298  0.00  0.00    +0.222 HD
ENDBRANCH  32  36
ENDBRANCH  31  32
ENDBRANCH  27  31
ENDBRANCH  26  27
ENDBRANCH  22  26
ENDBRANCH  21  22
ENDBRANCH  20  21
ENDBRANCH   4  20
TORSDOF 14
ENDMDL
MODEL 4
REMARK VINA RESULT:      -6.8      4.386      7.740
REMARK  Name = 
REMARK  14 active torsions:
REMARK  status: ('A' for Active; 'I' for Inactive)
REMARK    1  A    between atoms: N_6  and  C_9
REMARK    2  A    between atoms: C_12  and  C_14
REMARK    3  A    between atoms: C_14  and  O_15
REMARK    4  A    between atoms: O_15  and  P_16
REMARK    5  A    between atoms: P_16  and  O_17
REMARK    6  A    between atoms: P_16  and  O_19
REMARK    7  A    between atoms: O_19  and  P_20
REMARK    8  A    between atoms: P_20  and  O_21
REMARK    9  A    between atoms: P_20  and  O_23
REMARK   10  A    between atoms: O_23  and  P_24
REMARK   11  A    between atoms: P_24  and  O_25
REMARK   12  A    between atoms: P_24  and  O_26
REMARK   13  A    between atoms: C_28  and  O_30
REMARK   14  A    between atoms: C_31  and  O_33
REMARK                            x       y       z     vdW  Elec       q    Type
REMARK                         _______ _______ _______ _____ _____    ______ ____
ROOT
ATOM      1  C   UNL     1       7.208  -2.920  23.344  0.00  0.00    +0.255 C 
ATOM      2  C   UNL     1       7.968  -4.256  23.245  0.00  0.00    +0.195 C 
ATOM      3  C   UNL     1       8.645  -4.421  24.613  0.00  0.00    +0.178 C 
ATOM      4  C   UNL     1       8.109  -3.263  25.469  0.00  0.00    +0.178 C 
ATOM      5  O   UNL     1       6.980  -2.733  24.757  0.00  0.00    -0.346 OA
ENDROOT
BRANCH   1  12
ATOM      6  N   UNL     1       9.400   1.797  21.477  0.00  0.00    -0.343 N 
ATOM      7  H   UNL     1      10.400   1.865  21.383  0.00  0.00    +0.144 HD
ATOM      8  H   UNL     1       8.976   2.601  21.933  0.00  0.00    +0.144 HD
ATOM      9  C   UNL     1       8.877   0.614  21.914  0.00  0.00    +0.123 A 
ATOM     10  C   UNL     1       9.587  -0.640  21.617  0.00  0.00    +0.061 A 
ATOM     11  C   UNL     1       9.024  -1.749  22.096  0.00  0.00    +0.096 A 
ATOM     12  N   UNL     1       7.842  -1.716  22.802  0.00  0.00    -0.270 N 
ATOM     13  C   UNL     1       7.202  -0.498  23.059  0.00  0.00    +0.352 A 
ATOM     14  O   UNL     1       6.140  -0.442  23.678  0.00  0.00    -0.244 OA
ATOM     15  N   UNL     1       7.775   0.664  22.588  0.00  0.00    -0.178 NA
ENDBRANCH   1  12
BRANCH   2  16
ATOM     16  O   UNL     1       7.062  -5.357  23.028  0.00  0.00    -0.385 OA
ATOM     17  H   UNL     1       6.648  -5.247  22.153  0.00  0.00    +0.210 HD
ENDBRANCH   2  16
BRANCH   3  18
ATOM     18  O   UNL     1      10.064  -4.329  24.461  0.00  0.00    -0.386 OA
ATOM     19  H   UNL     1      10.230  -3.963  23.573  0.00  0.00    +0.210 HD
ENDBRANCH   3  18
BRANCH   4  20
ATOM     20  C   UNL     1       7.669  -3.645  26.898  0.00  0.00    +0.206 C 
BRANCH  20  21
ATOM     21  O   UNL     1       6.343  -4.179  26.942  0.00  0.00    -0.284 OA
BRANCH  21  22
ATOM     22  P   UNL     1       6.071  -5.568  27.818  0.00  0.00    +0.483 P 
ATOM     23  O   UNL     1       5.827  -6.702  26.818  0.00  0.00    -0.227 OA
BRANCH  22  24
ATOM     24  O   UNL     1       7.758  -5.924  27.680  0.00  0.00    -0.302 OA
ATOM     25  H   UNL     1       7.771  -6.609  26.978  0.00  0.00    +0.222 HD
ENDBRANCH  22  24
BRANCH  22  26
ATOM     26  O   UNL     1       4.383  -5.213  27.954  0.00  0.00    -0.186 OA
BRANCH  26  27
ATOM     27  P   UNL     1       3.550  -5.835  26.570  0.00  0.00    +0.492 P 
ATOM     28  O   UNL     1       2.437  -4.807  26.782  0.00  0.00    -0.226 OA
BRANCH  27  29
ATOM     29  O   UNL     1       3.080  -7.143  27.436  0.00  0.00    -0.302 OA
ATOM     30  H   UNL     1       3.657  -7.203  28.224  0.00  0.00    +0.222 HD
ENDBRANCH  27  29
BRANCH  27  31
ATOM     31  O   UNL     1       2.716  -6.456  25.188  0.00  0.00    -0.186 OA
BRANCH  31  32
ATOM     32  P   UNL     1       3.684  -6.032  23.975  0.00  0.00    +0.481 P 
ATOM     33  O   UNL     1       3.062  -5.563  22.712  0.00  0.00    -0.227 OA
BRANCH  32  34
ATOM     34  O   UNL     1       4.685  -7.267  23.853  0.00  0.00    -0.302 OA
ATOM     35  H   UNL     1       5.501  -7.147  24.382  0.00  0.00    +0.222 HD
ENDBRANCH  32  34
BRANCH  32  36
ATOM     36  O   UNL     1       4.620  -4.932  24.680  0.00  0.00    -0.302 OA
ATOM     37  H   UNL     1       5.544  -5.251  24.739  0.00  0.00    +0.222 HD
ENDBRANCH  32  36
ENDBRANCH  31  32
ENDBRANCH  27  31
ENDBRANCH  26  27
ENDBRANCH  22  26
ENDBRANCH  21  22
ENDBRANCH  20  21
ENDBRANCH   4  20
TORSDOF 14
ENDMDL
MODEL 5
REMARK VINA RESULT:      -6.8      4.207      7.466
REMARK  Name = 
REMARK  14 active torsions:
REMARK  status: ('A' for Active; 'I' for Inactive)
REMARK    1  A    between atoms: N_6  and  C_9
REMARK    2  A    between atoms: C_12  and  C_14
REMARK    3  A    between atoms: C_14  and  O_15
REMARK    4  A    between atoms: O_15  and  P_16
REMARK    5  A    between atoms: P_16  and  O_17
REMARK    6  A    between atoms: P_16  and  O_19
REMARK    7  A    between atoms: O_19  and  P_20
REMARK    8  A    between atoms: P_20  and  O_21
REMARK    9  A    between atoms: P_20  and  O_23
REMARK   10  A    between atoms: O_23  and  P_24
REMARK   11  A    between atoms: P_24  and  O_25
REMARK   12  A    between atoms: P_24  and  O_26
REMARK   13  A    between atoms: C_28  and  O_30
REMARK   14  A    between atoms: C_31  and  O_33
REMARK                            x       y       z     vdW  Elec       q    Type
REMARK                         _______ _______ _______ _____ _____    ______ ____
ROOT
ATOM      1  C   UNL     1       7.913  -0.803  23.305  0.00  0.00    +0.255 C 
ATOM      2  C   UNL     1       8.469  -2.079  22.647  0.00  0.00    +0.195 C 
ATOM      3  C   UNL     1       9.037  -2.902  23.813  0.00  0.00    +0.178 C 
ATOM      4  C   UNL     1       8.634  -2.133  25.081  0.00  0.00    +0.178 C 
ATOM      5  O   UNL     1       7.637  -1.183  24.669  0.00  0.00    -0.346 OA
ENDROOT
BRANCH   1  12
ATOM      6  N   UNL     1      11.079   3.717  23.000  0.00  0.00    -0.343 N 
ATOM      7  H   UNL     1      10.859   4.505  23.587  0.00  0.00    +0.144 HD
ATOM      8  H   UNL     1      11.265   3.967  22.031  0.00  0.00    +0.144 HD
ATOM      9  C   UNL     1      10.301   2.601  23.110  0.00  0.00    +0.123 A 
ATOM     10  C   UNL     1       9.665   2.291  24.401  0.00  0.00    +0.061 A 
ATOM     11  C   UNL     1       8.905   1.197  24.421  0.00  0.00    +0.096 A 
ATOM     12  N   UNL     1       8.749   0.400  23.308  0.00  0.00    -0.270 N 
ATOM     13  C   UNL     1       9.375   0.734  22.102  0.00  0.00    +0.352 A 
ATOM     14  O   UNL     1       9.261   0.035  21.097  0.00  0.00    -0.244 OA
ATOM     15  N   UNL     1      10.153   1.872  22.053  0.00  0.00    -0.178 NA
ENDBRANCH   1  12
BRANCH   2  16
ATOM     16  O   UNL     1       7.423  -2.832  22.001  0.00  0.00    -0.385 OA
ATOM     17  H   UNL     1       6.629  -2.271  21.945  0.00  0.00    +0.210 HD
ENDBRANCH   2  16
BRANCH   3  18
ATOM     18  O   UNL     1      10.460  -2.981  23.696  0.00  0.00    -0.386 OA
ATOM     19  H   UNL     1      10.791  -2.066  23.643  0.00  0.00    +0.210 HD
ENDBRANCH   3  18
BRANCH   4  20
ATOM     20  C   UNL     1       8.062  -2.997  26.225  0.00  0.00    +0.206 C 
BRANCH  20  21
ATOM     21  O   UNL     1       7.475  -4.214  25.757  0.00  0.00    -0.284 OA
BRANCH  21  22
ATOM     22  P   UNL     1       6.421  -5.028  26.755  0.00  0.00    +0.483 P 
ATOM     23  O   UNL     1       5.955  -6.281  26.009  0.00  0.00    -0.227 OA
BRANCH  22  24
ATOM     24  O   UNL     1       7.760  -5.966  27.320  0.00  0.00    -0.302 OA
ATOM     25  H   UNL     1       7.336  -6.820  27.549  0.00  0.00    +0.222 HD
ENDBRANCH  22  24
BRANCH  22  26
ATOM     26  O   UNL     1       5.081  -4.091  26.189  0.00  0.00    -0.186 OA
BRANCH  26  27
ATOM     27  P   UNL     1       4.954  -4.247  24.470  0.00  0.00    +0.492 P 
ATOM     28  O   UNL     1       4.728  -2.739  24.353  0.00  0.00    -0.226 OA
BRANCH  27  29
ATOM     29  O   UNL     1       3.454  -4.883  24.635  0.00  0.00    -0.302 OA
ATOM     30  H   UNL     1       3.466  -5.480  25.410  0.00  0.00    +0.222 HD
ENDBRANCH  27  29
BRANCH  27  31
ATOM     31  O   UNL     1       4.827  -4.402  22.752  0.00  0.00    -0.186 OA
BRANCH  31  32
ATOM     32  P   UNL     1       5.664  -5.744  22.458  0.00  0.00    +0.481 P 
ATOM     33  O   UNL     1       5.931  -6.109  21.044  0.00  0.00    -0.227 OA
BRANCH  32  34
ATOM     34  O   UNL     1       4.922  -6.843  23.343  0.00  0.00    -0.302 OA
ATOM     35  H   UNL     1       4.498  -6.465  24.141  0.00  0.00    +0.222 HD
ENDBRANCH  32  34
BRANCH  32  36
ATOM     36  O   UNL     1       6.995  -5.487  23.320  0.00  0.00    -0.302 OA
ATOM     37  H   UNL     1       7.146  -6.221  23.951  0.00  0.00    +0.222 HD
ENDBRANCH  32  36
ENDBRANCH  31  32
ENDBRANCH  27  31
ENDBRANCH  26  27
ENDBRANCH  22  26
ENDBRANCH  21  22
ENDBRANCH  20  21
ENDBRANCH   4  20
TORSDOF 14
ENDMDL
MODEL 6
REMARK VINA RESULT:      -6.8      4.382      7.476
REMARK  Name = 
REMARK  14 active torsions:
REMARK  status: ('A' for Active; 'I' for Inactive)
REMARK    1  A    between atoms: N_6  and  C_9
REMARK    2  A    between atoms: C_12  and  C_14
REMARK    3  A    between atoms: C_14  and  O_15
REMARK    4  A    between atoms: O_15  and  P_16
REMARK    5  A    between atoms: P_16  and  O_17
REMARK    6  A    between atoms: P_16  and  O_19
REMARK    7  A    between atoms: O_19  and  P_20
REMARK    8  A    between atoms: P_20  and  O_21
REMARK    9  A    between atoms: P_20  and  O_23
REMARK   10  A    between atoms: O_23  and  P_24
REMARK   11  A    between atoms: P_24  and  O_25
REMARK   12  A    between atoms: P_24  and  O_26
REMARK   13  A    between atoms: C_28  and  O_30
REMARK   14  A    between atoms: C_31  and  O_33
REMARK                            x       y       z     vdW  Elec       q    Type
REMARK                         _______ _______ _______ _____ _____    ______ ____
ROOT
ATOM      1  C   UNL     1       9.399  -2.009  23.187  0.00  0.00    +0.255 C 
ATOM      2  C   UNL     1       9.287  -2.787  24.511  0.00  0.00    +0.195 C 
ATOM      3  C   UNL     1       7.789  -2.774  24.845  0.00  0.00    +0.178 C 
ATOM      4  C   UNL     1       7.110  -2.137  23.623  0.00  0.00    +0.178 C 
ATOM      5  O   UNL     1       8.096  -2.134  22.578  0.00  0.00    -0.346 OA
ENDROOT
BRANCH   1  12
ATOM      6  N   UNL     1      10.665   3.369  23.087  0.00  0.00    -0.343 N 
ATOM      7  H   UNL     1      10.473   3.929  23.902  0.00  0.00    +0.144 HD
ATOM      8  H   UNL     1      10.366   3.798  22.215  0.00  0.00    +0.144 HD
ATOM      9  C   UNL     1      10.370   2.037  23.142  0.00  0.00    +0.123 A 
ATOM     10  C   UNL     1      10.426   1.340  24.437  0.00  0.00    +0.061 A 
ATOM     11  C   UNL     1      10.104   0.047  24.411  0.00  0.00    +0.096 A 
ATOM     12  N   UNL     1       9.763  -0.592  23.239  0.00  0.00    -0.270 N 
ATOM     13  C   UNL     1       9.726   0.113  22.031  0.00  0.00    +0.352 A 
ATOM     14  O   UNL     1       9.436  -0.437  20.969  0.00  0.00    -0.244 OA
ATOM     15  N   UNL     1      10.039   1.455  22.037  0.00  0.00    -0.178 NA
ENDBRANCH   1  12
BRANCH   2  16
ATOM     16  O   UNL     1       9.727  -4.152  24.354  0.00  0.00    -0.385 OA
ATOM     17  H   UNL     1      10.701  -4.166  24.371  0.00  0.00    +0.210 HD
ENDBRANCH   2  16
BRANCH   3  18
ATOM     18  O   UNL     1       7.566  -1.989  26.020  0.00  0.00    -0.386 OA
ATOM     19  H   UNL     1       6.702  -1.552  25.908  0.00  0.00    +0.210 HD
ENDBRANCH   3  18
BRANCH   4  20
ATOM     20  C   UNL     1       5.844  -2.860  23.118  0.00  0.00    +0.206 C 
BRANCH  20  21
ATOM     21  O   UNL     1       6.135  -4.116  22.500  0.00  0.00    -0.284 OA
BRANCH  21  22
ATOM     22  P   UNL     1       5.330  -5.473  23.031  0.00  0.00    +0.483 P 
ATOM     23  O   UNL     1       3.919  -5.433  22.436  0.00  0.00    -0.227 OA
BRANCH  22  24
ATOM     24  O   UNL     1       5.828  -6.274  21.582  0.00  0.00    -0.302 OA
ATOM     25  H   UNL     1       6.386  -5.594  21.147  0.00  0.00    +0.222 HD
ENDBRANCH  22  24
BRANCH  22  26
ATOM     26  O   UNL     1       4.830  -4.671  24.481  0.00  0.00    -0.186 OA
BRANCH  26  27
ATOM     27  P   UNL     1       5.187  -5.673  25.846  0.00  0.00    +0.492 P 
ATOM     28  O   UNL     1       6.624  -5.832  25.349  0.00  0.00    -0.226 OA
BRANCH  27  29
ATOM     29  O   UNL     1       4.367  -6.912  25.156  0.00  0.00    -0.302 OA
ATOM     30  H   UNL     1       4.858  -7.185  24.354  0.00  0.00    +0.222 HD
ENDBRANCH  27  29
BRANCH  27  31
ATOM     31  O   UNL     1       5.544  -6.675  27.210  0.00  0.00    -0.186 OA
BRANCH  31  32
ATOM     32  P   UNL     1       6.345  -5.673  28.181  0.00  0.00    +0.481 P 
ATOM     33  O   UNL     1       6.115  -5.779  29.643  0.00  0.00    -0.227 OA
BRANCH  32  34
ATOM     34  O   UNL     1       6.088  -4.241  27.527  0.00  0.00    -0.302 OA
ATOM     35  H   UNL     1       5.273  -3.813  27.860  0.00  0.00    +0.222 HD
ENDBRANCH  32  34
BRANCH  32  36
ATOM     36  O   UNL     1       7.867  -5.953  27.746  0.00  0.00    -0.302 OA
ATOM     37  H   UNL     1       7.941  -6.020  26.771  0.00  0.00    +0.222 HD
ENDBRANCH  32  36
ENDBRANCH  31  32
ENDBRANCH  27  31
ENDBRANCH  26  27
ENDBRANCH  22  26
ENDBRANCH  21  22
ENDBRANCH  20  21
ENDBRANCH   4  20
TORSDOF 14
ENDMDL
MODEL 7
REMARK VINA RESULT:      -6.6      4.467      7.255
REMARK  Name = 
REMARK  14 active torsions:
REMARK  status: ('A' for Active; 'I' for Inactive)
REMARK    1  A    between atoms: N_6  and  C_9
REMARK    2  A    between atoms: C_12  and  C_14
REMARK    3  A    between atoms: C_14  and  O_15
REMARK    4  A    between atoms: O_15  and  P_16
REMARK    5  A    between atoms: P_16  and  O_17
REMARK    6  A    between atoms: P_16  and  O_19
REMARK    7  A    between atoms: O_19  and  P_20
REMARK    8  A    between atoms: P_20  and  O_21
REMARK    9  A    between atoms: P_20  and  O_23
REMARK   10  A    between atoms: O_23  and  P_24
REMARK   11  A    between atoms: P_24  and  O_25
REMARK   12  A    between atoms: P_24  and  O_26
REMARK   13  A    between atoms: C_28  and  O_30
REMARK   14  A    between atoms: C_31  and  O_33
REMARK                            x       y       z     vdW  Elec       q    Type
REMARK                         _______ _______ _______ _____ _____    ______ ____
ROOT
ATOM      1  C   UNL     1       8.792  -0.148  25.001  0.00  0.00    +0.255 C 
ATOM      2  C   UNL     1       7.497  -0.392  25.797  0.00  0.00    +0.195 C 
ATOM      3  C   UNL     1       6.473  -0.842  24.744  0.00  0.00    +0.178 C 
ATOM      4  C   UNL     1       7.273  -0.985  23.441  0.00  0.00    +0.178 C 
ATOM      5  O   UNL     1       8.658  -0.968  23.822  0.00  0.00    -0.346 OA
ENDROOT
BRANCH   1  12
ATOM      6  N   UNL     1      10.264   4.910  23.330  0.00  0.00    -0.343 N 
ATOM      7  H   UNL     1       9.564   5.513  22.929  0.00  0.00    +0.144 HD
ATOM      8  H   UNL     1      11.131   4.881  22.799  0.00  0.00    +0.144 HD
ATOM      9  C   UNL     1       9.874   3.675  23.761  0.00  0.00    +0.123 A 
ATOM     10  C   UNL     1       8.498   3.483  24.246  0.00  0.00    +0.061 A 
ATOM     11  C   UNL     1       8.189   2.245  24.630  0.00  0.00    +0.096 A 
ATOM     12  N   UNL     1       9.111   1.222  24.592  0.00  0.00    -0.270 N 
ATOM     13  C   UNL     1      10.409   1.453  24.124  0.00  0.00    +0.352 A 
ATOM     14  O   UNL     1      11.255   0.560  24.090  0.00  0.00    -0.244 OA
ATOM     15  N   UNL     1      10.746   2.722  23.706  0.00  0.00    -0.178 NA
ENDBRANCH   1  12
BRANCH   2  16
ATOM     16  O   UNL     1       7.671  -1.444  26.768  0.00  0.00    -0.385 OA
ATOM     17  H   UNL     1       7.315  -2.270  26.395  0.00  0.00    +0.210 HD
ENDBRANCH   2  16
BRANCH   3  18
ATOM     18  O   UNL     1       5.454   0.153  24.611  0.00  0.00    -0.386 OA
ATOM     19  H   UNL     1       5.746   0.766  23.911  0.00  0.00    +0.210 HD
ENDBRANCH   3  18
BRANCH   4  20
ATOM     20  C   UNL     1       6.990  -2.266  22.628  0.00  0.00    +0.206 C 
BRANCH  20  21
ATOM     21  O   UNL     1       6.623  -3.374  23.455  0.00  0.00    -0.284 OA
BRANCH  21  22
ATOM     22  P   UNL     1       6.896  -4.916  22.892  0.00  0.00    +0.483 P 
ATOM     23  O   UNL     1       6.295  -5.891  23.908  0.00  0.00    -0.227 OA
BRANCH  22  24
ATOM     24  O   UNL     1       5.337  -4.864  22.145  0.00  0.00    -0.302 OA
ATOM     25  H   UNL     1       5.552  -4.581  21.230  0.00  0.00    +0.222 HD
ENDBRANCH  22  24
BRANCH  22  26
ATOM     26  O   UNL     1       8.456  -4.968  23.640  0.00  0.00    -0.186 OA
BRANCH  26  27
ATOM     27  P   UNL     1       8.280  -4.785  25.352  0.00  0.00    +0.492 P 
ATOM     28  O   UNL     1       9.323  -3.667  25.336  0.00  0.00    -0.226 OA
BRANCH  27  29
ATOM     29  O   UNL     1       9.141  -6.157  25.592  0.00  0.00    -0.302 OA
ATOM     30  H   UNL     1       8.599  -6.758  26.142  0.00  0.00    +0.222 HD
ENDBRANCH  27  29
BRANCH  27  31
ATOM     31  O   UNL     1       8.105  -4.601  27.063  0.00  0.00    -0.186 OA
BRANCH  31  32
ATOM     32  P   UNL     1       6.545  -4.921  27.292  0.00  0.00    +0.481 P 
ATOM     33  O   UNL     1       5.998  -4.800  28.667  0.00  0.00    -0.227 OA
BRANCH  32  34
ATOM     34  O   UNL     1       6.348  -6.331  26.575  0.00  0.00    -0.302 OA
ATOM     35  H   UNL     1       7.194  -6.725  26.276  0.00  0.00    +0.222 HD
ENDBRANCH  32  34
BRANCH  32  36
ATOM     36  O   UNL     1       5.855  -3.927  26.234  0.00  0.00    -0.302 OA
ATOM     37  H   UNL     1       6.246  -4.044  25.344  0.00  0.00    +0.222 HD
ENDBRANCH  32  36
ENDBRANCH  31  32
ENDBRANCH  27  31
ENDBRANCH  26  27
ENDBRANCH  22  26
ENDBRANCH  21  22
ENDBRANCH  20  21
ENDBRANCH   4  20
TORSDOF 14
ENDMDL
MODEL 8
REMARK VINA RESULT:      -6.6      2.140      3.761
REMARK  Name = 
REMARK  14 active torsions:
REMARK  status: ('A' for Active; 'I' for Inactive)
REMARK    1  A    between atoms: N_6  and  C_9
REMARK    2  A    between atoms: C_12  and  C_14
REMARK    3  A    between atoms: C_14  and  O_15
REMARK    4  A    between atoms: O_15  and  P_16
REMARK    5  A    between atoms: P_16  and  O_17
REMARK    6  A    between atoms: P_16  and  O_19
REMARK    7  A    between atoms: O_19  and  P_20
REMARK    8  A    between atoms: P_20  and  O_21
REMARK    9  A    between atoms: P_20  and  O_23
REMARK   10  A    between atoms: O_23  and  P_24
REMARK   11  A    between atoms: P_24  and  O_25
REMARK   12  A    between atoms: P_24  and  O_26
REMARK   13  A    between atoms: C_28  and  O_30
REMARK   14  A    between atoms: C_31  and  O_33
REMARK                            x       y       z     vdW  Elec       q    Type
REMARK                         _______ _______ _______ _____ _____    ______ ____
ROOT
ATOM      1  C   UNL     1       8.251  -5.094  26.257  0.00  0.00    +0.255 C 
ATOM      2  C   UNL     1       8.937  -4.799  24.910  0.00  0.00    +0.195 C 
ATOM      3  C   UNL     1       8.677  -3.307  24.660  0.00  0.00    +0.178 C 
ATOM      4  C   UNL     1       8.002  -2.796  25.942  0.00  0.00    +0.178 C 
ATOM      5  O   UNL     1       8.202  -3.819  26.930  0.00  0.00    -0.346 OA
ENDROOT
BRANCH   1  12
ATOM      6  N   UNL     1       3.189  -7.296  26.517  0.00  0.00    -0.343 N 
ATOM      7  H   UNL     1       2.467  -6.928  25.918  0.00  0.00    +0.144 HD
ATOM      8  H   UNL     1       2.896  -7.423  27.482  0.00  0.00    +0.144 HD
ATOM      9  C   UNL     1       4.439  -6.757  26.417  0.00  0.00    +0.123 A 
ATOM     10  C   UNL     1       4.884  -6.203  25.129  0.00  0.00    +0.061 A 
ATOM     11  C   UNL     1       6.108  -5.676  25.119  0.00  0.00    +0.096 A 
ATOM     12  N   UNL     1       6.906  -5.674  26.242  0.00  0.00    -0.270 N 
ATOM     13  C   UNL     1       6.440  -6.214  27.445  0.00  0.00    +0.352 A 
ATOM     14  O   UNL     1       7.137  -6.235  28.459  0.00  0.00    -0.244 OA
ATOM     15  N   UNL     1       5.170  -6.749  27.483  0.00  0.00    -0.178 NA
ENDBRANCH   1  12
BRANCH   2  16
ATOM     16  O   UNL     1      10.359  -5.026  24.988  0.00  0.00    -0.385 OA
ATOM     17  H   UNL     1      10.790  -4.193  25.254  0.00  0.00    +0.210 HD
ENDBRANCH   2  16
BRANCH   3  18
ATOM     18  O   UNL     1       7.811  -3.153  23.532  0.00  0.00    -0.386 OA
ATOM     19  H   UNL     1       6.913  -3.008  23.882  0.00  0.00    +0.210 HD
ENDBRANCH   3  18
BRANCH   4  20
ATOM     20  C   UNL     1       8.544  -1.457  26.486  0.00  0.00    +0.206 C 
BRANCH  20  21
ATOM     21  O   UNL     1       8.100  -0.331  25.724  0.00  0.00    -0.284 OA
BRANCH  21  22
ATOM     22  P   UNL     1       7.243   0.868  26.497  0.00  0.00    +0.483 P 
ATOM     23  O   UNL     1       5.915   0.262  26.959  0.00  0.00    -0.227 OA
BRANCH  22  24
ATOM     24  O   UNL     1       7.918   0.317  27.991  0.00  0.00    -0.302 OA
ATOM     25  H   UNL     1       8.479  -0.435  27.703  0.00  0.00    +0.222 HD
ENDBRANCH  22  24
BRANCH  22  26
ATOM     26  O   UNL     1       6.568   1.419  25.003  0.00  0.00    -0.186 OA
BRANCH  26  27
ATOM     27  P   UNL     1       7.157   0.435  23.707  0.00  0.00    +0.492 P 
ATOM     28  O   UNL     1       6.589   1.432  22.695  0.00  0.00    -0.226 OA
BRANCH  27  29
ATOM     29  O   UNL     1       5.944  -0.636  23.963  0.00  0.00    -0.302 OA
ATOM     30  H   UNL     1       5.570  -0.877  23.091  0.00  0.00    +0.222 HD
ENDBRANCH  27  29
BRANCH  27  31
ATOM     31  O   UNL     1       7.745  -0.548  22.411  0.00  0.00    -0.186 OA
BRANCH  31  32
ATOM     32  P   UNL     1       9.240   0.006  22.200  0.00  0.00    +0.481 P 
ATOM     33  O   UNL     1      10.325  -0.975  21.953  0.00  0.00    -0.227 OA
BRANCH  32  34
ATOM     34  O   UNL     1       9.446   0.991  23.437  0.00  0.00    -0.302 OA
ATOM     35  H   UNL     1      10.391   1.163  23.631  0.00  0.00    +0.222 HD
ENDBRANCH  32  34
BRANCH  32  36
ATOM     36  O   UNL     1       9.028   1.049  20.996  0.00  0.00    -0.302 OA
ATOM     37  H   UNL     1       8.114   0.995  20.648  0.00  0.00    +0.222 HD
ENDBRANCH  32  36
ENDBRANCH  31  32
ENDBRANCH  27  31
ENDBRANCH  26  27
ENDBRANCH  22  26
ENDBRANCH  21  22
ENDBRANCH  20  21
ENDBRANCH   4  20
TORSDOF 14
ENDMDL
MODEL 9
REMARK VINA RESULT:      -6.5      4.360      7.465
REMARK  Name = 
REMARK  14 active torsions:
REMARK  status: ('A' for Active; 'I' for Inactive)
REMARK    1  A    between atoms: N_6  and  C_9
REMARK    2  A    between atoms: C_12  and  C_14
REMARK    3  A    between atoms: C_14  and  O_15
REMARK    4  A    between atoms: O_15  and  P_16
REMARK    5  A    between atoms: P_16  and  O_17
REMARK    6  A    between atoms: P_16  and  O_19
REMARK    7  A    between atoms: O_19  and  P_20
REMARK    8  A    between atoms: P_20  and  O_21
REMARK    9  A    between atoms: P_20  and  O_23
REMARK   10  A    between atoms: O_23  and  P_24
REMARK   11  A    between atoms: P_24  and  O_25
REMARK   12  A    between atoms: P_24  and  O_26
REMARK   13  A    between atoms: C_28  and  O_30
REMARK   14  A    between atoms: C_31  and  O_33
REMARK                            x       y       z     vdW  Elec       q    Type
REMARK                         _______ _______ _______ _____ _____    ______ ____
ROOT
ATOM      1  C   UNL     1       8.784  -1.385  23.213  0.00  0.00    +0.255 C 
ATOM      2  C   UNL     1       9.111  -2.390  24.333  0.00  0.00    +0.195 C 
ATOM      3  C   UNL     1       7.964  -2.234  25.342  0.00  0.00    +0.178 C 
ATOM      4  C   UNL     1       6.969  -1.273  24.674  0.00  0.00    +0.178 C 
ATOM      5  O   UNL     1       7.356  -1.199  23.292  0.00  0.00    -0.346 OA
ENDROOT
BRANCH   1  12
ATOM      6  N   UNL     1      11.142   3.609  23.026  0.00  0.00    -0.343 N 
ATOM      7  H   UNL     1      11.064   4.215  23.827  0.00  0.00    +0.144 HD
ATOM      8  H   UNL     1      10.944   4.073  22.142  0.00  0.00    +0.144 HD
ATOM      9  C   UNL     1      10.576   2.370  23.103  0.00  0.00    +0.123 A 
ATOM     10  C   UNL     1      10.476   1.704  24.411  0.00  0.00    +0.061 A 
ATOM     11  C   UNL     1       9.893   0.506  24.406  0.00  0.00    +0.096 A 
ATOM     12  N   UNL     1       9.435  -0.073  23.243  0.00  0.00    -0.270 N 
ATOM     13  C   UNL     1       9.553   0.598  22.021  0.00  0.00    +0.352 A 
ATOM     14  O   UNL     1       9.163   0.099  20.966  0.00  0.00    -0.244 OA
ATOM     15  N   UNL     1      10.138   1.846  22.005  0.00  0.00    -0.178 NA
ENDBRANCH   1  12
BRANCH   2  16
ATOM     16  O   UNL     1       9.121  -3.743  23.834  0.00  0.00    -0.385 OA
ATOM     17  H   UNL     1       9.472  -3.733  22.925  0.00  0.00    +0.210 HD
ENDBRANCH   2  16
BRANCH   3  18
ATOM     18  O   UNL     1       8.469  -1.678  26.560  0.00  0.00    -0.386 OA
ATOM     19  H   UNL     1       7.967  -2.089  27.288  0.00  0.00    +0.210 HD
ENDBRANCH   3  18
BRANCH   4  20
ATOM     20  C   UNL     1       5.486  -1.693  24.759  0.00  0.00    +0.206 C 
BRANCH  20  21
ATOM     21  O   UNL     1       5.322  -3.091  25.013  0.00  0.00    -0.284 OA
BRANCH  21  22
ATOM     22  P   UNL     1       4.312  -3.564  26.249  0.00  0.00    +0.483 P 
ATOM     23  O   UNL     1       5.189  -3.888  27.462  0.00  0.00    -0.227 OA
BRANCH  22  24
ATOM     24  O   UNL     1       4.301  -1.925  26.800  0.00  0.00    -0.302 OA
ATOM     25  H   UNL     1       3.363  -1.667  26.671  0.00  0.00    +0.222 HD
ENDBRANCH  22  24
BRANCH  22  26
ATOM     26  O   UNL     1       4.324  -5.205  25.698  0.00  0.00    -0.186 OA
BRANCH  26  27
ATOM     27  P   UNL     1       5.530  -5.392  24.471  0.00  0.00    +0.492 P 
ATOM     28  O   UNL     1       5.027  -6.810  24.197  0.00  0.00    -0.226 OA
BRANCH  27  29
ATOM     29  O   UNL     1       6.680  -5.572  25.622  0.00  0.00    -0.302 OA
ATOM     30  H   UNL     1       6.837  -6.531  25.741  0.00  0.00    +0.222 HD
ENDBRANCH  27  29
BRANCH  27  31
ATOM     31  O   UNL     1       6.735  -5.579  23.244  0.00  0.00    -0.186 OA
BRANCH  31  32
ATOM     32  P   UNL     1       6.028  -4.926  21.955  0.00  0.00    +0.481 P 
ATOM     33  O   UNL     1       5.934  -5.740  20.718  0.00  0.00    -0.227 OA
BRANCH  32  34
ATOM     34  O   UNL     1       6.750  -3.511  21.816  0.00  0.00    -0.302 OA
ATOM     35  H   UNL     1       7.692  -3.538  22.085  0.00  0.00    +0.222 HD
ENDBRANCH  32  34
BRANCH  32  36
ATOM     36  O   UNL     1       4.600  -4.497  22.555  0.00  0.00    -0.302 OA
ATOM     37  H   UNL     1       4.659  -3.626  22.999  0.00  0.00    +0.222 HD
ENDBRANCH  32  36
ENDBRANCH  31  32
ENDBRANCH  27  31
ENDBRANCH  26  27
ENDBRANCH  22  26
ENDBRANCH  21  22
ENDBRANCH  20  21
ENDBRANCH   4  20
TORSDOF 14
ENDMDL
