MODEL 1
REMARK VINA RESULT:      -5.5      0.000      0.000
REMARK  Name = 
REMARK  32 active torsions:
REMARK  status: ('A' for Active; 'I' for Inactive)
REMARK    1  A    between atoms: C_1  and  C_2
REMARK    2  A    between atoms: C_2  and  C_3
REMARK    3  A    between atoms: C_8  and  C_10
REMARK    4  A    between atoms: C_11  and  O_13
REMARK    5  A    between atoms: O_13  and  C_14
REMARK    6  A    between atoms: C_17  and  C_18
REMARK    7  A    between atoms: C_17  and  O_19
REMARK    8  A    between atoms: O_19  and  C_20
REMARK    9  A    between atoms: C_21  and  O_23
REMARK   10  A    between atoms: C_24  and  C_26
REMARK   11  A    between atoms: C_28  and  C_30
REMARK   12  A    between atoms: C_31  and  O_33
REMARK   13  A    between atoms: O_33  and  C_34
REMARK   14  A    between atoms: C_37  and  C_39
REMARK   15  A    between atoms: C_41  and  N_46
REMARK   16  A    between atoms: C_43  and  O_45
REMARK   17  A    between atoms: N_46  and  C_47
REMARK   18  A    between atoms: N_46  and  C_48
REMARK   19  A    between atoms: C_49  and  C_50
REMARK   20  A    between atoms: C_49  and  O_51
REMARK   21  A    between atoms: C_53  and  C_55
REMARK   22  A    between atoms: N_57  and  O_58
REMARK   23  A    between atoms: O_58  and  C_59
REMARK   24  A    between atoms: C_59  and  O_60
REMARK   25  A    between atoms: O_60  and  C_61
REMARK   26  A    between atoms: C_61  and  C_62
REMARK   27  A    between atoms: C_62  and  O_63
REMARK   28  A    between atoms: O_63  and  C_64
REMARK   29  A    between atoms: C_65  and  C_67
REMARK   30  A    between atoms: C_68  and  O_70
REMARK   31  A    between atoms: C_71  and  C_72
REMARK   32  A    between atoms: C_71  and  O_73
REMARK                            x       y       z     vdW  Elec       q    Type
REMARK                         _______ _______ _______ _____ _____    ______ ____
ROOT
ATOM      1  C   UNL     1       7.306  -2.782  24.517  0.00  0.00    +0.210 C 
ATOM      2  C   UNL     1       6.810  -3.527  25.881  0.00  0.00    +0.126 C 
ATOM      3  C   UNL     1       7.966  -4.343  26.490  0.00  0.00    +0.048 C 
ATOM      4  C   UNL     1       5.562  -4.473  25.921  0.00  0.00    +0.158 C 
ATOM      5  C   UNL     1       4.465  -4.194  27.073  0.00  0.00    +0.065 C 
ATOM      6  C   UNL     1       4.999  -4.514  28.466  0.00  0.00    +0.016 C 
ATOM      7  C   UNL     1       3.688  -2.825  26.993  0.00  0.00    +0.066 C 
ATOM      8  N   UNL     1       2.905  -2.666  25.956  0.00  0.00    -0.091 NA
ATOM      9  C   UNL     1       3.870  -1.582  28.260  0.00  0.00    +0.037 C 
ATOM     10  C   UNL     1       3.194  -2.078  29.581  0.00  0.00    +0.014 C 
ATOM     11  C   UNL     1       3.521   0.077  28.343  0.00  0.00    +0.046 C 
ATOM     12  C   UNL     1       4.543   1.261  28.136  0.00  0.00    +0.090 C 
ATOM     13  C   UNL     1       4.066   2.428  29.087  0.00  0.00    +0.044 C 
ATOM     14  C   UNL     1       4.772   2.015  26.717  0.00  0.00    +0.158 C 
ATOM     15  C   UNL     1       6.291   2.576  26.391  0.00  0.00    +0.047 C 
ATOM     16  C   UNL     1       7.199   3.008  27.584  0.00  0.00    +0.013 C 
ATOM     17  C   UNL     1       7.249   1.987  25.202  0.00  0.00    +0.140 C 
ATOM     18  C   UNL     1       7.995   0.593  25.476  0.00  0.00    +0.124 C 
ATOM     19  C   UNL     1       7.435  -0.095  26.680  0.00  0.00    +0.022 C 
ATOM     20  C   UNL     1       8.394  -0.456  24.423  0.00  0.00    +0.313 C 
ATOM     21  O   UNL     1       9.103  -0.154  23.452  0.00  0.00    -0.250 OA
ATOM     22  O   UNL     1       8.357  -1.768  24.868  0.00  0.00    -0.458 OA
ENDROOT
BRANCH   1  24
ATOM     23  C   UNL     1       6.132  -2.646  22.204  0.00  0.00    +0.007 C 
ATOM     24  C   UNL     1       6.235  -2.115  23.643  0.00  0.00    +0.044 C 
ENDBRANCH   1  24
BRANCH  12  25
ATOM     25  O   UNL     1       5.741   0.770  28.733  0.00  0.00    -0.386 OA
ATOM     26  H   UNL     1       5.961   1.283  29.528  0.00  0.00    +0.210 HD
ENDBRANCH  12  25
BRANCH   4  27
ATOM     27  O   UNL     1       5.020  -4.686  24.620  0.00  0.00    -0.388 OA
ATOM     28  H   UNL     1       5.203  -3.882  24.099  0.00  0.00    +0.210 HD
ENDBRANCH   4  27
BRANCH   2  29
ATOM     29  O   UNL     1       6.499  -2.543  26.850  0.00  0.00    -0.383 OA
ATOM     30  H   UNL     1       6.259  -3.046  27.647  0.00  0.00    +0.210 HD
ENDBRANCH   2  29
BRANCH  14  31
ATOM     31  O   UNL     1       4.185   1.580  25.501  0.00  0.00    -0.342 OA
BRANCH  31  32
ATOM     32  C   UNL     1       3.282   2.283  24.599  0.00  0.00    +0.281 C 
ATOM     33  C   UNL     1       2.145   2.971  25.366  0.00  0.00    +0.187 C 
ATOM     34  C   UNL     1       1.165   4.075  24.610  0.00  0.00    +0.092 C 
ATOM     35  C   UNL     1       1.856   4.591  23.355  0.00  0.00    +0.053 C 
ATOM     36  C   UNL     1       2.490   3.345  22.724  0.00  0.00    +0.120 C 
ATOM     37  C   UNL     1       2.666   3.517  21.225  0.00  0.00    +0.038 C 
ATOM     38  O   UNL     1       3.700   3.030  23.450  0.00  0.00    -0.346 OA
BRANCH  34  39
ATOM     39  N   UNL     1       0.537   5.232  25.362  0.00  0.00    -0.303 NA
ATOM     40  C   UNL     1       0.768   6.625  24.980  0.00  0.00    +0.105 C 
ATOM     41  C   UNL     1       0.547   5.193  26.815  0.00  0.00    +0.105 C 
ENDBRANCH  34  39
BRANCH  33  42
ATOM     42  O   UNL     1       1.591   1.785  26.002  0.00  0.00    -0.385 OA
ATOM     43  H   UNL     1       2.297   1.286  26.412  0.00  0.00    +0.210 HD
ENDBRANCH  33  42
ENDBRANCH  31  32
ENDBRANCH  14  31
BRANCH  17  44
ATOM     44  O   UNL     1       6.916   2.393  23.826  0.00  0.00    -0.347 OA
BRANCH  44  45
ATOM     45  C   UNL     1       7.979   3.097  23.084  0.00  0.00    +0.254 C 
ATOM     46  O   UNL     1       9.228   3.366  23.776  0.00  0.00    -0.346 OA
ATOM     47  C   UNL     1       9.706   4.713  24.017  0.00  0.00    +0.149 C 
ATOM     48  C   UNL     1      11.205   4.822  23.676  0.00  0.00    +0.041 C 
ATOM     49  C   UNL     1       9.026   5.909  23.295  0.00  0.00    +0.175 C 
ATOM     50  C   UNL     1       7.546   5.627  23.111  0.00  0.00    +0.099 C 
ATOM     51  C   UNL     1       6.868   6.729  22.282  0.00  0.00    +0.044 C 
ATOM     52  C   UNL     1       7.505   4.329  22.319  0.00  0.00    +0.098 C 
BRANCH  50  53
ATOM     53  O   UNL     1       7.065   5.651  24.458  0.00  0.00    -0.374 OA
ATOM     54  C   UNL     1       5.696   5.818  24.728  0.00  0.00    +0.194 C 
ENDBRANCH  50  53
BRANCH  49  55
ATOM     55  O   UNL     1       9.204   7.108  24.069  0.00  0.00    -0.386 OA
ATOM     56  H   UNL     1       8.930   6.848  24.975  0.00  0.00    +0.210 HD
ENDBRANCH  49  55
ENDBRANCH  44  45
ENDBRANCH  17  44
BRANCH   8  57
ATOM     57  O   UNL     1       2.755  -3.723  25.000  0.00  0.00    -0.365 OA
BRANCH  57  58
ATOM     58  C   UNL     1       1.425  -4.331  25.009  0.00  0.00    +0.426 C 
BRANCH  58  59
ATOM     59  O   UNL     1       1.013  -4.868  23.752  0.00  0.00    -0.340 OA
BRANCH  59  60
ATOM     60  C   UNL     1       2.018  -5.664  23.132  0.00  0.00    +0.192 C 
BRANCH  60  61
ATOM     61  C   UNL     1       2.029  -7.050  23.761  0.00  0.00    +0.187 C 
BRANCH  61  62
ATOM     62  O   UNL     1       3.366  -7.365  24.164  0.00  0.00    -0.381 OA
ATOM     63  C   UNL     1       3.464  -7.523  25.578  0.00  0.00    +0.194 C 
ENDBRANCH  61  62
ENDBRANCH  60  61
ENDBRANCH  59  60
ENDBRANCH  58  59
ENDBRANCH  57  58
ENDBRANCH   8  57
TORSDOF 18
ENDMDL
MODEL 2
REMARK VINA RESULT:      -5.1      1.417      2.414
REMARK  Name = 
REMARK  32 active torsions:
REMARK  status: ('A' for Active; 'I' for Inactive)
REMARK    1  A    between atoms: C_1  and  C_2
REMARK    2  A    between atoms: C_2  and  C_3
REMARK    3  A    between atoms: C_8  and  C_10
REMARK    4  A    between atoms: C_11  and  O_13
REMARK    5  A    between atoms: O_13  and  C_14
REMARK    6  A    between atoms: C_17  and  C_18
REMARK    7  A    between atoms: C_17  and  O_19
REMARK    8  A    between atoms: O_19  and  C_20
REMARK    9  A    between atoms: C_21  and  O_23
REMARK   10  A    between atoms: C_24  and  C_26
REMARK   11  A    between atoms: C_28  and  C_30
REMARK   12  A    between atoms: C_31  and  O_33
REMARK   13  A    between atoms: O_33  and  C_34
REMARK   14  A    between atoms: C_37  and  C_39
REMARK   15  A    between atoms: C_41  and  N_46
REMARK   16  A    between atoms: C_43  and  O_45
REMARK   17  A    between atoms: N_46  and  C_47
REMARK   18  A    between atoms: N_46  and  C_48
REMARK   19  A    between atoms: C_49  and  C_50
REMARK   20  A    between atoms: C_49  and  O_51
REMARK   21  A    between atoms: C_53  and  C_55
REMARK   22  A    between atoms: N_57  and  O_58
REMARK   23  A    between atoms: O_58  and  C_59
REMARK   24  A    between atoms: C_59  and  O_60
REMARK   25  A    between atoms: O_60  and  C_61
REMARK   26  A    between atoms: C_61  and  C_62
REMARK   27  A    between atoms: C_62  and  O_63
REMARK   28  A    between atoms: O_63  and  C_64
REMARK   29  A    between atoms: C_65  and  C_67
REMARK   30  A    between atoms: C_68  and  O_70
REMARK   31  A    between atoms: C_71  and  C_72
REMARK   32  A    between atoms: C_71  and  O_73
REMARK                            x       y       z     vdW  Elec       q    Type
REMARK                         _______ _______ _______ _____ _____    ______ ____
ROOT
ATOM      1  C   UNL     1       6.686  -2.635  25.313  0.00  0.00    +0.210 C 
ATOM      2  C   UNL     1       5.900  -3.474  26.471  0.00  0.00    +0.126 C 
ATOM      3  C   UNL     1       6.824  -4.558  27.059  0.00  0.00    +0.048 C 
ATOM      4  C   UNL     1       4.528  -4.185  26.216  0.00  0.00    +0.158 C 
ATOM      5  C   UNL     1       3.341  -3.891  27.270  0.00  0.00    +0.065 C 
ATOM      6  C   UNL     1       3.625  -4.498  28.641  0.00  0.00    +0.016 C 
ATOM      7  C   UNL     1       2.802  -2.411  27.334  0.00  0.00    +0.066 C 
ATOM      8  N   UNL     1       2.201  -1.969  26.258  0.00  0.00    -0.091 NA
ATOM      9  C   UNL     1       2.999  -1.417  28.802  0.00  0.00    +0.037 C 
ATOM     10  C   UNL     1       2.081  -1.975  29.940  0.00  0.00    +0.014 C 
ATOM     11  C   UNL     1       2.902   0.248  29.120  0.00  0.00    +0.046 C 
ATOM     12  C   UNL     1       4.112   1.254  29.227  0.00  0.00    +0.090 C 
ATOM     13  C   UNL     1       3.695   2.334  30.299  0.00  0.00    +0.044 C 
ATOM     14  C   UNL     1       4.645   2.156  27.987  0.00  0.00    +0.158 C 
ATOM     15  C   UNL     1       6.262   2.486  27.927  0.00  0.00    +0.047 C 
ATOM     16  C   UNL     1       7.055   2.575  29.268  0.00  0.00    +0.013 C 
ATOM     17  C   UNL     1       7.271   1.919  26.770  0.00  0.00    +0.140 C 
ATOM     18  C   UNL     1       7.749   0.392  26.889  0.00  0.00    +0.124 C 
ATOM     19  C   UNL     1       6.931  -0.356  27.893  0.00  0.00    +0.022 C 
ATOM     20  C   UNL     1       8.122  -0.545  25.726  0.00  0.00    +0.313 C 
ATOM     21  O   UNL     1       8.994  -0.233  24.903  0.00  0.00    -0.250 OA
ATOM     22  O   UNL     1       7.823  -1.882  25.941  0.00  0.00    -0.458 OA
ENDROOT
BRANCH   1  24
ATOM     23  C   UNL     1       6.095  -1.777  22.933  0.00  0.00    +0.007 C 
ATOM     24  C   UNL     1       5.859  -1.673  24.449  0.00  0.00    +0.044 C 
ENDBRANCH   1  24
BRANCH  12  25
ATOM     25  O   UNL     1       5.128   0.482  29.862  0.00  0.00    -0.386 OA
ATOM     26  H   UNL     1       4.930   0.369  30.806  0.00  0.00    +0.210 HD
ENDBRANCH  12  25
BRANCH   4  27
ATOM     27  O   UNL     1       4.142  -4.109  24.845  0.00  0.00    -0.388 OA
ATOM     28  H   UNL     1       3.291  -4.580  24.762  0.00  0.00    +0.210 HD
ENDBRANCH   4  27
BRANCH   2  29
ATOM     29  O   UNL     1       5.616  -2.603  27.550  0.00  0.00    -0.383 OA
ATOM     30  H   UNL     1       4.965  -1.973  27.196  0.00  0.00    +0.210 HD
ENDBRANCH   2  29
BRANCH  14  31
ATOM     31  O   UNL     1       4.168   2.011  26.657  0.00  0.00    -0.342 OA
BRANCH  31  32
ATOM     32  C   UNL     1       3.707   3.024  25.718  0.00  0.00    +0.281 C 
ATOM     33  C   UNL     1       3.486   2.434  24.319  0.00  0.00    +0.187 C 
ATOM     34  C   UNL     1       2.684   3.301  23.154  0.00  0.00    +0.092 C 
ATOM     35  C   UNL     1       1.864   4.400  23.816  0.00  0.00    +0.053 C 
ATOM     36  C   UNL     1       2.783   4.963  24.907  0.00  0.00    +0.120 C 
ATOM     37  C   UNL     1       2.429   6.403  25.235  0.00  0.00    +0.038 C 
ATOM     38  O   UNL     1       2.766   4.056  26.033  0.00  0.00    -0.346 OA
BRANCH  34  39
ATOM     39  N   UNL     1       1.857   2.620  22.081  0.00  0.00    -0.303 NA
ATOM     40  C   UNL     1       1.971   2.981  20.668  0.00  0.00    +0.105 C 
ATOM     41  C   UNL     1       0.444   2.396  22.340  0.00  0.00    +0.105 C 
ENDBRANCH  34  39
BRANCH  33  42
ATOM     42  O   UNL     1       4.839   1.946  24.095  0.00  0.00    -0.385 OA
ATOM     43  H   UNL     1       4.835   1.323  23.369  0.00  0.00    +0.210 HD
ENDBRANCH  33  42
ENDBRANCH  31  32
ENDBRANCH  14  31
BRANCH  17  44
ATOM     44  O   UNL     1       7.194   2.574  25.453  0.00  0.00    -0.347 OA
BRANCH  44  45
ATOM     45  C   UNL     1       7.212   4.049  25.462  0.00  0.00    +0.254 C 
ATOM     46  O   UNL     1       6.221   4.747  24.661  0.00  0.00    -0.346 OA
ATOM     47  C   UNL     1       6.587   5.615  23.558  0.00  0.00    +0.149 C 
ATOM     48  C   UNL     1       5.783   6.928  23.618  0.00  0.00    +0.041 C 
ATOM     49  C   UNL     1       8.070   6.041  23.378  0.00  0.00    +0.175 C 
ATOM     50  C   UNL     1       8.988   4.919  23.826  0.00  0.00    +0.099 C 
ATOM     51  C   UNL     1      10.461   5.355  23.786  0.00  0.00    +0.044 C 
ATOM     52  C   UNL     1       8.595   4.664  25.273  0.00  0.00    +0.098 C 
BRANCH  50  53
ATOM     53  O   UNL     1       8.741   3.915  22.837  0.00  0.00    -0.374 OA
ATOM     54  C   UNL     1       9.430   2.691  22.869  0.00  0.00    +0.194 C 
ENDBRANCH  50  53
BRANCH  49  55
ATOM     55  O   UNL     1       8.320   6.358  21.998  0.00  0.00    -0.386 OA
ATOM     56  H   UNL     1       8.350   5.482  21.555  0.00  0.00    +0.210 HD
ENDBRANCH  49  55
ENDBRANCH  44  45
ENDBRANCH  17  44
BRANCH   8  57
ATOM     57  O   UNL     1       2.022  -2.834  25.129  0.00  0.00    -0.365 OA
BRANCH  57  58
ATOM     58  C   UNL     1       0.693  -3.440  25.065  0.00  0.00    +0.426 C 
BRANCH  58  59
ATOM     59  O   UNL     1       0.688  -4.815  24.684  0.00  0.00    -0.340 OA
BRANCH  59  60
ATOM     60  C   UNL     1       0.881  -5.005  23.286  0.00  0.00    +0.192 C 
BRANCH  60  61
ATOM     61  C   UNL     1       1.517  -6.365  23.040  0.00  0.00    +0.187 C 
BRANCH  61  62
ATOM     62  O   UNL     1       2.834  -6.369  23.601  0.00  0.00    -0.381 OA
ATOM     63  C   UNL     1       3.071  -7.542  24.376  0.00  0.00    +0.194 C 
ENDBRANCH  61  62
ENDBRANCH  60  61
ENDBRANCH  59  60
ENDBRANCH  58  59
ENDBRANCH  57  58
ENDBRANCH   8  57
TORSDOF 18
ENDMDL
MODEL 3
REMARK VINA RESULT:      -5.1      1.177      1.877
REMARK  Name = 
REMARK  32 active torsions:
REMARK  status: ('A' for Active; 'I' for Inactive)
REMARK    1  A    between atoms: C_1  and  C_2
REMARK    2  A    between atoms: C_2  and  C_3
REMARK    3  A    between atoms: C_8  and  C_10
REMARK    4  A    between atoms: C_11  and  O_13
REMARK    5  A    between atoms: O_13  and  C_14
REMARK    6  A    between atoms: C_17  and  C_18
REMARK    7  A    between atoms: C_17  and  O_19
REMARK    8  A    between atoms: O_19  and  C_20
REMARK    9  A    between atoms: C_21  and  O_23
REMARK   10  A    between atoms: C_24  and  C_26
REMARK   11  A    between atoms: C_28  and  C_30
REMARK   12  A    between atoms: C_31  and  O_33
REMARK   13  A    between atoms: O_33  and  C_34
REMARK   14  A    between atoms: C_37  and  C_39
REMARK   15  A    between atoms: C_41  and  N_46
REMARK   16  A    between atoms: C_43  and  O_45
REMARK   17  A    between atoms: N_46  and  C_47
REMARK   18  A    between atoms: N_46  and  C_48
REMARK   19  A    between atoms: C_49  and  C_50
REMARK   20  A    between atoms: C_49  and  O_51
REMARK   21  A    between atoms: C_53  and  C_55
REMARK   22  A    between atoms: N_57  and  O_58
REMARK   23  A    between atoms: O_58  and  C_59
REMARK   24  A    between atoms: C_59  and  O_60
REMARK   25  A    between atoms: O_60  and  C_61
REMARK   26  A    between atoms: C_61  and  C_62
REMARK   27  A    between atoms: C_62  and  O_63
REMARK   28  A    between atoms: O_63  and  C_64
REMARK   29  A    between atoms: C_65  and  C_67
REMARK   30  A    between atoms: C_68  and  O_70
REMARK   31  A    between atoms: C_71  and  C_72
REMARK   32  A    between atoms: C_71  and  O_73
REMARK                            x       y       z     vdW  Elec       q    Type
REMARK                         _______ _______ _______ _____ _____    ______ ____
ROOT
ATOM      1  C   UNL     1       7.588  -2.614  25.028  0.00  0.00    +0.210 C 
ATOM      2  C   UNL     1       6.879  -3.672  26.048  0.00  0.00    +0.126 C 
ATOM      3  C   UNL     1       7.948  -4.551  26.727  0.00  0.00    +0.048 C 
ATOM      4  C   UNL     1       5.752  -4.660  25.592  0.00  0.00    +0.158 C 
ATOM      5  C   UNL     1       4.406  -4.701  26.483  0.00  0.00    +0.065 C 
ATOM      6  C   UNL     1       4.649  -5.304  27.864  0.00  0.00    +0.016 C 
ATOM      7  C   UNL     1       3.536  -3.388  26.512  0.00  0.00    +0.066 C 
ATOM      8  N   UNL     1       2.989  -3.034  25.377  0.00  0.00    -0.091 NA
ATOM      9  C   UNL     1       3.312  -2.459  28.018  0.00  0.00    +0.037 C 
ATOM     10  C   UNL     1       2.413  -3.272  29.007  0.00  0.00    +0.014 C 
ATOM     11  C   UNL     1       2.793  -0.879  28.363  0.00  0.00    +0.046 C 
ATOM     12  C   UNL     1       3.714   0.367  28.657  0.00  0.00    +0.090 C 
ATOM     13  C   UNL     1       2.927   1.263  29.692  0.00  0.00    +0.044 C 
ATOM     14  C   UNL     1       4.174   1.433  27.524  0.00  0.00    +0.158 C 
ATOM     15  C   UNL     1       5.666   2.124  27.692  0.00  0.00    +0.047 C 
ATOM     16  C   UNL     1       6.242   2.315  29.129  0.00  0.00    +0.013 C 
ATOM     17  C   UNL     1       6.915   1.866  26.667  0.00  0.00    +0.140 C 
ATOM     18  C   UNL     1       7.715   0.482  26.810  0.00  0.00    +0.124 C 
ATOM     19  C   UNL     1       6.974  -0.486  27.675  0.00  0.00    +0.022 C 
ATOM     20  C   UNL     1       8.438  -0.280  25.685  0.00  0.00    +0.313 C 
ATOM     21  O   UNL     1       9.310   0.267  24.994  0.00  0.00    -0.250 OA
ATOM     22  O   UNL     1       8.432  -1.660  25.823  0.00  0.00    -0.458 OA
ENDROOT
BRANCH   1  24
ATOM     23  C   UNL     1       7.077  -1.840  22.602  0.00  0.00    +0.007 C 
ATOM     24  C   UNL     1       6.676  -1.818  24.085  0.00  0.00    +0.044 C 
ENDBRANCH   1  24
BRANCH  12  25
ATOM     25  O   UNL     1       4.793  -0.190  29.404  0.00  0.00    -0.386 OA
ATOM     26  H   UNL     1       4.956  -1.109  29.133  0.00  0.00    +0.210 HD
ENDBRANCH  12  25
BRANCH   4  27
ATOM     27  O   UNL     1       5.533  -4.597  24.184  0.00  0.00    -0.388 OA
ATOM     28  H   UNL     1       4.587  -4.400  24.051  0.00  0.00    +0.210 HD
ENDBRANCH   4  27
BRANCH   2  29
ATOM     29  O   UNL     1       6.268  -2.950  27.101  0.00  0.00    -0.383 OA
ATOM     30  H   UNL     1       6.806  -2.145  27.194  0.00  0.00    +0.210 HD
ENDBRANCH   2  29
BRANCH  14  31
ATOM     31  O   UNL     1       3.915   1.260  26.140  0.00  0.00    -0.342 OA
BRANCH  31  32
ATOM     32  C   UNL     1       3.256   2.152  25.196  0.00  0.00    +0.281 C 
ATOM     33  C   UNL     1       2.358   3.167  25.917  0.00  0.00    +0.187 C 
ATOM     34  C   UNL     1       1.738   4.473  25.102  0.00  0.00    +0.092 C 
ATOM     35  C   UNL     1       2.556   4.718  23.842  0.00  0.00    +0.053 C 
ATOM     36  C   UNL     1       2.812   3.318  23.269  0.00  0.00    +0.120 C 
ATOM     37  C   UNL     1       3.038   3.371  21.768  0.00  0.00    +0.038 C 
ATOM     38  O   UNL     1       3.876   2.701  24.028  0.00  0.00    -0.346 OA
BRANCH  34  39
ATOM     39  N   UNL     1       1.463   5.791  25.800  0.00  0.00    -0.303 NA
ATOM     40  C   UNL     1       2.141   7.029  25.417  0.00  0.00    +0.105 C 
ATOM     41  C   UNL     1       1.377   5.795  27.251  0.00  0.00    +0.105 C 
ENDBRANCH  34  39
BRANCH  33  42
ATOM     42  O   UNL     1       1.485   2.216  26.588  0.00  0.00    -0.385 OA
ATOM     43  H   UNL     1       0.612   2.596  26.677  0.00  0.00    +0.210 HD
ENDBRANCH  33  42
ENDBRANCH  31  32
ENDBRANCH  14  31
BRANCH  17  44
ATOM     44  O   UNL     1       6.854   2.558  25.368  0.00  0.00    -0.347 OA
BRANCH  44  45
ATOM     45  C   UNL     1       6.953   4.030  25.415  0.00  0.00    +0.254 C 
ATOM     46  O   UNL     1       5.996   4.801  24.641  0.00  0.00    -0.346 OA
ATOM     47  C   UNL     1       6.401   5.676  23.559  0.00  0.00    +0.149 C 
ATOM     48  C   UNL     1       5.670   7.029  23.659  0.00  0.00    +0.041 C 
ATOM     49  C   UNL     1       7.903   6.027  23.377  0.00  0.00    +0.175 C 
ATOM     50  C   UNL     1       8.762   4.845  23.788  0.00  0.00    +0.099 C 
ATOM     51  C   UNL     1      10.256   5.202  23.748  0.00  0.00    +0.044 C 
ATOM     52  C   UNL     1       8.366   4.574  25.231  0.00  0.00    +0.098 C 
BRANCH  50  53
ATOM     53  O   UNL     1       8.454   3.882  22.776  0.00  0.00    -0.374 OA
ATOM     54  C   UNL     1       9.197   2.695  22.664  0.00  0.00    +0.194 C 
ENDBRANCH  50  53
BRANCH  49  55
ATOM     55  O   UNL     1       8.160   6.365  22.004  0.00  0.00    -0.386 OA
ATOM     56  H   UNL     1       9.100   6.651  22.001  0.00  0.00    +0.210 HD
ENDBRANCH  49  55
ENDBRANCH  44  45
ENDBRANCH  17  44
BRANCH   8  57
ATOM     57  O   UNL     1       3.157  -3.852  24.212  0.00  0.00    -0.365 OA
BRANCH  57  58
ATOM     58  C   UNL     1       1.985  -4.668  23.899  0.00  0.00    +0.426 C 
BRANCH  58  59
ATOM     59  O   UNL     1       2.179  -5.596  22.833  0.00  0.00    -0.340 OA
BRANCH  59  60
ATOM     60  C   UNL     1       1.960  -6.947  23.226  0.00  0.00    +0.192 C 
BRANCH  60  61
ATOM     61  C   UNL     1       3.063  -7.386  24.177  0.00  0.00    +0.187 C 
BRANCH  61  62
ATOM     62  O   UNL     1       2.673  -8.612  24.805  0.00  0.00    -0.381 OA
ATOM     63  C   UNL     1       1.349  -8.993  24.435  0.00  0.00    +0.194 C 
ENDBRANCH  61  62
ENDBRANCH  60  61
ENDBRANCH  59  60
ENDBRANCH  58  59
ENDBRANCH  57  58
ENDBRANCH   8  57
TORSDOF 18
ENDMDL
MODEL 4
REMARK VINA RESULT:      -4.7      2.222      9.383
REMARK  Name = 
REMARK  32 active torsions:
REMARK  status: ('A' for Active; 'I' for Inactive)
REMARK    1  A    between atoms: C_1  and  C_2
REMARK    2  A    between atoms: C_2  and  C_3
REMARK    3  A    between atoms: C_8  and  C_10
REMARK    4  A    between atoms: C_11  and  O_13
REMARK    5  A    between atoms: O_13  and  C_14
REMARK    6  A    between atoms: C_17  and  C_18
REMARK    7  A    between atoms: C_17  and  O_19
REMARK    8  A    between atoms: O_19  and  C_20
REMARK    9  A    between atoms: C_21  and  O_23
REMARK   10  A    between atoms: C_24  and  C_26
REMARK   11  A    between atoms: C_28  and  C_30
REMARK   12  A    between atoms: C_31  and  O_33
REMARK   13  A    between atoms: O_33  and  C_34
REMARK   14  A    between atoms: C_37  and  C_39
REMARK   15  A    between atoms: C_41  and  N_46
REMARK   16  A    between atoms: C_43  and  O_45
REMARK   17  A    between atoms: N_46  and  C_47
REMARK   18  A    between atoms: N_46  and  C_48
REMARK   19  A    between atoms: C_49  and  C_50
REMARK   20  A    between atoms: C_49  and  O_51
REMARK   21  A    between atoms: C_53  and  C_55
REMARK   22  A    between atoms: N_57  and  O_58
REMARK   23  A    between atoms: O_58  and  C_59
REMARK   24  A    between atoms: C_59  and  O_60
REMARK   25  A    between atoms: O_60  and  C_61
REMARK   26  A    between atoms: C_61  and  C_62
REMARK   27  A    between atoms: C_62  and  O_63
REMARK   28  A    between atoms: O_63  and  C_64
REMARK   29  A    between atoms: C_65  and  C_67
REMARK   30  A    between atoms: C_68  and  O_70
REMARK   31  A    between atoms: C_71  and  C_72
REMARK   32  A    between atoms: C_71  and  O_73
REMARK                            x       y       z     vdW  Elec       q    Type
REMARK                         _______ _______ _______ _____ _____    ______ ____
ROOT
ATOM      1  C   UNL     1       2.060   3.828  25.199  0.00  0.00    +0.210 C 
ATOM      2  C   UNL     1       2.721   5.080  26.010  0.00  0.00    +0.126 C 
ATOM      3  C   UNL     1       1.615   6.016  26.534  0.00  0.00    +0.048 C 
ATOM      4  C   UNL     1       3.801   6.021  25.377  0.00  0.00    +0.158 C 
ATOM      5  C   UNL     1       5.145   6.279  26.234  0.00  0.00    +0.065 C 
ATOM      6  C   UNL     1       4.877   7.104  27.490  0.00  0.00    +0.016 C 
ATOM      7  C   UNL     1       6.074   5.031  26.485  0.00  0.00    +0.066 C 
ATOM      8  N   UNL     1       6.635   4.508  25.425  0.00  0.00    -0.091 NA
ATOM      9  C   UNL     1       6.343   4.393  28.129  0.00  0.00    +0.037 C 
ATOM     10  C   UNL     1       7.205   5.407  28.951  0.00  0.00    +0.014 C 
ATOM     11  C   UNL     1       6.934   2.924  28.742  0.00  0.00    +0.046 C 
ATOM     12  C   UNL     1       6.071   1.710  29.260  0.00  0.00    +0.090 C 
ATOM     13  C   UNL     1       6.899   1.045  30.428  0.00  0.00    +0.044 C 
ATOM     14  C   UNL     1       5.658   0.440  28.336  0.00  0.00    +0.158 C 
ATOM     15  C   UNL     1       4.200  -0.276  28.637  0.00  0.00    +0.047 C 
ATOM     16  C   UNL     1       3.635  -0.236  30.091  0.00  0.00    +0.013 C 
ATOM     17  C   UNL     1       2.938  -0.258  27.595  0.00  0.00    +0.140 C 
ATOM     18  C   UNL     1       2.076   1.092  27.499  0.00  0.00    +0.124 C 
ATOM     19  C   UNL     1       2.774   2.230  28.174  0.00  0.00    +0.022 C 
ATOM     20  C   UNL     1       1.318   1.611  26.265  0.00  0.00    +0.313 C 
ATOM     21  O   UNL     1       0.471   0.912  25.690  0.00  0.00    -0.250 OA
ATOM     22  O   UNL     1       1.261   2.992  26.157  0.00  0.00    -0.458 OA
ENDROOT
BRANCH   1  24
ATOM     23  C   UNL     1       2.891   3.023  22.874  0.00  0.00    +0.007 C 
ATOM     24  C   UNL     1       3.005   2.919  24.403  0.00  0.00    +0.044 C 
ENDBRANCH   1  24
BRANCH  12  25
ATOM     25  O   UNL     1       4.969   2.340  29.906  0.00  0.00    -0.386 OA
ATOM     26  H   UNL     1       5.074   2.306  30.872  0.00  0.00    +0.210 HD
ENDBRANCH  12  25
BRANCH   4  27
ATOM     27  O   UNL     1       4.020   5.721  24.000  0.00  0.00    -0.388 OA
ATOM     28  H   UNL     1       3.282   5.152  23.711  0.00  0.00    +0.210 HD
ENDBRANCH   4  27
BRANCH   2  29
ATOM     29  O   UNL     1       3.366   4.582  27.168  0.00  0.00    -0.383 OA
ATOM     30  H   UNL     1       3.932   3.860  26.846  0.00  0.00    +0.210 HD
ENDBRANCH   2  29
BRANCH  14  31
ATOM     31  O   UNL     1       5.907   0.379  26.940  0.00  0.00    -0.342 OA
BRANCH  31  32
ATOM     32  C   UNL     1       6.698  -0.577  26.177  0.00  0.00    +0.281 C 
ATOM     33  C   UNL     1       7.086  -0.014  24.803  0.00  0.00    +0.187 C 
ATOM     34  C   UNL     1       8.227  -0.776  23.870  0.00  0.00    +0.092 C 
ATOM     35  C   UNL     1       9.070  -1.690  24.748  0.00  0.00    +0.053 C 
ATOM     36  C   UNL     1       8.061  -2.359  25.691  0.00  0.00    +0.120 C 
ATOM     37  C   UNL     1       8.574  -3.702  26.181  0.00  0.00    +0.038 C 
ATOM     38  O   UNL     1       7.715  -1.418  26.732  0.00  0.00    -0.346 OA
BRANCH  34  39
ATOM     39  N   UNL     1       9.124  -0.007  22.920  0.00  0.00    -0.303 NA
ATOM     40  C   UNL     1       9.811  -0.656  21.804  0.00  0.00    +0.105 C 
ATOM     41  C   UNL     1      10.059   0.953  23.483  0.00  0.00    +0.105 C 
ENDBRANCH  34  39
BRANCH  33  42
ATOM     42  O   UNL     1       5.741   0.224  24.300  0.00  0.00    -0.385 OA
ATOM     43  H   UNL     1       5.449   1.093  24.575  0.00  0.00    +0.210 HD
ENDBRANCH  33  42
ENDBRANCH  31  32
ENDBRANCH  14  31
BRANCH  17  44
ATOM     44  O   UNL     1       3.029  -1.165  26.438  0.00  0.00    -0.347 OA
BRANCH  44  45
ATOM     45  C   UNL     1       2.822  -2.598  26.722  0.00  0.00    +0.254 C 
ATOM     46  O   UNL     1       3.776  -3.263  27.594  0.00  0.00    -0.346 OA
ATOM     47  C   UNL     1       4.603  -4.364  27.141  0.00  0.00    +0.149 C 
ATOM     48  C   UNL     1       4.606  -5.500  28.182  0.00  0.00    +0.041 C 
ATOM     49  C   UNL     1       4.294  -5.046  25.780  0.00  0.00    +0.175 C 
ATOM     50  C   UNL     1       3.752  -4.022  24.800  0.00  0.00    +0.099 C 
ATOM     51  C   UNL     1       3.310  -4.687  23.487  0.00  0.00    +0.044 C 
ATOM     52  C   UNL     1       2.525  -3.449  25.492  0.00  0.00    +0.098 C 
BRANCH  50  53
ATOM     53  O   UNL     1       4.893  -3.188  24.576  0.00  0.00    -0.374 OA
ATOM     54  C   UNL     1       5.341  -2.921  23.270  0.00  0.00    +0.194 C 
ENDBRANCH  50  53
BRANCH  49  55
ATOM     55  O   UNL     1       5.491  -5.644  25.253  0.00  0.00    -0.386 OA
ATOM     56  H   UNL     1       5.263  -5.848  24.320  0.00  0.00    +0.210 HD
ENDBRANCH  49  55
ENDBRANCH  44  45
ENDBRANCH  17  44
BRANCH   8  57
ATOM     57  O   UNL     1       6.428   5.099  24.136  0.00  0.00    -0.365 OA
BRANCH  57  58
ATOM     58  C   UNL     1       7.660   5.574  23.508  0.00  0.00    +0.426 C 
BRANCH  58  59
ATOM     59  O   UNL     1       8.847   5.293  24.249  0.00  0.00    -0.340 OA
BRANCH  59  60
ATOM     60  C   UNL     1       9.968   6.055  23.811  0.00  0.00    +0.192 C 
BRANCH  60  61
ATOM     61  C   UNL     1      11.203   5.167  23.773  0.00  0.00    +0.187 C 
BRANCH  61  62
ATOM     62  O   UNL     1      12.342   5.971  23.448  0.00  0.00    -0.381 OA
ATOM     63  C   UNL     1      13.223   5.296  22.553  0.00  0.00    +0.194 C 
ENDBRANCH  61  62
ENDBRANCH  60  61
ENDBRANCH  59  60
ENDBRANCH  58  59
ENDBRANCH  57  58
ENDBRANCH   8  57
TORSDOF 18
ENDMDL
MODEL 5
REMARK VINA RESULT:      -3.9      2.156      9.150
REMARK  Name = 
REMARK  32 active torsions:
REMARK  status: ('A' for Active; 'I' for Inactive)
REMARK    1  A    between atoms: C_1  and  C_2
REMARK    2  A    between atoms: C_2  and  C_3
REMARK    3  A    between atoms: C_8  and  C_10
REMARK    4  A    between atoms: C_11  and  O_13
REMARK    5  A    between atoms: O_13  and  C_14
REMARK    6  A    between atoms: C_17  and  C_18
REMARK    7  A    between atoms: C_17  and  O_19
REMARK    8  A    between atoms: O_19  and  C_20
REMARK    9  A    between atoms: C_21  and  O_23
REMARK   10  A    between atoms: C_24  and  C_26
REMARK   11  A    between atoms: C_28  and  C_30
REMARK   12  A    between atoms: C_31  and  O_33
REMARK   13  A    between atoms: O_33  and  C_34
REMARK   14  A    between atoms: C_37  and  C_39
REMARK   15  A    between atoms: C_41  and  N_46
REMARK   16  A    between atoms: C_43  and  O_45
REMARK   17  A    between atoms: N_46  and  C_47
REMARK   18  A    between atoms: N_46  and  C_48
REMARK   19  A    between atoms: C_49  and  C_50
REMARK   20  A    between atoms: C_49  and  O_51
REMARK   21  A    between atoms: C_53  and  C_55
REMARK   22  A    between atoms: N_57  and  O_58
REMARK   23  A    between atoms: O_58  and  C_59
REMARK   24  A    between atoms: C_59  and  O_60
REMARK   25  A    between atoms: O_60  and  C_61
REMARK   26  A    between atoms: C_61  and  C_62
REMARK   27  A    between atoms: C_62  and  O_63
REMARK   28  A    between atoms: O_63  and  C_64
REMARK   29  A    between atoms: C_65  and  C_67
REMARK   30  A    between atoms: C_68  and  O_70
REMARK   31  A    between atoms: C_71  and  C_72
REMARK   32  A    between atoms: C_71  and  O_73
REMARK                            x       y       z     vdW  Elec       q    Type
REMARK                         _______ _______ _______ _____ _____    ______ ____
ROOT
ATOM      1  C   UNL     1       1.709   3.583  25.550  0.00  0.00    +0.210 C 
ATOM      2  C   UNL     1       2.372   4.895  26.258  0.00  0.00    +0.126 C 
ATOM      3  C   UNL     1       1.278   5.741  26.938  0.00  0.00    +0.048 C 
ATOM      4  C   UNL     1       3.267   5.915  25.477  0.00  0.00    +0.158 C 
ATOM      5  C   UNL     1       4.694   6.294  26.132  0.00  0.00    +0.065 C 
ATOM      6  C   UNL     1       4.541   7.108  27.413  0.00  0.00    +0.016 C 
ATOM      7  C   UNL     1       5.751   5.131  26.245  0.00  0.00    +0.066 C 
ATOM      8  N   UNL     1       6.196   4.644  25.114  0.00  0.00    -0.091 NA
ATOM      9  C   UNL     1       6.307   4.535  27.832  0.00  0.00    +0.037 C 
ATOM     10  C   UNL     1       7.189   5.627  28.522  0.00  0.00    +0.014 C 
ATOM     11  C   UNL     1       7.101   3.128  28.352  0.00  0.00    +0.046 C 
ATOM     12  C   UNL     1       6.426   1.851  28.988  0.00  0.00    +0.090 C 
ATOM     13  C   UNL     1       7.467   1.272  30.024  0.00  0.00    +0.044 C 
ATOM     14  C   UNL     1       5.992   0.542  28.132  0.00  0.00    +0.158 C 
ATOM     15  C   UNL     1       4.658  -0.290  28.640  0.00  0.00    +0.047 C 
ATOM     16  C   UNL     1       4.307  -0.281  30.160  0.00  0.00    +0.013 C 
ATOM     17  C   UNL     1       3.263  -0.389  27.790  0.00  0.00    +0.140 C 
ATOM     18  C   UNL     1       2.286   0.884  27.822  0.00  0.00    +0.124 C 
ATOM     19  C   UNL     1       2.975   2.083  28.389  0.00  0.00    +0.022 C 
ATOM     20  C   UNL     1       1.317   1.324  26.710  0.00  0.00    +0.313 C 
ATOM     21  O   UNL     1       0.457   0.551  26.263  0.00  0.00    -0.250 OA
ATOM     22  O   UNL     1       1.130   2.694  26.613  0.00  0.00    -0.458 OA
ENDROOT
BRANCH   1  24
ATOM     23  C   UNL     1       2.392   2.973  23.120  0.00  0.00    +0.007 C 
ATOM     24  C   UNL     1       2.603   2.747  24.625  0.00  0.00    +0.044 C 
ENDBRANCH   1  24
BRANCH  12  25
ATOM     25  O   UNL     1       5.379   2.396  29.787  0.00  0.00    -0.386 OA
ATOM     26  H   UNL     1       5.225   3.327  29.559  0.00  0.00    +0.210 HD
ENDBRANCH  12  25
BRANCH   4  27
ATOM     27  O   UNL     1       3.311   5.619  24.083  0.00  0.00    -0.388 OA
ATOM     28  H   UNL     1       3.114   6.449  23.608  0.00  0.00    +0.210 HD
ENDBRANCH   4  27
BRANCH   2  29
ATOM     29  O   UNL     1       3.217   4.465  27.311  0.00  0.00    -0.383 OA
ATOM     30  H   UNL     1       4.114   4.494  26.936  0.00  0.00    +0.210 HD
ENDBRANCH   2  29
BRANCH  14  31
ATOM     31  O   UNL     1       6.042   0.486  26.715  0.00  0.00    -0.342 OA
BRANCH  31  32
ATOM     32  C   UNL     1       6.908  -0.297  25.844  0.00  0.00    +0.281 C 
ATOM     33  C   UNL     1       7.723  -1.327  26.639  0.00  0.00    +0.187 C 
ATOM     34  C   UNL     1       8.551  -2.533  25.858  0.00  0.00    +0.092 C 
ATOM     35  C   UNL     1       7.985  -2.710  24.456  0.00  0.00    +0.053 C 
ATOM     36  C   UNL     1       7.753  -1.281  23.950  0.00  0.00    +0.120 C 
ATOM     37  C   UNL     1       7.799  -1.221  22.433  0.00  0.00    +0.038 C 
ATOM     38  O   UNL     1       6.537  -0.776  24.546  0.00  0.00    -0.346 OA
BRANCH  34  39
ATOM     39  N   UNL     1       8.775  -3.890  26.496  0.00  0.00    -0.303 NA
ATOM     40  C   UNL     1       9.709  -4.867  25.938  0.00  0.00    +0.105 C 
ATOM     41  C   UNL     1       7.613  -4.637  26.948  0.00  0.00    +0.105 C 
ENDBRANCH  34  39
BRANCH  33  42
ATOM     42  O   UNL     1       8.407  -0.395  27.524  0.00  0.00    -0.385 OA
ATOM     43  H   UNL     1       9.349  -0.441  27.365  0.00  0.00    +0.210 HD
ENDBRANCH  33  42
ENDBRANCH  31  32
ENDBRANCH  14  31
BRANCH  17  44
ATOM     44  O   UNL     1       3.262  -1.298  26.632  0.00  0.00    -0.347 OA
BRANCH  44  45
ATOM     45  C   UNL     1       2.727  -2.652  26.873  0.00  0.00    +0.254 C 
ATOM     46  O   UNL     1       3.543  -3.580  27.636  0.00  0.00    -0.346 OA
ATOM     47  C   UNL     1       4.039  -4.820  27.072  0.00  0.00    +0.149 C 
ATOM     48  C   UNL     1       3.831  -5.983  28.062  0.00  0.00    +0.041 C 
ATOM     49  C   UNL     1       3.477  -5.324  25.714  0.00  0.00    +0.175 C 
ATOM     50  C   UNL     1       3.140  -4.141  24.824  0.00  0.00    +0.099 C 
ATOM     51  C   UNL     1       2.458  -4.598  23.525  0.00  0.00    +0.044 C 
ATOM     52  C   UNL     1       2.144  -3.329  25.637  0.00  0.00    +0.098 C 
BRANCH  50  53
ATOM     53  O   UNL     1       4.434  -3.599  24.542  0.00  0.00    -0.374 OA
ATOM     54  C   UNL     1       4.936  -3.587  23.229  0.00  0.00    +0.194 C 
ENDBRANCH  50  53
BRANCH  49  55
ATOM     55  O   UNL     1       4.449  -6.163  25.067  0.00  0.00    -0.386 OA
ATOM     56  H   UNL     1       3.911  -6.753  24.496  0.00  0.00    +0.210 HD
ENDBRANCH  49  55
ENDBRANCH  44  45
ENDBRANCH  17  44
BRANCH   8  57
ATOM     57  O   UNL     1       5.756   5.201  23.869  0.00  0.00    -0.365 OA
BRANCH  57  58
ATOM     58  C   UNL     1       6.833   5.818  23.095  0.00  0.00    +0.426 C 
BRANCH  58  59
ATOM     59  O   UNL     1       7.773   4.893  22.550  0.00  0.00    -0.340 OA
BRANCH  59  60
ATOM     60  C   UNL     1       7.183   3.650  22.187  0.00  0.00    +0.192 C 
BRANCH  60  61
ATOM     61  C   UNL     1       7.991   2.508  22.788  0.00  0.00    +0.187 C 
BRANCH  61  62
ATOM     62  O   UNL     1       9.031   2.146  21.873  0.00  0.00    -0.381 OA
ATOM     63  C   UNL     1      10.157   1.592  22.552  0.00  0.00    +0.194 C 
ENDBRANCH  61  62
ENDBRANCH  60  61
ENDBRANCH  59  60
ENDBRANCH  58  59
ENDBRANCH  57  58
ENDBRANCH   8  57
TORSDOF 18
ENDMDL
MODEL 6
REMARK VINA RESULT:      -3.5      1.353      2.099
REMARK  Name = 
REMARK  32 active torsions:
REMARK  status: ('A' for Active; 'I' for Inactive)
REMARK    1  A    between atoms: C_1  and  C_2
REMARK    2  A    between atoms: C_2  and  C_3
REMARK    3  A    between atoms: C_8  and  C_10
REMARK    4  A    between atoms: C_11  and  O_13
REMARK    5  A    between atoms: O_13  and  C_14
REMARK    6  A    between atoms: C_17  and  C_18
REMARK    7  A    between atoms: C_17  and  O_19
REMARK    8  A    between atoms: O_19  and  C_20
REMARK    9  A    between atoms: C_21  and  O_23
REMARK   10  A    between atoms: C_24  and  C_26
REMARK   11  A    between atoms: C_28  and  C_30
REMARK   12  A    between atoms: C_31  and  O_33
REMARK   13  A    between atoms: O_33  and  C_34
REMARK   14  A    between atoms: C_37  and  C_39
REMARK   15  A    between atoms: C_41  and  N_46
REMARK   16  A    between atoms: C_43  and  O_45
REMARK   17  A    between atoms: N_46  and  C_47
REMARK   18  A    between atoms: N_46  and  C_48
REMARK   19  A    between atoms: C_49  and  C_50
REMARK   20  A    between atoms: C_49  and  O_51
REMARK   21  A    between atoms: C_53  and  C_55
REMARK   22  A    between atoms: N_57  and  O_58
REMARK   23  A    between atoms: O_58  and  C_59
REMARK   24  A    between atoms: C_59  and  O_60
REMARK   25  A    between atoms: O_60  and  C_61
REMARK   26  A    between atoms: C_61  and  C_62
REMARK   27  A    between atoms: C_62  and  O_63
REMARK   28  A    between atoms: O_63  and  C_64
REMARK   29  A    between atoms: C_65  and  C_67
REMARK   30  A    between atoms: C_68  and  O_70
REMARK   31  A    between atoms: C_71  and  C_72
REMARK   32  A    between atoms: C_71  and  O_73
REMARK                            x       y       z     vdW  Elec       q    Type
REMARK                         _______ _______ _______ _____ _____    ______ ____
ROOT
ATOM      1  C   UNL     1       7.004  -2.934  24.242  0.00  0.00    +0.210 C 
ATOM      2  C   UNL     1       6.541  -3.563  25.674  0.00  0.00    +0.126 C 
ATOM      3  C   UNL     1       7.582  -4.590  26.163  0.00  0.00    +0.048 C 
ATOM      4  C   UNL     1       5.147  -4.245  25.888  0.00  0.00    +0.158 C 
ATOM      5  C   UNL     1       4.274  -3.751  27.154  0.00  0.00    +0.065 C 
ATOM      6  C   UNL     1       4.901  -4.167  28.482  0.00  0.00    +0.016 C 
ATOM      7  C   UNL     1       3.776  -2.256  27.130  0.00  0.00    +0.066 C 
ATOM      8  N   UNL     1       2.919  -1.949  26.190  0.00  0.00    -0.091 NA
ATOM      9  C   UNL     1       4.350  -1.071  28.334  0.00  0.00    +0.037 C 
ATOM     10  C   UNL     1       3.757  -1.419  29.738  0.00  0.00    +0.014 C 
ATOM     11  C   UNL     1       4.346   0.625  28.412  0.00  0.00    +0.046 C 
ATOM     12  C   UNL     1       5.546   1.583  28.055  0.00  0.00    +0.090 C 
ATOM     13  C   UNL     1       5.426   2.824  29.024  0.00  0.00    +0.044 C 
ATOM     14  C   UNL     1       5.744   2.274  26.599  0.00  0.00    +0.158 C 
ATOM     15  C   UNL     1       7.292   2.523  26.080  0.00  0.00    +0.047 C 
ATOM     16  C   UNL     1       8.405   2.770  27.145  0.00  0.00    +0.013 C 
ATOM     17  C   UNL     1       7.965   1.753  24.802  0.00  0.00    +0.140 C 
ATOM     18  C   UNL     1       8.451   0.240  25.022  0.00  0.00    +0.124 C 
ATOM     19  C   UNL     1       7.918  -0.320  26.302  0.00  0.00    +0.022 C 
ATOM     20  C   UNL     1       8.506  -0.870  23.957  0.00  0.00    +0.313 C 
ATOM     21  O   UNL     1       9.137  -0.716  22.901  0.00  0.00    -0.250 OA
ATOM     22  O   UNL     1       8.268  -2.148  24.439  0.00  0.00    -0.458 OA
ENDROOT
BRANCH   1  24
ATOM     23  C   UNL     1       5.707  -2.500  22.034  0.00  0.00    +0.007 C 
ATOM     24  C   UNL     1       5.986  -2.072  23.484  0.00  0.00    +0.044 C 
ENDBRANCH   1  24
BRANCH  12  25
ATOM     25  O   UNL     1       6.689   0.868  28.517  0.00  0.00    -0.386 OA
ATOM     26  H   UNL     1       6.880   1.093  29.443  0.00  0.00    +0.210 HD
ENDBRANCH  12  25
BRANCH   4  27
ATOM     27  O   UNL     1       4.419  -4.350  24.666  0.00  0.00    -0.388 OA
ATOM     28  H   UNL     1       3.472  -4.351  24.898  0.00  0.00    +0.210 HD
ENDBRANCH   4  27
BRANCH   2  29
ATOM     29  O   UNL     1       6.550  -2.535  26.647  0.00  0.00    -0.383 OA
ATOM     30  H   UNL     1       7.469  -2.499  26.963  0.00  0.00    +0.210 HD
ENDBRANCH   2  29
BRANCH  14  31
ATOM     31  O   UNL     1       4.939   1.960  25.473  0.00  0.00    -0.342 OA
BRANCH  31  32
ATOM     32  C   UNL     1       3.773   2.651  24.940  0.00  0.00    +0.281 C 
ATOM     33  C   UNL     1       3.819   2.733  23.408  0.00  0.00    +0.187 C 
ATOM     34  C   UNL     1       2.480   3.198  22.547  0.00  0.00    +0.092 C 
ATOM     35  C   UNL     1       1.237   3.025  23.410  0.00  0.00    +0.053 C 
ATOM     36  C   UNL     1       1.656   3.529  24.796  0.00  0.00    +0.120 C 
ATOM     37  C   UNL     1       0.456   4.017  25.590  0.00  0.00    +0.038 C 
ATOM     38  O   UNL     1       2.440   2.499  25.441  0.00  0.00    -0.346 OA
BRANCH  34  39
ATOM     39  N   UNL     1       2.210   2.678  21.149  0.00  0.00    -0.303 NA
ATOM     40  C   UNL     1       2.371   3.519  19.963  0.00  0.00    +0.105 C 
ATOM     41  C   UNL     1       1.016   1.878  20.932  0.00  0.00    +0.105 C 
ENDBRANCH  34  39
BRANCH  33  42
ATOM     42  O   UNL     1       5.078   3.453  23.288  0.00  0.00    -0.385 OA
ATOM     43  H   UNL     1       5.058   4.223  23.856  0.00  0.00    +0.210 HD
ENDBRANCH  33  42
ENDBRANCH  31  32
ENDBRANCH  14  31
BRANCH  17  44
ATOM     44  O   UNL     1       7.552   2.214  23.465  0.00  0.00    -0.347 OA
BRANCH  44  45
ATOM     45  C   UNL     1       8.482   3.134  22.783  0.00  0.00    +0.254 C 
ATOM     46  O   UNL     1       9.734   3.452  23.446  0.00  0.00    -0.346 OA
ATOM     47  C   UNL     1      10.074   4.800  23.856  0.00  0.00    +0.149 C 
ATOM     48  C   UNL     1      11.527   5.132  23.464  0.00  0.00    +0.041 C 
ATOM     49  C   UNL     1       9.222   5.994  23.346  0.00  0.00    +0.175 C 
ATOM     50  C   UNL     1       7.774   5.567  23.192  0.00  0.00    +0.099 C 
ATOM     51  C   UNL     1       6.927   6.684  22.562  0.00  0.00    +0.044 C 
ATOM     52  C   UNL     1       7.827   4.394  22.225  0.00  0.00    +0.098 C 
BRANCH  50  53
ATOM     53  O   UNL     1       7.379   5.349  24.550  0.00  0.00    -0.374 OA
ATOM     54  C   UNL     1       6.349   6.110  25.128  0.00  0.00    +0.194 C 
ENDBRANCH  50  53
BRANCH  49  55
ATOM     55  O   UNL     1       9.314   7.089  24.274  0.00  0.00    -0.386 OA
ATOM     56  H   UNL     1       9.640   6.671  25.101  0.00  0.00    +0.210 HD
ENDBRANCH  49  55
ENDBRANCH  44  45
ENDBRANCH  17  44
BRANCH   8  57
ATOM     57  O   UNL     1       2.450  -2.958  25.287  0.00  0.00    -0.365 OA
BRANCH  57  58
ATOM     58  C   UNL     1       1.066  -3.360  25.532  0.00  0.00    +0.426 C 
BRANCH  58  59
ATOM     59  O   UNL     1       0.924  -4.519  26.353  0.00  0.00    -0.340 OA
BRANCH  59  60
ATOM     60  C   UNL     1       1.184  -5.731  25.653  0.00  0.00    +0.192 C 
BRANCH  60  61
ATOM     61  C   UNL     1       1.316  -6.874  26.648  0.00  0.00    +0.187 C 
BRANCH  61  62
ATOM     62  O   UNL     1       2.265  -6.505  27.655  0.00  0.00    -0.381 OA
ATOM     63  C   UNL     1       2.140  -7.320  28.818  0.00  0.00    +0.194 C 
ENDBRANCH  61  62
ENDBRANCH  60  61
ENDBRANCH  59  60
ENDBRANCH  58  59
ENDBRANCH  57  58
ENDBRANCH   8  57
TORSDOF 18
ENDMDL
MODEL 7
REMARK VINA RESULT:      -2.8      2.927      6.174
REMARK  Name = 
REMARK  32 active torsions:
REMARK  status: ('A' for Active; 'I' for Inactive)
REMARK    1  A    between atoms: C_1  and  C_2
REMARK    2  A    between atoms: C_2  and  C_3
REMARK    3  A    between atoms: C_8  and  C_10
REMARK    4  A    between atoms: C_11  and  O_13
REMARK    5  A    between atoms: O_13  and  C_14
REMARK    6  A    between atoms: C_17  and  C_18
REMARK    7  A    between atoms: C_17  and  O_19
REMARK    8  A    between atoms: O_19  and  C_20
REMARK    9  A    between atoms: C_21  and  O_23
REMARK   10  A    between atoms: C_24  and  C_26
REMARK   11  A    between atoms: C_28  and  C_30
REMARK   12  A    between atoms: C_31  and  O_33
REMARK   13  A    between atoms: O_33  and  C_34
REMARK   14  A    between atoms: C_37  and  C_39
REMARK   15  A    between atoms: C_41  and  N_46
REMARK   16  A    between atoms: C_43  and  O_45
REMARK   17  A    between atoms: N_46  and  C_47
REMARK   18  A    between atoms: N_46  and  C_48
REMARK   19  A    between atoms: C_49  and  C_50
REMARK   20  A    between atoms: C_49  and  O_51
REMARK   21  A    between atoms: C_53  and  C_55
REMARK   22  A    between atoms: N_57  and  O_58
REMARK   23  A    between atoms: O_58  and  C_59
REMARK   24  A    between atoms: C_59  and  O_60
REMARK   25  A    between atoms: O_60  and  C_61
REMARK   26  A    between atoms: C_61  and  C_62
REMARK   27  A    between atoms: C_62  and  O_63
REMARK   28  A    between atoms: O_63  and  C_64
REMARK   29  A    between atoms: C_65  and  C_67
REMARK   30  A    between atoms: C_68  and  O_70
REMARK   31  A    between atoms: C_71  and  C_72
REMARK   32  A    between atoms: C_71  and  O_73
REMARK                            x       y       z     vdW  Elec       q    Type
REMARK                         _______ _______ _______ _____ _____    ______ ____
ROOT
ATOM      1  C   UNL     1       3.426  -5.120  22.804  0.00  0.00    +0.210 C 
ATOM      2  C   UNL     1       2.621  -6.231  23.687  0.00  0.00    +0.126 C 
ATOM      3  C   UNL     1       2.502  -7.550  22.898  0.00  0.00    +0.048 C 
ATOM      4  C   UNL     1       1.196  -5.968  24.281  0.00  0.00    +0.158 C 
ATOM      5  C   UNL     1       0.985  -6.284  25.851  0.00  0.00    +0.065 C 
ATOM      6  C   UNL     1       1.050  -7.779  26.150  0.00  0.00    +0.016 C 
ATOM      7  C   UNL     1       1.803  -5.400  26.867  0.00  0.00    +0.066 C 
ATOM      8  N   UNL     1       1.500  -4.127  26.897  0.00  0.00    -0.091 NA
ATOM      9  C   UNL     1       3.056  -6.116  27.915  0.00  0.00    +0.037 C 
ATOM     10  C   UNL     1       2.381  -7.024  28.995  0.00  0.00    +0.014 C 
ATOM     11  C   UNL     1       4.345  -5.476  28.817  0.00  0.00    +0.046 C 
ATOM     12  C   UNL     1       5.859  -5.418  28.377  0.00  0.00    +0.090 C 
ATOM     13  C   UNL     1       6.709  -5.582  29.697  0.00  0.00    +0.044 C 
ATOM     14  C   UNL     1       6.539  -4.130  27.661  0.00  0.00    +0.158 C 
ATOM     15  C   UNL     1       7.740  -4.416  26.564  0.00  0.00    +0.047 C 
ATOM     16  C   UNL     1       8.629  -5.685  26.746  0.00  0.00    +0.013 C 
ATOM     17  C   UNL     1       7.611  -4.104  24.963  0.00  0.00    +0.140 C 
ATOM     18  C   UNL     1       6.768  -5.139  24.072  0.00  0.00    +0.124 C 
ATOM     19  C   UNL     1       5.973  -6.070  24.930  0.00  0.00    +0.022 C 
ATOM     20  C   UNL     1       5.977  -4.815  22.792  0.00  0.00    +0.313 C 
ATOM     21  O   UNL     1       6.521  -4.270  21.821  0.00  0.00    -0.250 OA
ATOM     22  O   UNL     1       4.840  -5.585  22.604  0.00  0.00    -0.458 OA
ENDROOT
BRANCH   1  24
ATOM     23  C   UNL     1       3.832  -3.505  24.797  0.00  0.00    +0.007 C 
ATOM     24  C   UNL     1       3.438  -3.676  23.322  0.00  0.00    +0.044 C 
ENDBRANCH   1  24
BRANCH  12  25
ATOM     25  O   UNL     1       6.044  -6.641  27.669  0.00  0.00    -0.386 OA
ATOM     26  H   UNL     1       5.265  -7.213  27.767  0.00  0.00    +0.210 HD
ENDBRANCH  12  25
BRANCH   4  27
ATOM     27  O   UNL     1       0.667  -4.717  23.848  0.00  0.00    -0.388 OA
ATOM     28  H   UNL     1       0.401  -4.227  24.649  0.00  0.00    +0.210 HD
ENDBRANCH   4  27
BRANCH   2  29
ATOM     29  O   UNL     1       3.393  -6.551  24.830  0.00  0.00    -0.383 OA
ATOM     30  H   UNL     1       2.791  -6.418  25.581  0.00  0.00    +0.210 HD
ENDBRANCH   2  29
BRANCH  14  31
ATOM     31  O   UNL     1       5.800  -2.998  27.230  0.00  0.00    -0.342 OA
BRANCH  31  32
ATOM     32  C   UNL     1       5.577  -1.722  27.896  0.00  0.00    +0.281 C 
ATOM     33  C   UNL     1       6.230  -0.565  27.127  0.00  0.00    +0.187 C 
ATOM     34  C   UNL     1       5.873   1.010  27.508  0.00  0.00    +0.092 C 
ATOM     35  C   UNL     1       4.563   1.059  28.282  0.00  0.00    +0.053 C 
ATOM     36  C   UNL     1       4.646  -0.124  29.256  0.00  0.00    +0.120 C 
ATOM     37  C   UNL     1       3.785   0.115  30.485  0.00  0.00    +0.038 C 
ATOM     38  O   UNL     1       4.351  -1.337  28.528  0.00  0.00    -0.346 OA
BRANCH  34  39
ATOM     39  N   UNL     1       5.892   2.108  26.463  0.00  0.00    -0.303 NA
ATOM     40  C   UNL     1       4.778   2.322  25.540  0.00  0.00    +0.105 C 
ATOM     41  C   UNL     1       7.111   2.305  25.696  0.00  0.00    +0.105 C 
ENDBRANCH  34  39
BRANCH  33  42
ATOM     42  O   UNL     1       7.600  -1.055  27.160  0.00  0.00    -0.385 OA
ATOM     43  H   UNL     1       7.795  -1.392  28.033  0.00  0.00    +0.210 HD
ENDBRANCH  33  42
ENDBRANCH  31  32
ENDBRANCH  14  31
BRANCH  17  44
ATOM     44  O   UNL     1       7.720  -2.692  24.558  0.00  0.00    -0.347 OA
BRANCH  44  45
ATOM     45  C   UNL     1       9.076  -2.218  24.222  0.00  0.00    +0.254 C 
ATOM     46  O   UNL     1       9.675  -1.207  25.076  0.00  0.00    -0.346 OA
ATOM     47  C   UNL     1      10.035   0.109  24.585  0.00  0.00    +0.149 C 
ATOM     48  C   UNL     1      11.439   0.503  25.084  0.00  0.00    +0.041 C 
ATOM     49  C   UNL     1      10.045   0.379  23.055  0.00  0.00    +0.175 C 
ATOM     50  C   UNL     1       8.956  -0.435  22.380  0.00  0.00    +0.099 C 
ATOM     51  C   UNL     1       9.023  -0.294  20.851  0.00  0.00    +0.044 C 
ATOM     52  C   UNL     1       9.278  -1.875  22.750  0.00  0.00    +0.098 C 
BRANCH  50  53
ATOM     53  O   UNL     1       7.766   0.177  22.884  0.00  0.00    -0.374 OA
ATOM     54  C   UNL     1       7.111   1.183  22.153  0.00  0.00    +0.194 C 
ENDBRANCH  50  53
BRANCH  49  55
ATOM     55  O   UNL     1       9.833   1.780  22.809  0.00  0.00    -0.386 OA
ATOM     56  H   UNL     1       9.846   1.853  21.830  0.00  0.00    +0.210 HD
ENDBRANCH  49  55
ENDBRANCH  44  45
ENDBRANCH  17  44
BRANCH   8  57
ATOM     57  O   UNL     1       0.443  -3.620  26.072  0.00  0.00    -0.365 OA
BRANCH  57  58
ATOM     58  C   UNL     1       0.448  -2.163  25.951  0.00  0.00    +0.426 C 
BRANCH  58  59
ATOM     59  O   UNL     1       0.844  -1.472  27.135  0.00  0.00    -0.340 OA
BRANCH  59  60
ATOM     60  C   UNL     1       0.462  -0.101  27.133  0.00  0.00    +0.192 C 
BRANCH  60  61
ATOM     61  C   UNL     1       0.741   0.507  28.500  0.00  0.00    +0.187 C 
BRANCH  61  62
ATOM     62  O   UNL     1       0.818   1.931  28.366  0.00  0.00    -0.381 OA
ATOM     63  C   UNL     1       0.820   2.330  26.997  0.00  0.00    +0.194 C 
ENDBRANCH  61  62
ENDBRANCH  60  61
ENDBRANCH  59  60
ENDBRANCH  58  59
ENDBRANCH  57  58
ENDBRANCH   8  57
TORSDOF 18
ENDMDL
MODEL 8
REMARK VINA RESULT:      -2.7      1.503      2.211
REMARK  Name = 
REMARK  32 active torsions:
REMARK  status: ('A' for Active; 'I' for Inactive)
REMARK    1  A    between atoms: C_1  and  C_2
REMARK    2  A    between atoms: C_2  and  C_3
REMARK    3  A    between atoms: C_8  and  C_10
REMARK    4  A    between atoms: C_11  and  O_13
REMARK    5  A    between atoms: O_13  and  C_14
REMARK    6  A    between atoms: C_17  and  C_18
REMARK    7  A    between atoms: C_17  and  O_19
REMARK    8  A    between atoms: O_19  and  C_20
REMARK    9  A    between atoms: C_21  and  O_23
REMARK   10  A    between atoms: C_24  and  C_26
REMARK   11  A    between atoms: C_28  and  C_30
REMARK   12  A    between atoms: C_31  and  O_33
REMARK   13  A    between atoms: O_33  and  C_34
REMARK   14  A    between atoms: C_37  and  C_39
REMARK   15  A    between atoms: C_41  and  N_46
REMARK   16  A    between atoms: C_43  and  O_45
REMARK   17  A    between atoms: N_46  and  C_47
REMARK   18  A    between atoms: N_46  and  C_48
REMARK   19  A    between atoms: C_49  and  C_50
REMARK   20  A    between atoms: C_49  and  O_51
REMARK   21  A    between atoms: C_53  and  C_55
REMARK   22  A    between atoms: N_57  and  O_58
REMARK   23  A    between atoms: O_58  and  C_59
REMARK   24  A    between atoms: C_59  and  O_60
REMARK   25  A    between atoms: O_60  and  C_61
REMARK   26  A    between atoms: C_61  and  C_62
REMARK   27  A    between atoms: C_62  and  O_63
REMARK   28  A    between atoms: O_63  and  C_64
REMARK   29  A    between atoms: C_65  and  C_67
REMARK   30  A    between atoms: C_68  and  O_70
REMARK   31  A    between atoms: C_71  and  C_72
REMARK   32  A    between atoms: C_71  and  O_73
REMARK                            x       y       z     vdW  Elec       q    Type
REMARK                         _______ _______ _______ _____ _____    ______ ____
ROOT
ATOM      1  C   UNL     1       7.174  -3.194  22.910  0.00  0.00    +0.210 C 
ATOM      2  C   UNL     1       6.836  -4.325  24.037  0.00  0.00    +0.126 C 
ATOM      3  C   UNL     1       8.030  -5.286  24.199  0.00  0.00    +0.048 C 
ATOM      4  C   UNL     1       5.568  -5.241  23.960  0.00  0.00    +0.158 C 
ATOM      5  C   UNL     1       4.647  -5.334  25.283  0.00  0.00    +0.065 C 
ATOM      6  C   UNL     1       5.349  -6.066  26.423  0.00  0.00    +0.016 C 
ATOM      7  C   UNL     1       3.922  -4.009  25.735  0.00  0.00    +0.066 C 
ATOM      8  N   UNL     1       3.014  -3.541  24.916  0.00  0.00    -0.091 NA
ATOM      9  C   UNL     1       4.322  -3.217  27.283  0.00  0.00    +0.037 C 
ATOM     10  C   UNL     1       3.809  -4.097  28.470  0.00  0.00    +0.014 C 
ATOM     11  C   UNL     1       4.055  -1.665  27.916  0.00  0.00    +0.046 C 
ATOM     12  C   UNL     1       5.087  -0.472  27.940  0.00  0.00    +0.090 C 
ATOM     13  C   UNL     1       4.788   0.343  29.259  0.00  0.00    +0.044 C 
ATOM     14  C   UNL     1       5.153   0.683  26.802  0.00  0.00    +0.158 C 
ATOM     15  C   UNL     1       6.636   1.322  26.454  0.00  0.00    +0.047 C 
ATOM     16  C   UNL     1       7.713   1.367  27.583  0.00  0.00    +0.013 C 
ATOM     17  C   UNL     1       7.403   1.131  25.021  0.00  0.00    +0.140 C 
ATOM     18  C   UNL     1       8.121  -0.278  24.748  0.00  0.00    +0.124 C 
ATOM     19  C   UNL     1       7.700  -1.304  25.751  0.00  0.00    +0.022 C 
ATOM     20  C   UNL     1       8.334  -0.950  23.380  0.00  0.00    +0.313 C 
ATOM     21  O   UNL     1       8.918  -0.361  22.458  0.00  0.00    -0.250 OA
ATOM     22  O   UNL     1       8.303  -2.335  23.404  0.00  0.00    -0.458 OA
ENDROOT
BRANCH   1  24
ATOM     23  C   UNL     1       5.577  -2.498  20.984  0.00  0.00    +0.007 C 
ATOM     24  C   UNL     1       6.024  -2.294  22.440  0.00  0.00    +0.044 C 
ENDBRANCH   1  24
BRANCH  12  25
ATOM     25  O   UNL     1       6.333  -1.119  28.185  0.00  0.00    -0.386 OA
ATOM     26  H   UNL     1       6.851  -1.181  27.366  0.00  0.00    +0.210 HD
ENDBRANCH  12  25
BRANCH   4  27
ATOM     27  O   UNL     1       4.848  -5.045  22.745  0.00  0.00    -0.388 OA
ATOM     28  H   UNL     1       5.128  -5.749  22.130  0.00  0.00    +0.210 HD
ENDBRANCH   4  27
BRANCH   2  29
ATOM     29  O   UNL     1       6.698  -3.688  25.294  0.00  0.00    -0.383 OA
ATOM     30  H   UNL     1       5.738  -3.625  25.436  0.00  0.00    +0.210 HD
ENDBRANCH   2  29
BRANCH  14  31
ATOM     31  O   UNL     1       4.392   0.643  25.606  0.00  0.00    -0.342 OA
BRANCH  31  32
ATOM     32  C   UNL     1       3.426   1.600  25.084  0.00  0.00    +0.281 C 
ATOM     33  C   UNL     1       2.531   2.160  26.198  0.00  0.00    +0.187 C 
ATOM     34  C   UNL     1       1.561   3.476  25.920  0.00  0.00    +0.092 C 
ATOM     35  C   UNL     1       2.068   4.230  24.698  0.00  0.00    +0.053 C 
ATOM     36  C   UNL     1       2.433   3.132  23.691  0.00  0.00    +0.120 C 
ATOM     37  C   UNL     1       2.353   3.646  22.264  0.00  0.00    +0.038 C 
ATOM     38  O   UNL     1       3.711   2.571  24.070  0.00  0.00    -0.346 OA
BRANCH  34  39
ATOM     39  N   UNL     1       1.214   4.459  27.021  0.00  0.00    -0.303 NA
ATOM     40  C   UNL     1       0.725   4.020  28.328  0.00  0.00    +0.105 C 
ATOM     41  C   UNL     1       0.452   5.645  26.668  0.00  0.00    +0.105 C 
ENDBRANCH  34  39
BRANCH  33  42
ATOM     42  O   UNL     1       1.971   0.896  26.653  0.00  0.00    -0.385 OA
ATOM     43  H   UNL     1       1.579   0.438  25.911  0.00  0.00    +0.210 HD
ENDBRANCH  33  42
ENDBRANCH  31  32
ENDBRANCH  14  31
BRANCH  17  44
ATOM     44  O   UNL     1       6.904   1.941  23.896  0.00  0.00    -0.347 OA
BRANCH  44  45
ATOM     45  C   UNL     1       6.433   3.297  24.235  0.00  0.00    +0.254 C 
ATOM     46  O   UNL     1       5.915   4.126  23.160  0.00  0.00    -0.346 OA
ATOM     47  C   UNL     1       6.537   5.379  22.780  0.00  0.00    +0.149 C 
ATOM     48  C   UNL     1       5.469   6.474  22.589  0.00  0.00    +0.041 C 
ATOM     49  C   UNL     1       7.619   6.008  23.699  0.00  0.00    +0.175 C 
ATOM     50  C   UNL     1       8.422   4.912  24.376  0.00  0.00    +0.099 C 
ATOM     51  C   UNL     1       9.413   5.497  25.395  0.00  0.00    +0.044 C 
ATOM     52  C   UNL     1       7.383   4.091  25.125  0.00  0.00    +0.098 C 
BRANCH  50  53
ATOM     53  O   UNL     1       9.126   4.331  23.275  0.00  0.00    -0.374 OA
ATOM     54  C   UNL     1      10.126   3.367  23.491  0.00  0.00    +0.194 C 
ENDBRANCH  50  53
BRANCH  49  55
ATOM     55  O   UNL     1       8.491   6.845  22.921  0.00  0.00    -0.386 OA
ATOM     56  H   UNL     1       9.391   6.515  23.136  0.00  0.00    +0.210 HD
ENDBRANCH  49  55
ENDBRANCH  44  45
ENDBRANCH  17  44
BRANCH   8  57
ATOM     57  O   UNL     1       2.695  -4.252  23.714  0.00  0.00    -0.365 OA
BRANCH  57  58
ATOM     58  C   UNL     1       1.292  -4.653  23.629  0.00  0.00    +0.426 C 
BRANCH  58  59
ATOM     59  O   UNL     1       0.855  -5.503  24.689  0.00  0.00    -0.340 OA
BRANCH  59  60
ATOM     60  C   UNL     1       1.434  -6.802  24.634  0.00  0.00    +0.192 C 
BRANCH  60  61
ATOM     61  C   UNL     1       0.495  -7.747  23.899  0.00  0.00    +0.187 C 
BRANCH  61  62
ATOM     62  O   UNL     1       0.468  -9.001  24.590  0.00  0.00    -0.381 OA
ATOM     63  C   UNL     1       0.756  -8.843  25.977  0.00  0.00    +0.194 C 
ENDBRANCH  61  62
ENDBRANCH  60  61
ENDBRANCH  59  60
ENDBRANCH  58  59
ENDBRANCH  57  58
ENDBRANCH   8  57
TORSDOF 18
ENDMDL
