MODEL 1
REMARK VINA RESULT:      -7.2      0.000      0.000
REMARK  Name = 
REMARK  6 active torsions:
REMARK  status: ('A' for Active; 'I' for Inactive)
REMARK    1  A    between atoms: C_1  and  C_2
REMARK    2  A    between atoms: N_4  and  C_8
REMARK    3  A    between atoms: C_11  and  C_12
REMARK    4  A    between atoms: C_16  and  C_24
REMARK    5  A    between atoms: N_18  and  C_19
REMARK    6  A    between atoms: C_24  and  O_25
REMARK                            x       y       z     vdW  Elec       q    Type
REMARK                         _______ _______ _______ _____ _____    ______ ____
ROOT
ATOM      1  C   UNL     1       7.680  -0.822  23.384  0.00  0.00    +0.068 A 
ATOM      2  C   UNL     1       7.538  -2.187  23.088  0.00  0.00    +0.052 A 
ATOM      3  C   UNL     1       7.052  -3.131  24.013  0.00  0.00    +0.055 A 
ATOM      4  C   UNL     1       6.725  -2.690  25.314  0.00  0.00    +0.052 A 
ATOM      5  C   UNL     1       6.216  -3.698  26.289  0.00  0.00    +0.204 A 
ATOM      6  C   UNL     1       6.109  -5.110  25.870  0.00  0.00    +0.122 A 
ATOM      7  C   UNL     1       6.457  -5.406  24.610  0.00  0.00    +0.105 A 
ATOM      8  O   UNL     1       5.889  -3.407  27.439  0.00  0.00    -0.286 OA
ATOM      9  C   UNL     1       6.884  -1.338  25.670  0.00  0.00    -0.001 A 
ATOM     10  C   UNL     1       6.551  -0.796  27.034  0.00  0.00    +0.047 C 
ATOM     11  N   UNL     1       6.882  -4.503  23.658  0.00  0.00    -0.343 N 
ATOM     12  C   UNL     1       7.365  -0.444  24.700  0.00  0.00    +0.148 A 
ATOM     13  F   UNL     1       7.485   0.840  25.072  0.00  0.00    -0.203 F 
ENDROOT
BRANCH   1  20
ATOM     14  C   UNL     1      10.547   1.544  23.861  0.00  0.00    +0.025 C 
ATOM     15  C   UNL     1      10.210   1.463  22.369  0.00  0.00    +0.068 C 
ATOM     16  N   UNL     1       9.427   2.645  21.936  0.00  0.00    -0.311 NA
ATOM     17  H   UNL     1       9.849   3.489  22.321  0.00  0.00    +0.122 HD
ATOM     18  C   UNL     1       8.030   2.547  22.394  0.00  0.00    +0.100 C 
ATOM     19  C   UNL     1       7.322   1.226  22.011  0.00  0.00    +0.120 C 
ATOM     20  N   UNL     1       8.127   0.053  22.405  0.00  0.00    -0.325 N 
ATOM     21  C   UNL     1       9.533   0.123  21.967  0.00  0.00    +0.123 C 
ENDBRANCH   1  20
BRANCH  11  22
ATOM     22  C   UNL     1       7.204  -4.991  22.299  0.00  0.00    +0.087 C 
ATOM     23  C   UNL     1       6.108  -5.154  21.270  0.00  0.00    +0.027 C 
ATOM     24  C   UNL     1       6.835  -6.358  21.777  0.00  0.00    +0.027 C 
ENDBRANCH  11  22
BRANCH   6  25
ATOM     25  C   UNL     1       5.630  -6.190  26.758  0.00  0.00    +0.342 C 
ATOM     26  O   UNL     1       4.658  -6.882  26.503  0.00  0.00    -0.245 OA
BRANCH  25  27
ATOM     27  O   UNL     1       6.350  -6.356  27.887  0.00  0.00    -0.477 OA
ATOM     28  H   UNL     1       6.331  -5.572  28.491  0.00  0.00    +0.295 HD
ENDBRANCH  25  27
ENDBRANCH   6  25
TORSDOF 4
ENDMDL
MODEL 2
REMARK VINA RESULT:      -6.7      2.485      3.728
REMARK  Name = 
REMARK  6 active torsions:
REMARK  status: ('A' for Active; 'I' for Inactive)
REMARK    1  A    between atoms: C_1  and  C_2
REMARK    2  A    between atoms: N_4  and  C_8
REMARK    3  A    between atoms: C_11  and  C_12
REMARK    4  A    between atoms: C_16  and  C_24
REMARK    5  A    between atoms: N_18  and  C_19
REMARK    6  A    between atoms: C_24  and  O_25
REMARK                            x       y       z     vdW  Elec       q    Type
REMARK                         _______ _______ _______ _____ _____    ______ ____
ROOT
ATOM      1  C   UNL     1       9.187  -1.161  23.899  0.00  0.00    +0.068 A 
ATOM      2  C   UNL     1       7.991  -0.866  24.573  0.00  0.00    +0.052 A 
ATOM      3  C   UNL     1       7.354  -1.768  25.447  0.00  0.00    +0.055 A 
ATOM      4  C   UNL     1       7.927  -3.047  25.626  0.00  0.00    +0.052 A 
ATOM      5  C   UNL     1       7.242  -3.998  26.550  0.00  0.00    +0.204 A 
ATOM      6  C   UNL     1       5.986  -3.581  27.205  0.00  0.00    +0.122 A 
ATOM      7  C   UNL     1       5.538  -2.345  26.949  0.00  0.00    +0.105 A 
ATOM      8  O   UNL     1       7.674  -5.126  26.785  0.00  0.00    -0.286 OA
ATOM      9  C   UNL     1       9.105  -3.403  24.945  0.00  0.00    -0.001 A 
ATOM     10  C   UNL     1       9.774  -4.744  25.093  0.00  0.00    +0.047 C 
ATOM     11  N   UNL     1       6.161  -1.412  26.146  0.00  0.00    -0.343 N 
ATOM     12  C   UNL     1       9.697  -2.456  24.095  0.00  0.00    +0.148 A 
ATOM     13  F   UNL     1      10.830  -2.826  23.478  0.00  0.00    -0.203 F 
ENDROOT
BRANCH   1  20
ATOM     14  C   UNL     1       8.689   2.527  24.337  0.00  0.00    +0.025 C 
ATOM     15  C   UNL     1       9.868   2.293  23.388  0.00  0.00    +0.068 C 
ATOM     16  N   UNL     1       9.464   2.499  21.976  0.00  0.00    -0.311 NA
ATOM     17  H   UNL     1       8.911   3.351  21.904  0.00  0.00    +0.122 HD
ATOM     18  C   UNL     1       8.668   1.360  21.485  0.00  0.00    +0.100 C 
ATOM     19  C   UNL     1       9.334  -0.022  21.688  0.00  0.00    +0.120 C 
ATOM     20  N   UNL     1       9.775  -0.203  23.086  0.00  0.00    -0.325 N 
ATOM     21  C   UNL     1      10.569   0.923  23.610  0.00  0.00    +0.123 C 
ENDBRANCH   1  20
BRANCH  11  22
ATOM     22  C   UNL     1       5.547  -0.077  25.986  0.00  0.00    +0.087 C 
ATOM     23  C   UNL     1       5.879   1.034  26.958  0.00  0.00    +0.027 C 
ATOM     24  C   UNL     1       4.488   0.487  26.903  0.00  0.00    +0.027 C 
ENDBRANCH  11  22
BRANCH   6  25
ATOM     25  C   UNL     1       5.221  -4.447  28.127  0.00  0.00    +0.342 C 
ATOM     26  O   UNL     1       4.027  -4.664  28.004  0.00  0.00    -0.245 OA
BRANCH  25  27
ATOM     27  O   UNL     1       5.946  -4.986  29.130  0.00  0.00    -0.477 OA
ATOM     28  H   UNL     1       6.159  -4.347  29.856  0.00  0.00    +0.295 HD
ENDBRANCH  25  27
ENDBRANCH   6  25
TORSDOF 4
ENDMDL
MODEL 3
REMARK VINA RESULT:      -6.7      2.508      3.914
REMARK  Name = 
REMARK  6 active torsions:
REMARK  status: ('A' for Active; 'I' for Inactive)
REMARK    1  A    between atoms: C_1  and  C_2
REMARK    2  A    between atoms: N_4  and  C_8
REMARK    3  A    between atoms: C_11  and  C_12
REMARK    4  A    between atoms: C_16  and  C_24
REMARK    5  A    between atoms: N_18  and  C_19
REMARK    6  A    between atoms: C_24  and  O_25
REMARK                            x       y       z     vdW  Elec       q    Type
REMARK                         _______ _______ _______ _____ _____    ______ ____
ROOT
ATOM      1  C   UNL     1       8.093  -1.354  24.971  0.00  0.00    +0.068 A 
ATOM      2  C   UNL     1       6.919  -1.500  25.727  0.00  0.00    +0.052 A 
ATOM      3  C   UNL     1       6.597  -2.675  26.435  0.00  0.00    +0.055 A 
ATOM      4  C   UNL     1       7.480  -3.773  26.350  0.00  0.00    +0.052 A 
ATOM      5  C   UNL     1       7.128  -5.015  27.098  0.00  0.00    +0.204 A 
ATOM      6  C   UNL     1       5.865  -5.058  27.862  0.00  0.00    +0.122 A 
ATOM      7  C   UNL     1       5.106  -3.954  27.859  0.00  0.00    +0.105 A 
ATOM      8  O   UNL     1       7.843  -6.017  27.101  0.00  0.00    -0.286 OA
ATOM      9  C   UNL     1       8.651  -3.689  25.576  0.00  0.00    -0.001 A 
ATOM     10  C   UNL     1       9.641  -4.816  25.444  0.00  0.00    +0.047 C 
ATOM     11  N   UNL     1       5.413  -2.766  27.228  0.00  0.00    -0.343 N 
ATOM     12  C   UNL     1       8.921  -2.487  24.901  0.00  0.00    +0.148 A 
ATOM     13  F   UNL     1      10.057  -2.439  24.188  0.00  0.00    -0.203 F 
ENDROOT
BRANCH   1  20
ATOM     14  C   UNL     1       9.443  -1.096  21.485  0.00  0.00    +0.025 C 
ATOM     15  C   UNL     1       8.929   0.279  21.923  0.00  0.00    +0.068 C 
ATOM     16  N   UNL     1      10.049   1.162  22.324  0.00  0.00    -0.311 NA
ATOM     17  H   UNL     1      10.798   1.091  21.637  0.00  0.00    +0.122 HD
ATOM     18  C   UNL     1      10.569   0.785  23.650  0.00  0.00    +0.100 C 
ATOM     19  C   UNL     1       9.493   0.696  24.758  0.00  0.00    +0.120 C 
ATOM     20  N   UNL     1       8.359  -0.150  24.336  0.00  0.00    -0.325 N 
ATOM     21  C   UNL     1       7.819   0.198  23.009  0.00  0.00    +0.123 C 
ENDBRANCH   1  20
BRANCH  11  22
ATOM     22  C   UNL     1       4.477  -1.627  27.345  0.00  0.00    +0.087 C 
ATOM     23  C   UNL     1       4.568  -0.686  28.525  0.00  0.00    +0.027 C 
ATOM     24  C   UNL     1       3.357  -1.548  28.354  0.00  0.00    +0.027 C 
ENDBRANCH  11  22
BRANCH   6  25
ATOM     25  C   UNL     1       5.414  -6.239  28.627  0.00  0.00    +0.342 C 
ATOM     26  O   UNL     1       5.150  -6.204  29.817  0.00  0.00    -0.245 OA
BRANCH  25  27
ATOM     27  O   UNL     1       5.318  -7.377  27.907  0.00  0.00    -0.477 OA
ATOM     28  H   UNL     1       5.963  -8.077  28.179  0.00  0.00    +0.295 HD
ENDBRANCH  25  27
ENDBRANCH   6  25
TORSDOF 4
ENDMDL
MODEL 4
REMARK VINA RESULT:      -6.6      4.011      7.678
REMARK  Name = 
REMARK  6 active torsions:
REMARK  status: ('A' for Active; 'I' for Inactive)
REMARK    1  A    between atoms: C_1  and  C_2
REMARK    2  A    between atoms: N_4  and  C_8
REMARK    3  A    between atoms: C_11  and  C_12
REMARK    4  A    between atoms: C_16  and  C_24
REMARK    5  A    between atoms: N_18  and  C_19
REMARK    6  A    between atoms: C_24  and  O_25
REMARK                            x       y       z     vdW  Elec       q    Type
REMARK                         _______ _______ _______ _____ _____    ______ ____
ROOT
ATOM      1  C   UNL     1       7.083  -1.646  23.997  0.00  0.00    +0.068 A 
ATOM      2  C   UNL     1       7.111  -0.488  24.791  0.00  0.00    +0.052 A 
ATOM      3  C   UNL     1       7.866   0.656  24.463  0.00  0.00    +0.055 A 
ATOM      4  C   UNL     1       8.662   0.623  23.298  0.00  0.00    +0.052 A 
ATOM      5  C   UNL     1       9.463   1.837  22.961  0.00  0.00    +0.204 A 
ATOM      6  C   UNL     1       9.417   3.000  23.871  0.00  0.00    +0.122 A 
ATOM      7  C   UNL     1       8.629   2.907  24.950  0.00  0.00    +0.105 A 
ATOM      8  O   UNL     1      10.172   1.911  21.958  0.00  0.00    -0.286 OA
ATOM      9  C   UNL     1       8.696  -0.527  22.489  0.00  0.00    -0.001 A 
ATOM     10  C   UNL     1       9.516  -0.631  21.230  0.00  0.00    +0.047 C 
ATOM     11  N   UNL     1       7.832   1.829  25.276  0.00  0.00    -0.343 N 
ATOM     12  C   UNL     1       7.915  -1.631  22.864  0.00  0.00    +0.148 A 
ATOM     13  F   UNL     1       7.959  -2.703  22.057  0.00  0.00    -0.203 F 
ENDROOT
BRANCH   1  20
ATOM     14  C   UNL     1       8.297  -5.186  24.175  0.00  0.00    +0.025 C 
ATOM     15  C   UNL     1       6.943  -5.087  24.886  0.00  0.00    +0.068 C 
ATOM     16  N   UNL     1       5.852  -5.602  24.025  0.00  0.00    -0.311 NA
ATOM     17  H   UNL     1       6.143  -6.480  23.599  0.00  0.00    +0.122 HD
ATOM     18  C   UNL     1       5.517  -4.635  22.965  0.00  0.00    +0.100 C 
ATOM     19  C   UNL     1       5.213  -3.206  23.474  0.00  0.00    +0.120 C 
ATOM     20  N   UNL     1       6.282  -2.716  24.366  0.00  0.00    -0.325 N 
ATOM     21  C   UNL     1       6.645  -3.664  25.436  0.00  0.00    +0.123 C 
ENDBRANCH   1  20
BRANCH  11  22
ATOM     22  C   UNL     1       6.997   1.895  26.495  0.00  0.00    +0.087 C 
ATOM     23  C   UNL     1       5.633   2.548  26.448  0.00  0.00    +0.027 C 
ATOM     24  C   UNL     1       6.723   3.162  27.269  0.00  0.00    +0.027 C 
ENDBRANCH  11  22
BRANCH   6  25
ATOM     25  C   UNL     1      10.178   4.245  23.640  0.00  0.00    +0.342 C 
ATOM     26  O   UNL     1       9.740   5.354  23.899  0.00  0.00    -0.245 OA
BRANCH  25  27
ATOM     27  O   UNL     1      11.408   4.068  23.111  0.00  0.00    -0.477 OA
ATOM     28  H   UNL     1      12.137   4.094  23.779  0.00  0.00    +0.295 HD
ENDBRANCH  25  27
ENDBRANCH   6  25
TORSDOF 4
ENDMDL
MODEL 5
REMARK VINA RESULT:      -6.6      2.645      4.324
REMARK  Name = 
REMARK  6 active torsions:
REMARK  status: ('A' for Active; 'I' for Inactive)
REMARK    1  A    between atoms: C_1  and  C_2
REMARK    2  A    between atoms: N_4  and  C_8
REMARK    3  A    between atoms: C_11  and  C_12
REMARK    4  A    between atoms: C_16  and  C_24
REMARK    5  A    between atoms: N_18  and  C_19
REMARK    6  A    between atoms: C_24  and  O_25
REMARK                            x       y       z     vdW  Elec       q    Type
REMARK                         _______ _______ _______ _____ _____    ______ ____
ROOT
ATOM      1  C   UNL     1       8.245   1.288  23.298  0.00  0.00    +0.068 A 
ATOM      2  C   UNL     1       7.497   0.713  24.338  0.00  0.00    +0.052 A 
ATOM      3  C   UNL     1       7.730  -0.587  24.830  0.00  0.00    +0.055 A 
ATOM      4  C   UNL     1       8.741  -1.363  24.222  0.00  0.00    +0.052 A 
ATOM      5  C   UNL     1       8.976  -2.741  24.746  0.00  0.00    +0.204 A 
ATOM      6  C   UNL     1       8.127  -3.244  25.845  0.00  0.00    +0.122 A 
ATOM      7  C   UNL     1       7.195  -2.415  26.333  0.00  0.00    +0.105 A 
ATOM      8  O   UNL     1       9.846  -3.486  24.295  0.00  0.00    -0.286 OA
ATOM      9  C   UNL     1       9.493  -0.845  23.153  0.00  0.00    -0.001 A 
ATOM     10  C   UNL     1      10.589  -1.613  22.462  0.00  0.00    +0.047 C 
ATOM     11  N   UNL     1       6.975  -1.117  25.919  0.00  0.00    -0.343 N 
ATOM     12  C   UNL     1       9.219   0.460  22.714  0.00  0.00    +0.148 A 
ATOM     13  F   UNL     1       9.970   0.926  21.704  0.00  0.00    -0.203 F 
ENDROOT
BRANCH   1  20
ATOM     14  C   UNL     1       7.693   4.126  25.682  0.00  0.00    +0.025 C 
ATOM     15  C   UNL     1       7.920   4.692  24.276  0.00  0.00    +0.068 C 
ATOM     16  N   UNL     1       6.637   5.090  23.650  0.00  0.00    -0.311 NA
ATOM     17  H   UNL     1       6.077   5.607  24.326  0.00  0.00    +0.122 HD
ATOM     18  C   UNL     1       5.883   3.907  23.198  0.00  0.00    +0.100 C 
ATOM     19  C   UNL     1       6.685   2.947  22.287  0.00  0.00    +0.120 C 
ATOM     20  N   UNL     1       7.981   2.589  22.897  0.00  0.00    -0.325 N 
ATOM     21  C   UNL     1       8.758   3.751  23.367  0.00  0.00    +0.123 C 
ENDBRANCH   1  20
BRANCH  11  22
ATOM     22  C   UNL     1       5.919  -0.322  26.582  0.00  0.00    +0.087 C 
ATOM     23  C   UNL     1       6.211   0.397  27.880  0.00  0.00    +0.027 C 
ATOM     24  C   UNL     1       5.225  -0.727  27.860  0.00  0.00    +0.027 C 
ENDBRANCH  11  22
BRANCH   6  25
ATOM     25  C   UNL     1       8.267  -4.594  26.430  0.00  0.00    +0.342 C 
ATOM     26  O   UNL     1       7.375  -5.426  26.411  0.00  0.00    -0.245 OA
BRANCH  25  27
ATOM     27  O   UNL     1       9.466  -4.844  26.998  0.00  0.00    -0.477 OA
ATOM     28  H   UNL     1       9.478  -4.711  27.978  0.00  0.00    +0.295 HD
ENDBRANCH  25  27
ENDBRANCH   6  25
TORSDOF 4
ENDMDL
MODEL 6
REMARK VINA RESULT:      -6.5      1.240      1.762
REMARK  Name = 
REMARK  6 active torsions:
REMARK  status: ('A' for Active; 'I' for Inactive)
REMARK    1  A    between atoms: C_1  and  C_2
REMARK    2  A    between atoms: N_4  and  C_8
REMARK    3  A    between atoms: C_11  and  C_12
REMARK    4  A    between atoms: C_16  and  C_24
REMARK    5  A    between atoms: N_18  and  C_19
REMARK    6  A    between atoms: C_24  and  O_25
REMARK                            x       y       z     vdW  Elec       q    Type
REMARK                         _______ _______ _______ _____ _____    ______ ____
ROOT
ATOM      1  C   UNL     1       7.111  -0.912  24.663  0.00  0.00    +0.068 A 
ATOM      2  C   UNL     1       7.148  -2.169  24.036  0.00  0.00    +0.052 A 
ATOM      3  C   UNL     1       6.498  -3.308  24.550  0.00  0.00    +0.055 A 
ATOM      4  C   UNL     1       5.806  -3.190  25.775  0.00  0.00    +0.052 A 
ATOM      5  C   UNL     1       5.126  -4.404  26.315  0.00  0.00    +0.204 A 
ATOM      6  C   UNL     1       5.232  -5.675  25.571  0.00  0.00    +0.122 A 
ATOM      7  C   UNL     1       5.924  -5.662  24.424  0.00  0.00    +0.105 A 
ATOM      8  O   UNL     1       4.483  -4.396  27.364  0.00  0.00    -0.286 OA
ATOM      9  C   UNL     1       5.770  -1.962  26.460  0.00  0.00    -0.001 A 
ATOM     10  C   UNL     1       5.047  -1.761  27.765  0.00  0.00    +0.047 C 
ATOM     11  N   UNL     1       6.525  -4.556  23.858  0.00  0.00    -0.343 N 
ATOM     12  C   UNL     1       6.430  -0.861  25.891  0.00  0.00    +0.148 A 
ATOM     13  F   UNL     1       6.357   0.298  26.564  0.00  0.00    -0.203 F 
ENDROOT
BRANCH   1  20
ATOM     14  C   UNL     1       9.293  -1.178  21.628  0.00  0.00    +0.025 C 
ATOM     15  C   UNL     1       8.952   0.296  21.870  0.00  0.00    +0.068 C 
ATOM     16  N   UNL     1      10.086   1.006  22.510  0.00  0.00    -0.311 NA
ATOM     17  H   UNL     1      10.953   0.752  22.039  0.00  0.00    +0.122 HD
ATOM     18  C   UNL     1      10.187   0.656  23.937  0.00  0.00    +0.100 C 
ATOM     19  C   UNL     1       8.876   0.844  24.737  0.00  0.00    +0.120 C 
ATOM     20  N   UNL     1       7.742   0.172  24.072  0.00  0.00    -0.325 N 
ATOM     21  C   UNL     1       7.616   0.496  22.639  0.00  0.00    +0.123 C 
ENDBRANCH   1  20
BRANCH  11  22
ATOM     22  C   UNL     1       7.232  -4.704  22.567  0.00  0.00    +0.087 C 
ATOM     23  C   UNL     1       6.451  -4.737  21.272  0.00  0.00    +0.027 C 
ATOM     24  C   UNL     1       7.199  -5.953  21.719  0.00  0.00    +0.027 C 
ENDBRANCH  11  22
BRANCH   6  25
ATOM     25  C   UNL     1       4.609  -6.937  26.021  0.00  0.00    +0.342 C 
ATOM     26  O   UNL     1       3.872  -7.608  25.316  0.00  0.00    -0.245 OA
BRANCH  25  27
ATOM     27  O   UNL     1       4.912  -7.300  27.286  0.00  0.00    -0.477 OA
ATOM     28  H   UNL     1       5.862  -7.547  27.412  0.00  0.00    +0.295 HD
ENDBRANCH  25  27
ENDBRANCH   6  25
TORSDOF 4
ENDMDL
MODEL 7
REMARK VINA RESULT:      -6.4      4.099      7.422
REMARK  Name = 
REMARK  6 active torsions:
REMARK  status: ('A' for Active; 'I' for Inactive)
REMARK    1  A    between atoms: C_1  and  C_2
REMARK    2  A    between atoms: N_4  and  C_8
REMARK    3  A    between atoms: C_11  and  C_12
REMARK    4  A    between atoms: C_16  and  C_24
REMARK    5  A    between atoms: N_18  and  C_19
REMARK    6  A    between atoms: C_24  and  O_25
REMARK                            x       y       z     vdW  Elec       q    Type
REMARK                         _______ _______ _______ _____ _____    ______ ____
ROOT
ATOM      1  C   UNL     1       8.435  -2.180  24.229  0.00  0.00    +0.068 A 
ATOM      2  C   UNL     1       8.077  -1.311  25.272  0.00  0.00    +0.052 A 
ATOM      3  C   UNL     1       8.046   0.090  25.134  0.00  0.00    +0.055 A 
ATOM      4  C   UNL     1       8.429   0.652  23.896  0.00  0.00    +0.052 A 
ATOM      5  C   UNL     1       8.398   2.138  23.761  0.00  0.00    +0.204 A 
ATOM      6  C   UNL     1       8.006   2.955  24.927  0.00  0.00    +0.122 A 
ATOM      7  C   UNL     1       7.672   2.306  26.050  0.00  0.00    +0.105 A 
ATOM      8  O   UNL     1       8.696   2.718  22.717  0.00  0.00    -0.286 OA
ATOM      9  C   UNL     1       8.831  -0.175  22.832  0.00  0.00    -0.001 A 
ATOM     10  C   UNL     1       9.246   0.352  21.483  0.00  0.00    +0.047 C 
ATOM     11  N   UNL     1       7.634   0.935  26.208  0.00  0.00    -0.343 N 
ATOM     12  C   UNL     1       8.832  -1.565  23.029  0.00  0.00    +0.148 A 
ATOM     13  F   UNL     1       9.203  -2.321  21.984  0.00  0.00    -0.203 F 
ENDROOT
BRANCH   1  20
ATOM     14  C   UNL     1       6.496  -3.829  26.979  0.00  0.00    +0.025 C 
ATOM     15  C   UNL     1       6.926  -4.893  25.964  0.00  0.00    +0.068 C 
ATOM     16  N   UNL     1       8.097  -5.656  26.458  0.00  0.00    -0.311 NA
ATOM     17  H   UNL     1       7.948  -5.909  27.434  0.00  0.00    +0.122 HD
ATOM     18  C   UNL     1       9.330  -4.857  26.346  0.00  0.00    +0.100 C 
ATOM     19  C   UNL     1       9.588  -4.272  24.936  0.00  0.00    +0.120 C 
ATOM     20  N   UNL     1       8.402  -3.551  24.431  0.00  0.00    -0.325 N 
ATOM     21  C   UNL     1       7.149  -4.321  24.536  0.00  0.00    +0.123 C 
ENDBRANCH   1  20
BRANCH  11  22
ATOM     22  C   UNL     1       7.216   0.374  27.511  0.00  0.00    +0.087 C 
ATOM     23  C   UNL     1       5.752   0.124  27.796  0.00  0.00    +0.027 C 
ATOM     24  C   UNL     1       6.495   1.157  28.582  0.00  0.00    +0.027 C 
ENDBRANCH  11  22
BRANCH   6  25
ATOM     25  C   UNL     1       7.954   4.432  24.906  0.00  0.00    +0.342 C 
ATOM     26  O   UNL     1       8.609   5.135  25.657  0.00  0.00    -0.245 OA
BRANCH  25  27
ATOM     27  O   UNL     1       7.115   4.956  23.987  0.00  0.00    -0.477 OA
ATOM     28  H   UNL     1       6.167   4.708  24.126  0.00  0.00    +0.295 HD
ENDBRANCH  25  27
ENDBRANCH   6  25
TORSDOF 4
ENDMDL
MODEL 8
REMARK VINA RESULT:      -6.4      2.401      3.767
REMARK  Name = 
REMARK  6 active torsions:
REMARK  status: ('A' for Active; 'I' for Inactive)
REMARK    1  A    between atoms: C_1  and  C_2
REMARK    2  A    between atoms: N_4  and  C_8
REMARK    3  A    between atoms: C_11  and  C_12
REMARK    4  A    between atoms: C_16  and  C_24
REMARK    5  A    between atoms: N_18  and  C_19
REMARK    6  A    between atoms: C_24  and  O_25
REMARK                            x       y       z     vdW  Elec       q    Type
REMARK                         _______ _______ _______ _____ _____    ______ ____
ROOT
ATOM      1  C   UNL     1       7.606   0.406  24.736  0.00  0.00    +0.068 A 
ATOM      2  C   UNL     1       6.622  -0.200  25.535  0.00  0.00    +0.052 A 
ATOM      3  C   UNL     1       6.660  -1.557  25.910  0.00  0.00    +0.055 A 
ATOM      4  C   UNL     1       7.719  -2.357  25.429  0.00  0.00    +0.052 A 
ATOM      5  C   UNL     1       7.747  -3.796  25.826  0.00  0.00    +0.204 A 
ATOM      6  C   UNL     1       6.658  -4.327  26.670  0.00  0.00    +0.122 A 
ATOM      7  C   UNL     1       5.704  -3.470  27.056  0.00  0.00    +0.105 A 
ATOM      8  O   UNL     1       8.639  -4.567  25.473  0.00  0.00    -0.286 OA
ATOM      9  C   UNL     1       8.709  -1.806  24.596  0.00  0.00    -0.001 A 
ATOM     10  C   UNL     1       9.870  -2.596  24.052  0.00  0.00    +0.047 C 
ATOM     11  N   UNL     1       5.662  -2.123  26.759  0.00  0.00    -0.343 N 
ATOM     12  C   UNL     1       8.621  -0.444  24.265  0.00  0.00    +0.148 A 
ATOM     13  F   UNL     1       9.595   0.050  23.485  0.00  0.00    -0.203 F 
ENDROOT
BRANCH   1  20
ATOM     14  C   UNL     1       8.103   1.828  21.305  0.00  0.00    +0.025 C 
ATOM     15  C   UNL     1       7.472   2.898  22.202  0.00  0.00    +0.068 C 
ATOM     16  N   UNL     1       8.487   3.879  22.655  0.00  0.00    -0.311 NA
ATOM     17  H   UNL     1       9.069   4.152  21.865  0.00  0.00    +0.122 HD
ATOM     18  C   UNL     1       9.339   3.304  23.711  0.00  0.00    +0.100 C 
ATOM     19  C   UNL     1       8.559   2.702  24.905  0.00  0.00    +0.120 C 
ATOM     20  N   UNL     1       7.520   1.759  24.444  0.00  0.00    -0.325 N 
ATOM     21  C   UNL     1       6.654   2.302  23.381  0.00  0.00    +0.123 C 
ENDBRANCH   1  20
BRANCH  11  22
ATOM     22  C   UNL     1       4.549  -1.305  27.287  0.00  0.00    +0.087 C 
ATOM     23  C   UNL     1       4.684  -0.609  28.623  0.00  0.00    +0.027 C 
ATOM     24  C   UNL     1       3.680  -1.705  28.455  0.00  0.00    +0.027 C 
ENDBRANCH  11  22
BRANCH   6  25
ATOM     25  C   UNL     1       6.582  -5.736  27.111  0.00  0.00    +0.342 C 
ATOM     26  O   UNL     1       5.666  -6.482  26.809  0.00  0.00    -0.245 OA
BRANCH  25  27
ATOM     27  O   UNL     1       7.610  -6.143  27.886  0.00  0.00    -0.477 OA
ATOM     28  H   UNL     1       8.044  -5.410  28.389  0.00  0.00    +0.295 HD
ENDBRANCH  25  27
ENDBRANCH   6  25
TORSDOF 4
ENDMDL
MODEL 9
REMARK VINA RESULT:      -6.4      4.274      7.308
REMARK  Name = 
REMARK  6 active torsions:
REMARK  status: ('A' for Active; 'I' for Inactive)
REMARK    1  A    between atoms: C_1  and  C_2
REMARK    2  A    between atoms: N_4  and  C_8
REMARK    3  A    between atoms: C_11  and  C_12
REMARK    4  A    between atoms: C_16  and  C_24
REMARK    5  A    between atoms: N_18  and  C_19
REMARK    6  A    between atoms: C_24  and  O_25
REMARK                            x       y       z     vdW  Elec       q    Type
REMARK                         _______ _______ _______ _____ _____    ______ ____
ROOT
ATOM      1  C   UNL     1       8.780  -1.286  23.702  0.00  0.00    +0.068 A 
ATOM      2  C   UNL     1       8.111  -0.703  24.791  0.00  0.00    +0.052 A 
ATOM      3  C   UNL     1       8.066   0.687  25.017  0.00  0.00    +0.055 A 
ATOM      4  C   UNL     1       8.758   1.534  24.124  0.00  0.00    +0.052 A 
ATOM      5  C   UNL     1       8.709   3.005  24.374  0.00  0.00    +0.204 A 
ATOM      6  C   UNL     1       7.976   3.507  25.553  0.00  0.00    +0.122 A 
ATOM      7  C   UNL     1       7.366   2.602  26.330  0.00  0.00    +0.105 A 
ATOM      8  O   UNL     1       9.265   3.823  23.642  0.00  0.00    -0.286 OA
ATOM      9  C   UNL     1       9.473   0.996  23.038  0.00  0.00    -0.001 A 
ATOM     10  C   UNL     1      10.228   1.838  22.044  0.00  0.00    +0.047 C 
ATOM     11  N   UNL     1       7.338   1.240  26.112  0.00  0.00    -0.343 N 
ATOM     12  C   UNL     1       9.472  -0.397  22.862  0.00  0.00    +0.148 A 
ATOM     13  F   UNL     1      10.149  -0.870  21.805  0.00  0.00    -0.203 F 
ENDROOT
BRANCH   1  20
ATOM     14  C   UNL     1       5.654  -3.335  23.973  0.00  0.00    +0.025 C 
ATOM     15  C   UNL     1       6.750  -4.182  23.319  0.00  0.00    +0.068 C 
ATOM     16  N   UNL     1       7.344  -5.127  24.294  0.00  0.00    -0.311 NA
ATOM     17  H   UNL     1       6.601  -5.576  24.827  0.00  0.00    +0.122 HD
ATOM     18  C   UNL     1       8.251  -4.427  25.221  0.00  0.00    +0.100 C 
ATOM     19  C   UNL     1       9.337  -3.569  24.528  0.00  0.00    +0.120 C 
ATOM     20  N   UNL     1       8.744  -2.661  23.526  0.00  0.00    -0.325 N 
ATOM     21  C   UNL     1       7.825  -3.330  22.587  0.00  0.00    +0.123 C 
ENDBRANCH   1  20
BRANCH  11  22
ATOM     22  C   UNL     1       6.594   0.377  27.055  0.00  0.00    +0.087 C 
ATOM     23  C   UNL     1       5.119   0.117  26.846  0.00  0.00    +0.027 C 
ATOM     24  C   UNL     1       5.575   0.883  28.047  0.00  0.00    +0.027 C 
ENDBRANCH  11  22
BRANCH   6  25
ATOM     25  C   UNL     1       7.875   4.940  25.900  0.00  0.00    +0.342 C 
ATOM     26  O   UNL     1       8.098   5.374  27.018  0.00  0.00    -0.245 OA
BRANCH  25  27
ATOM     27  O   UNL     1       7.509   5.745  24.879  0.00  0.00    -0.477 OA
ATOM     28  H   UNL     1       6.665   5.473  24.440  0.00  0.00    +0.295 HD
ENDBRANCH  25  27
ENDBRANCH   6  25
TORSDOF 4
ENDMDL
