MODEL 1
REMARK VINA RESULT:      -7.1      0.000      0.000
REMARK  Name = 
REMARK  3 active torsions:
REMARK  status: ('A' for Active; 'I' for Inactive)
REMARK    1  A    between atoms: O_1  and  C_2
REMARK    2  A    between atoms: C_5  and  N_18
REMARK    3  A    between atoms: C_11  and  O_12
REMARK                            x       y       z     vdW  Elec       q    Type
REMARK                         _______ _______ _______ _____ _____    ______ ____
ROOT
ATOM      1  C   UNL     1       7.428  -4.106  25.763  0.00  0.00    +0.132 A 
ATOM      2  C   UNL     1       7.904  -3.207  24.790  0.00  0.00    +0.113 A 
ATOM      3  C   UNL     1       8.701  -2.011  25.142  0.00  0.00    +0.207 A 
ATOM      4  C   UNL     1       9.138  -1.140  24.044  0.00  0.00    +0.106 A 
ATOM      5  C   UNL     1       8.775  -1.484  22.746  0.00  0.00    +0.143 A 
ATOM      6  O   UNL     1       8.027  -2.587  22.430  0.00  0.00    -0.448 OA
ATOM      7  C   UNL     1       9.178  -0.676  21.678  0.00  0.00    +0.047 A 
ATOM      8  C   UNL     1       9.938   0.472  21.913  0.00  0.00    +0.007 A 
ATOM      9  C   UNL     1      10.299   0.817  23.216  0.00  0.00    +0.046 A 
ATOM     10  C   UNL     1       9.899   0.012  24.278  0.00  0.00    +0.131 A 
ATOM     11  O   UNL     1       9.016  -1.706  26.286  0.00  0.00    -0.286 OA
ATOM     12  C   UNL     1       7.621  -3.427  23.438  0.00  0.00    +0.219 A 
ATOM     13  C   UNL     1       6.861  -4.553  23.094  0.00  0.00    +0.316 A 
ATOM     14  C   UNL     1       6.377  -5.447  24.056  0.00  0.00    +0.092 A 
ATOM     15  C   UNL     1       6.667  -5.220  25.398  0.00  0.00    +0.053 A 
ENDROOT
BRANCH  13  16
ATOM     16  N   UNL     1       6.546  -4.823  21.705  0.00  0.00    +0.083 N 
ATOM     17  O   UNL     1       7.129  -5.769  21.162  0.00  0.00    +0.042 OA
ATOM     18  O   UNL     1       5.679  -4.111  21.181  0.00  0.00    -0.576 OA
ENDBRANCH  13  16
BRANCH   1  19
ATOM     19  O   UNL     1       7.696  -3.907  27.086  0.00  0.00    -0.506 OA
ATOM     20  H   UNL     1       8.584  -4.224  27.317  0.00  0.00    +0.292 HD
ENDBRANCH   1  19
BRANCH  10  21
ATOM     21  O   UNL     1      10.286   0.406  25.531  0.00  0.00    -0.506 OA
ATOM     22  H   UNL     1      10.125  -0.348  26.143  0.00  0.00    +0.292 HD
ENDBRANCH  10  21
TORSDOF 3
ENDMDL
MODEL 2
REMARK VINA RESULT:      -6.4      2.182      2.302
REMARK  Name = 
REMARK  3 active torsions:
REMARK  status: ('A' for Active; 'I' for Inactive)
REMARK    1  A    between atoms: O_1  and  C_2
REMARK    2  A    between atoms: C_5  and  N_18
REMARK    3  A    between atoms: C_11  and  O_12
REMARK                            x       y       z     vdW  Elec       q    Type
REMARK                         _______ _______ _______ _____ _____    ______ ____
ROOT
ATOM      1  C   UNL     1       4.433  -3.342  24.322  0.00  0.00    +0.132 A 
ATOM      2  C   UNL     1       5.601  -2.832  23.725  0.00  0.00    +0.113 A 
ATOM      3  C   UNL     1       6.146  -1.500  24.066  0.00  0.00    +0.207 A 
ATOM      4  C   UNL     1       7.367  -1.069  23.374  0.00  0.00    +0.106 A 
ATOM      5  C   UNL     1       7.933  -1.929  22.439  0.00  0.00    +0.143 A 
ATOM      6  O   UNL     1       7.416  -3.157  22.121  0.00  0.00    -0.448 OA
ATOM      7  C   UNL     1       9.097  -1.549  21.765  0.00  0.00    +0.047 A 
ATOM      8  C   UNL     1       9.687  -0.310  22.025  0.00  0.00    +0.007 A 
ATOM      9  C   UNL     1       9.116   0.554  22.961  0.00  0.00    +0.046 A 
ATOM     10  C   UNL     1       7.959   0.173  23.633  0.00  0.00    +0.131 A 
ATOM     11  O   UNL     1       5.644  -0.740  24.885  0.00  0.00    -0.286 OA
ATOM     12  C   UNL     1       6.284  -3.590  22.767  0.00  0.00    +0.219 A 
ATOM     13  C   UNL     1       5.772  -4.851  22.431  0.00  0.00    +0.316 A 
ATOM     14  C   UNL     1       4.607  -5.361  23.015  0.00  0.00    +0.092 A 
ATOM     15  C   UNL     1       3.937  -4.600  23.968  0.00  0.00    +0.053 A 
ENDROOT
BRANCH  13  16
ATOM     16  N   UNL     1       6.448  -5.673  21.447  0.00  0.00    +0.083 N 
ATOM     17  O   UNL     1       7.391  -6.371  21.839  0.00  0.00    +0.042 OA
ATOM     18  O   UNL     1       5.997  -5.647  20.294  0.00  0.00    -0.576 OA
ENDBRANCH  13  16
BRANCH   1  19
ATOM     19  O   UNL     1       3.756  -2.617  25.259  0.00  0.00    -0.506 OA
ATOM     20  H   UNL     1       4.327  -2.390  26.009  0.00  0.00    +0.292 HD
ENDBRANCH   1  19
BRANCH  10  21
ATOM     21  O   UNL     1       7.450   1.066  24.538  0.00  0.00    -0.506 OA
ATOM     22  H   UNL     1       7.616   0.704  25.439  0.00  0.00    +0.292 HD
ENDBRANCH  10  21
TORSDOF 3
ENDMDL
MODEL 3
REMARK VINA RESULT:      -6.4      2.961      6.115
REMARK  Name = 
REMARK  3 active torsions:
REMARK  status: ('A' for Active; 'I' for Inactive)
REMARK    1  A    between atoms: O_1  and  C_2
REMARK    2  A    between atoms: C_5  and  N_18
REMARK    3  A    between atoms: C_11  and  O_12
REMARK                            x       y       z     vdW  Elec       q    Type
REMARK                         _______ _______ _______ _____ _____    ______ ____
ROOT
ATOM      1  C   UNL     1       7.696  -5.195  26.707  0.00  0.00    +0.132 A 
ATOM      2  C   UNL     1       6.575  -5.226  25.857  0.00  0.00    +0.113 A 
ATOM      3  C   UNL     1       5.458  -6.176  26.055  0.00  0.00    +0.207 A 
ATOM      4  C   UNL     1       4.344  -6.122  25.101  0.00  0.00    +0.106 A 
ATOM      5  C   UNL     1       4.405  -5.193  24.068  0.00  0.00    +0.143 A 
ATOM      6  O   UNL     1       5.449  -4.324  23.885  0.00  0.00    -0.448 OA
ATOM      7  C   UNL     1       3.359  -5.115  23.144  0.00  0.00    +0.047 A 
ATOM      8  C   UNL     1       2.259  -5.969  23.255  0.00  0.00    +0.007 A 
ATOM      9  C   UNL     1       2.201  -6.903  24.290  0.00  0.00    +0.046 A 
ATOM     10  C   UNL     1       3.242  -6.978  25.210  0.00  0.00    +0.131 A 
ATOM     11  O   UNL     1       5.408  -6.998  26.962  0.00  0.00    -0.286 OA
ATOM     12  C   UNL     1       6.495  -4.343  24.774  0.00  0.00    +0.219 A 
ATOM     13  C   UNL     1       7.551  -3.444  24.572  0.00  0.00    +0.316 A 
ATOM     14  C   UNL     1       8.672  -3.412  25.409  0.00  0.00    +0.092 A 
ATOM     15  C   UNL     1       8.741  -4.293  26.483  0.00  0.00    +0.053 A 
ENDROOT
BRANCH  13  16
ATOM     16  N   UNL     1       7.509  -2.508  23.466  0.00  0.00    +0.083 N 
ATOM     17  O   UNL     1       6.939  -1.426  23.656  0.00  0.00    +0.042 OA
ATOM     18  O   UNL     1       8.090  -2.847  22.426  0.00  0.00    -0.576 OA
ENDBRANCH  13  16
BRANCH   1  19
ATOM     19  O   UNL     1       7.790  -6.048  27.767  0.00  0.00    -0.506 OA
ATOM     20  H   UNL     1       7.051  -5.925  28.385  0.00  0.00    +0.292 HD
ENDBRANCH   1  19
BRANCH  10  21
ATOM     21  O   UNL     1       3.123  -7.916  26.200  0.00  0.00    -0.506 OA
ATOM     22  H   UNL     1       3.739  -8.654  25.987  0.00  0.00    +0.292 HD
ENDBRANCH  10  21
TORSDOF 3
ENDMDL
MODEL 4
REMARK VINA RESULT:      -6.3      1.704      3.680
REMARK  Name = 
REMARK  3 active torsions:
REMARK  status: ('A' for Active; 'I' for Inactive)
REMARK    1  A    between atoms: O_1  and  C_2
REMARK    2  A    between atoms: C_5  and  N_18
REMARK    3  A    between atoms: C_11  and  O_12
REMARK                            x       y       z     vdW  Elec       q    Type
REMARK                         _______ _______ _______ _____ _____    ______ ____
ROOT
ATOM      1  C   UNL     1       6.760  -4.671  22.855  0.00  0.00    +0.132 A 
ATOM      2  C   UNL     1       7.466  -3.624  23.477  0.00  0.00    +0.113 A 
ATOM      3  C   UNL     1       8.261  -2.641  22.709  0.00  0.00    +0.207 A 
ATOM      4  C   UNL     1       8.962  -1.597  23.464  0.00  0.00    +0.106 A 
ATOM      5  C   UNL     1       8.844  -1.594  24.850  0.00  0.00    +0.143 A 
ATOM      6  O   UNL     1       8.115  -2.514  25.555  0.00  0.00    -0.448 OA
ATOM      7  C   UNL     1       9.498  -0.610  25.599  0.00  0.00    +0.047 A 
ATOM      8  C   UNL     1      10.268   0.364  24.958  0.00  0.00    +0.007 A 
ATOM      9  C   UNL     1      10.388   0.358  23.568  0.00  0.00    +0.046 A 
ATOM     10  C   UNL     1       9.736  -0.620  22.824  0.00  0.00    +0.131 A 
ATOM     11  O   UNL     1       8.369  -2.648  21.488  0.00  0.00    -0.286 OA
ATOM     12  C   UNL     1       7.436  -3.492  24.870  0.00  0.00    +0.219 A 
ATOM     13  C   UNL     1       6.692  -4.422  25.608  0.00  0.00    +0.316 A 
ATOM     14  C   UNL     1       5.994  -5.470  24.998  0.00  0.00    +0.092 A 
ATOM     15  C   UNL     1       6.029  -5.591  23.613  0.00  0.00    +0.053 A 
ENDROOT
BRANCH  13  16
ATOM     16  N   UNL     1       6.629  -4.322  27.053  0.00  0.00    +0.083 N 
ATOM     17  O   UNL     1       5.768  -3.575  27.536  0.00  0.00    +0.042 OA
ATOM     18  O   UNL     1       7.415  -5.031  27.696  0.00  0.00    -0.576 OA
ENDBRANCH  13  16
BRANCH   1  19
ATOM     19  O   UNL     1       6.778  -4.814  21.499  0.00  0.00    -0.506 OA
ATOM     20  H   UNL     1       6.265  -4.114  21.065  0.00  0.00    +0.292 HD
ENDBRANCH   1  19
BRANCH  10  21
ATOM     21  O   UNL     1       9.894  -0.570  21.465  0.00  0.00    -0.506 OA
ATOM     22  H   UNL     1       9.008  -0.707  21.057  0.00  0.00    +0.292 HD
ENDBRANCH  10  21
TORSDOF 3
ENDMDL
MODEL 5
REMARK VINA RESULT:      -6.3      3.339      6.344
REMARK  Name = 
REMARK  3 active torsions:
REMARK  status: ('A' for Active; 'I' for Inactive)
REMARK    1  A    between atoms: O_1  and  C_2
REMARK    2  A    between atoms: C_5  and  N_18
REMARK    3  A    between atoms: C_11  and  O_12
REMARK                            x       y       z     vdW  Elec       q    Type
REMARK                         _______ _______ _______ _____ _____    ______ ____
ROOT
ATOM      1  C   UNL     1       8.206  -5.135  25.691  0.00  0.00    +0.132 A 
ATOM      2  C   UNL     1       6.861  -5.468  25.937  0.00  0.00    +0.113 A 
ATOM      3  C   UNL     1       6.392  -5.938  27.259  0.00  0.00    +0.207 A 
ATOM      4  C   UNL     1       4.968  -6.264  27.396  0.00  0.00    +0.106 A 
ATOM      5  C   UNL     1       4.147  -6.118  26.283  0.00  0.00    +0.143 A 
ATOM      6  O   UNL     1       4.592  -5.692  25.059  0.00  0.00    -0.448 OA
ATOM      7  C   UNL     1       2.785  -6.417  26.383  0.00  0.00    +0.047 A 
ATOM      8  C   UNL     1       2.251  -6.863  27.593  0.00  0.00    +0.007 A 
ATOM      9  C   UNL     1       3.076  -7.012  28.709  0.00  0.00    +0.046 A 
ATOM     10  C   UNL     1       4.431  -6.712  28.609  0.00  0.00    +0.131 A 
ATOM     11  O   UNL     1       7.117  -6.071  28.237  0.00  0.00    -0.286 OA
ATOM     12  C   UNL     1       5.917  -5.366  24.908  0.00  0.00    +0.219 A 
ATOM     13  C   UNL     1       6.352  -4.928  23.650  0.00  0.00    +0.316 A 
ATOM     14  C   UNL     1       7.689  -4.603  23.396  0.00  0.00    +0.092 A 
ATOM     15  C   UNL     1       8.619  -4.706  24.425  0.00  0.00    +0.053 A 
ENDROOT
BRANCH  13  16
ATOM     16  N   UNL     1       5.408  -4.803  22.556  0.00  0.00    +0.083 N 
ATOM     17  O   UNL     1       5.199  -5.809  21.867  0.00  0.00    +0.042 OA
ATOM     18  O   UNL     1       4.848  -3.707  22.426  0.00  0.00    -0.576 OA
ENDBRANCH  13  16
BRANCH   1  19
ATOM     19  O   UNL     1       9.139  -5.228  26.682  0.00  0.00    -0.506 OA
ATOM     20  H   UNL     1       9.343  -4.356  27.056  0.00  0.00    +0.292 HD
ENDBRANCH   1  19
BRANCH  10  21
ATOM     21  O   UNL     1       5.184  -6.879  29.740  0.00  0.00    -0.506 OA
ATOM     22  H   UNL     1       4.791  -6.315  30.446  0.00  0.00    +0.292 HD
ENDBRANCH  10  21
TORSDOF 3
ENDMDL
MODEL 6
REMARK VINA RESULT:      -6.3      2.804      3.360
REMARK  Name = 
REMARK  3 active torsions:
REMARK  status: ('A' for Active; 'I' for Inactive)
REMARK    1  A    between atoms: O_1  and  C_2
REMARK    2  A    between atoms: C_5  and  N_18
REMARK    3  A    between atoms: C_11  and  O_12
REMARK                            x       y       z     vdW  Elec       q    Type
REMARK                         _______ _______ _______ _____ _____    ______ ____
ROOT
ATOM      1  C   UNL     1       8.778  -4.703  25.988  0.00  0.00    +0.132 A 
ATOM      2  C   UNL     1       8.456  -3.541  25.263  0.00  0.00    +0.113 A 
ATOM      3  C   UNL     1       9.349  -2.985  24.223  0.00  0.00    +0.207 A 
ATOM      4  C   UNL     1       8.914  -1.763  23.536  0.00  0.00    +0.106 A 
ATOM      5  C   UNL     1       7.697  -1.198  23.905  0.00  0.00    +0.143 A 
ATOM      6  O   UNL     1       6.881  -1.713  24.877  0.00  0.00    -0.448 OA
ATOM      7  C   UNL     1       7.253  -0.036  23.268  0.00  0.00    +0.047 A 
ATOM      8  C   UNL     1       8.027   0.558  22.269  0.00  0.00    +0.007 A 
ATOM      9  C   UNL     1       9.249  -0.008  21.902  0.00  0.00    +0.046 A 
ATOM     10  C   UNL     1       9.690  -1.166  22.535  0.00  0.00    +0.131 A 
ATOM     11  O   UNL     1      10.423  -3.481  23.903  0.00  0.00    -0.286 OA
ATOM     12  C   UNL     1       7.259  -2.865  25.523  0.00  0.00    +0.219 A 
ATOM     13  C   UNL     1       6.408  -3.378  26.511  0.00  0.00    +0.316 A 
ATOM     14  C   UNL     1       6.725  -4.529  27.242  0.00  0.00    +0.092 A 
ATOM     15  C   UNL     1       7.917  -5.194  26.974  0.00  0.00    +0.053 A 
ENDROOT
BRANCH  13  16
ATOM     16  N   UNL     1       5.155  -2.713  26.811  0.00  0.00    +0.083 N 
ATOM     17  O   UNL     1       4.142  -3.115  26.225  0.00  0.00    +0.042 OA
ATOM     18  O   UNL     1       5.189  -1.822  27.670  0.00  0.00    -0.576 OA
ENDBRANCH  13  16
BRANCH   1  19
ATOM     19  O   UNL     1       9.941  -5.374  25.747  0.00  0.00    -0.506 OA
ATOM     20  H   UNL     1       9.809  -6.334  25.795  0.00  0.00    +0.292 HD
ENDBRANCH   1  19
BRANCH  10  21
ATOM     21  O   UNL     1      10.896  -1.671  22.129  0.00  0.00    -0.506 OA
ATOM     22  H   UNL     1      11.270  -2.188  22.879  0.00  0.00    +0.292 HD
ENDBRANCH  10  21
TORSDOF 3
ENDMDL
MODEL 7
REMARK VINA RESULT:      -6.3      2.999      6.525
REMARK  Name = 
REMARK  3 active torsions:
REMARK  status: ('A' for Active; 'I' for Inactive)
REMARK    1  A    between atoms: O_1  and  C_2
REMARK    2  A    between atoms: C_5  and  N_18
REMARK    3  A    between atoms: C_11  and  O_12
REMARK                            x       y       z     vdW  Elec       q    Type
REMARK                         _______ _______ _______ _____ _____    ______ ____
ROOT
ATOM      1  C   UNL     1       5.678  -5.510  22.581  0.00  0.00    +0.132 A 
ATOM      2  C   UNL     1       5.846  -5.558  23.977  0.00  0.00    +0.113 A 
ATOM      3  C   UNL     1       4.906  -6.278  24.863  0.00  0.00    +0.207 A 
ATOM      4  C   UNL     1       5.178  -6.254  26.305  0.00  0.00    +0.106 A 
ATOM      5  C   UNL     1       6.294  -5.556  26.753  0.00  0.00    +0.143 A 
ATOM      6  O   UNL     1       7.155  -4.883  25.927  0.00  0.00    -0.448 OA
ATOM      7  C   UNL     1       6.583  -5.517  28.121  0.00  0.00    +0.047 A 
ATOM      8  C   UNL     1       5.753  -6.172  29.033  0.00  0.00    +0.007 A 
ATOM      9  C   UNL     1       4.631  -6.870  28.582  0.00  0.00    +0.046 A 
ATOM     10  C   UNL     1       4.346  -6.910  27.221  0.00  0.00    +0.131 A 
ATOM     11  O   UNL     1       3.919  -6.888  24.467  0.00  0.00    -0.286 OA
ATOM     12  C   UNL     1       6.931  -4.904  24.572  0.00  0.00    +0.219 A 
ATOM     13  C   UNL     1       7.825  -4.213  23.743  0.00  0.00    +0.316 A 
ATOM     14  C   UNL     1       7.659  -4.154  22.355  0.00  0.00    +0.092 A 
ATOM     15  C   UNL     1       6.579  -4.810  21.773  0.00  0.00    +0.053 A 
ENDROOT
BRANCH  13  16
ATOM     16  N   UNL     1       8.965  -3.524  24.316  0.00  0.00    +0.083 N 
ATOM     17  O   UNL     1      10.011  -4.169  24.452  0.00  0.00    +0.042 OA
ATOM     18  O   UNL     1       8.815  -2.324  24.582  0.00  0.00    -0.576 OA
ENDBRANCH  13  16
BRANCH   1  19
ATOM     19  O   UNL     1       4.627  -6.143  21.984  0.00  0.00    -0.506 OA
ATOM     20  H   UNL     1       4.903  -6.982  21.582  0.00  0.00    +0.292 HD
ENDBRANCH   1  19
BRANCH  10  21
ATOM     21  O   UNL     1       3.232  -7.611  26.844  0.00  0.00    -0.506 OA
ATOM     22  H   UNL     1       2.930  -8.131  27.624  0.00  0.00    +0.292 HD
ENDBRANCH  10  21
TORSDOF 3
ENDMDL
MODEL 8
REMARK VINA RESULT:      -6.1      2.150      5.067
REMARK  Name = 
REMARK  3 active torsions:
REMARK  status: ('A' for Active; 'I' for Inactive)
REMARK    1  A    between atoms: O_1  and  C_2
REMARK    2  A    between atoms: C_5  and  N_18
REMARK    3  A    between atoms: C_11  and  O_12
REMARK                            x       y       z     vdW  Elec       q    Type
REMARK                         _______ _______ _______ _____ _____    ______ ____
ROOT
ATOM      1  C   UNL     1       7.853  -1.182  25.934  0.00  0.00    +0.132 A 
ATOM      2  C   UNL     1       7.603  -2.176  24.969  0.00  0.00    +0.113 A 
ATOM      3  C   UNL     1       6.627  -3.265  25.189  0.00  0.00    +0.207 A 
ATOM      4  C   UNL     1       6.454  -4.250  24.115  0.00  0.00    +0.106 A 
ATOM      5  C   UNL     1       7.217  -4.106  22.961  0.00  0.00    +0.143 A 
ATOM      6  O   UNL     1       8.127  -3.100  22.768  0.00  0.00    -0.448 OA
ATOM      7  C   UNL     1       7.074  -5.027  21.918  0.00  0.00    +0.047 A 
ATOM      8  C   UNL     1       6.172  -6.086  22.035  0.00  0.00    +0.007 A 
ATOM      9  C   UNL     1       5.409  -6.231  23.195  0.00  0.00    +0.046 A 
ATOM     10  C   UNL     1       5.551  -5.313  24.231  0.00  0.00    +0.131 A 
ATOM     11  O   UNL     1       5.959  -3.393  26.209  0.00  0.00    -0.286 OA
ATOM     12  C   UNL     1       8.295  -2.157  23.752  0.00  0.00    +0.219 A 
ATOM     13  C   UNL     1       9.227  -1.134  23.535  0.00  0.00    +0.316 A 
ATOM     14  C   UNL     1       9.487  -0.147  24.493  0.00  0.00    +0.092 A 
ATOM     15  C   UNL     1       8.792  -0.174  25.698  0.00  0.00    +0.053 A 
ENDROOT
BRANCH  13  16
ATOM     16  N   UNL     1       9.965  -1.073  22.288  0.00  0.00    +0.083 N 
ATOM     17  O   UNL     1       9.570  -0.272  21.432  0.00  0.00    +0.042 OA
ATOM     18  O   UNL     1      10.965  -1.797  22.196  0.00  0.00    -0.576 OA
ENDBRANCH  13  16
BRANCH   1  19
ATOM     19  O   UNL     1       7.186  -1.185  27.124  0.00  0.00    -0.506 OA
ATOM     20  H   UNL     1       6.951  -0.284  27.398  0.00  0.00    +0.292 HD
ENDBRANCH   1  19
BRANCH  10  21
ATOM     21  O   UNL     1       4.774  -5.512  25.340  0.00  0.00    -0.506 OA
ATOM     22  H   UNL     1       4.288  -6.359  25.216  0.00  0.00    +0.292 HD
ENDBRANCH  10  21
TORSDOF 3
ENDMDL
MODEL 9
REMARK VINA RESULT:      -6.1      2.997      3.826
REMARK  Name = 
REMARK  3 active torsions:
REMARK  status: ('A' for Active; 'I' for Inactive)
REMARK    1  A    between atoms: O_1  and  C_2
REMARK    2  A    between atoms: C_5  and  N_18
REMARK    3  A    between atoms: C_11  and  O_12
REMARK                            x       y       z     vdW  Elec       q    Type
REMARK                         _______ _______ _______ _____ _____    ______ ____
ROOT
ATOM      1  C   UNL     1       9.166  -2.575  23.710  0.00  0.00    +0.132 A 
ATOM      2  C   UNL     1       8.419  -1.392  23.555  0.00  0.00    +0.113 A 
ATOM      3  C   UNL     1       8.940  -0.219  22.819  0.00  0.00    +0.207 A 
ATOM      4  C   UNL     1       8.075   0.963  22.728  0.00  0.00    +0.106 A 
ATOM      5  C   UNL     1       6.826   0.915  23.339  0.00  0.00    +0.143 A 
ATOM      6  O   UNL     1       6.356  -0.172  24.028  0.00  0.00    -0.448 OA
ATOM      7  C   UNL     1       5.978   2.024  23.268  0.00  0.00    +0.047 A 
ATOM      8  C   UNL     1       6.383   3.176  22.589  0.00  0.00    +0.007 A 
ATOM      9  C   UNL     1       7.637   3.224  21.979  0.00  0.00    +0.046 A 
ATOM     10  C   UNL     1       8.480   2.119  22.049  0.00  0.00    +0.131 A 
ATOM     11  O   UNL     1      10.042  -0.176  22.286  0.00  0.00    -0.286 OA
ATOM     12  C   UNL     1       7.140  -1.296  24.114  0.00  0.00    +0.219 A 
ATOM     13  C   UNL     1       6.639  -2.399  24.819  0.00  0.00    +0.316 A 
ATOM     14  C   UNL     1       7.379  -3.575  24.984  0.00  0.00    +0.092 A 
ATOM     15  C   UNL     1       8.649  -3.661  24.423  0.00  0.00    +0.053 A 
ENDROOT
BRANCH  13  16
ATOM     16  N   UNL     1       5.317  -2.346  25.411  0.00  0.00    +0.083 N 
ATOM     17  O   UNL     1       4.360  -2.674  24.699  0.00  0.00    +0.042 OA
ATOM     18  O   UNL     1       5.253  -2.018  26.604  0.00  0.00    -0.576 OA
ENDBRANCH  13  16
BRANCH   1  19
ATOM     19  O   UNL     1      10.414  -2.686  23.171  0.00  0.00    -0.506 OA
ATOM     20  H   UNL     1      10.615  -1.935  22.591  0.00  0.00    +0.292 HD
ENDBRANCH   1  19
BRANCH  10  21
ATOM     21  O   UNL     1       9.696   2.231  21.430  0.00  0.00    -0.506 OA
ATOM     22  H   UNL     1      10.045   3.132  21.620  0.00  0.00    +0.292 HD
ENDBRANCH  10  21
TORSDOF 3
ENDMDL
