MODEL 1
REMARK VINA RESULT:      -7.7      0.000      0.000
REMARK  Name = 
REMARK  18 active torsions:
REMARK  status: ('A' for Active; 'I' for Inactive)
REMARK    1  A    between atoms: C_1  and  C_2
REMARK    2  A    between atoms: C_2  and  O_4
REMARK    3  A    between atoms: O_4  and  C_5
REMARK    4  A    between atoms: C_7  and  O_9
REMARK    5  A    between atoms: C_11  and  C_13
REMARK    6  A    between atoms: C_13  and  O_14
REMARK    7  A    between atoms: O_14  and  P_15
REMARK    8  A    between atoms: P_15  and  O_16
REMARK    9  A    between atoms: P_15  and  O_18
REMARK   10  A    between atoms: O_18  and  P_19
REMARK   11  A    between atoms: P_19  and  O_20
REMARK   12  A    between atoms: P_19  and  O_22
REMARK   13  A    between atoms: O_22  and  C_23
REMARK   14  A    between atoms: C_23  and  C_24
REMARK   15  A    between atoms: C_27  and  N_35
REMARK   16  A    between atoms: C_29  and  O_31
REMARK   17  A    between atoms: C_32  and  O_34
REMARK   18  A    between atoms: C_45  and  O_47
REMARK                            x       y       z     vdW  Elec       q    Type
REMARK                         _______ _______ _______ _____ _____    ______ ____
ROOT
ATOM      1  P   UNL     1       8.577  -5.006  25.592  0.00  0.00    +0.483 P 
ATOM      2  O   UNL     1       9.487  -5.610  24.577  0.00  0.00    -0.227 OA
ENDROOT
BRANCH   1   3
ATOM      3  O   UNL     1       9.300  -4.694  26.989  0.00  0.00    -0.302 OA
ATOM      4  H   UNL     1       8.661  -4.422  27.673  0.00  0.00    +0.222 HD
ENDBRANCH   1   3
BRANCH   1   5
ATOM      5  O   UNL     1       7.317  -5.844  26.042  0.00  0.00    -0.186 OA
BRANCH   5   6
ATOM      6  P   UNL     1       6.515  -5.606  27.385  0.00  0.00    +0.483 P 
ATOM      7  O   UNL     1       6.436  -4.197  27.871  0.00  0.00    -0.227 OA
BRANCH   6   8
ATOM      8  O   UNL     1       7.209  -6.575  28.451  0.00  0.00    -0.302 OA
ATOM      9  H   UNL     1       6.804  -6.467  29.332  0.00  0.00    +0.222 HD
ENDBRANCH   6   8
BRANCH   6  10
ATOM     10  O   UNL     1       5.078  -6.281  27.145  0.00  0.00    -0.284 OA
BRANCH  10  11
ATOM     11  C   UNL     1       4.029  -5.456  26.642  0.00  0.00    +0.206 C 
BRANCH  11  14
ATOM     12  C   UNL     1       4.242  -5.873  23.317  0.00  0.00    +0.263 C 
ATOM     13  C   UNL     1       4.144  -6.833  24.496  0.00  0.00    +0.191 C 
ATOM     14  C   UNL     1       3.239  -6.092  25.488  0.00  0.00    +0.180 C 
ATOM     15  O   UNL     1       2.531  -5.075  24.741  0.00  0.00    -0.340 OA
ATOM     16  C   UNL     1       2.841  -5.259  23.354  0.00  0.00    +0.292 C 
BRANCH  16  17
ATOM     17  O   UNL     1       1.903  -6.179  22.801  0.00  0.00    -0.364 OA
ATOM     18  H   UNL     1       1.422  -5.683  22.112  0.00  0.00    +0.213 HD
ENDBRANCH  16  17
BRANCH  13  19
ATOM     19  O   UNL     1       3.495  -8.049  24.088  0.00  0.00    -0.385 OA
ATOM     20  H   UNL     1       2.756  -8.206  24.718  0.00  0.00    +0.210 HD
ENDBRANCH  13  19
BRANCH  12  21
ATOM     21  O   UNL     1       5.253  -4.880  23.569  0.00  0.00    -0.454 OA
BRANCH  21  23
ATOM     22  C   UNL     1       6.967  -5.154  21.977  0.00  0.00    +0.136 C 
ATOM     23  C   UNL     1       5.792  -4.348  22.436  0.00  0.00    +0.304 C 
ATOM     24  O   UNL     1       5.402  -3.322  21.894  0.00  0.00    -0.251 OA
ENDBRANCH  21  23
ENDBRANCH  12  21
ENDBRANCH  11  14
ENDBRANCH  10  11
ENDBRANCH   6  10
ENDBRANCH   5   6
ENDBRANCH   1   5
BRANCH   1  25
ATOM     25  O   UNL     1       7.975  -3.571  25.197  0.00  0.00    -0.284 OA
BRANCH  25  26
ATOM     26  C   UNL     1       8.713  -2.430  25.602  0.00  0.00    +0.206 C 
BRANCH  26  27
ATOM     27  C   UNL     1       9.405  -1.775  24.404  0.00  0.00    +0.178 C 
ATOM     28  C   UNL     1       8.624  -1.904  23.096  0.00  0.00    +0.178 C 
ATOM     29  C   UNL     1       7.925  -0.558  22.899  0.00  0.00    +0.195 C 
ATOM     30  C   UNL     1       8.371   0.279  24.102  0.00  0.00    +0.253 C 
ATOM     31  O   UNL     1       9.554  -0.358  24.629  0.00  0.00    -0.346 OA
BRANCH  30  32
ATOM     32  N   UNL     1       8.691   1.650  23.762  0.00  0.00    -0.286 N 
ATOM     33  C   UNL     1       7.783   2.584  23.318  0.00  0.00    +0.167 A 
ATOM     34  N   UNL     1       6.476   2.403  23.052  0.00  0.00    -0.216 NA
ATOM     35  C   UNL     1       5.909   3.564  22.652  0.00  0.00    +0.225 A 
ATOM     36  N   UNL     1       6.486   4.778  22.504  0.00  0.00    -0.219 NA
ATOM     37  C   UNL     1       7.801   4.904  22.794  0.00  0.00    +0.147 A 
ATOM     38  N   UNL     1       8.394   6.153  22.660  0.00  0.00    -0.341 N 
ATOM     39  H   UNL     1       9.403   6.114  22.573  0.00  0.00    +0.144 HD
ATOM     40  H   UNL     1       7.887   6.758  22.027  0.00  0.00    +0.144 HD
ATOM     41  C   UNL     1       8.508   3.762  23.209  0.00  0.00    +0.147 A 
ATOM     42  N   UNL     1       9.830   3.557  23.533  0.00  0.00    -0.231 NA
ATOM     43  C   UNL     1       9.896   2.285  23.874  0.00  0.00    +0.203 A 
ENDBRANCH  30  32
BRANCH  29  44
ATOM     44  O   UNL     1       6.507  -0.717  22.847  0.00  0.00    -0.385 OA
ATOM     45  H   UNL     1       6.277  -0.922  21.919  0.00  0.00    +0.210 HD
ENDBRANCH  29  44
BRANCH  28  46
ATOM     46  O   UNL     1       9.543  -2.129  22.013  0.00  0.00    -0.386 OA
ATOM     47  H   UNL     1       9.560  -3.081  21.811  0.00  0.00    +0.210 HD
ENDBRANCH  28  46
ENDBRANCH  26  27
ENDBRANCH  25  26
ENDBRANCH   1  25
TORSDOF 17
ENDMDL
MODEL 2
REMARK VINA RESULT:      -7.6      1.236      1.730
REMARK  Name = 
REMARK  18 active torsions:
REMARK  status: ('A' for Active; 'I' for Inactive)
REMARK    1  A    between atoms: C_1  and  C_2
REMARK    2  A    between atoms: C_2  and  O_4
REMARK    3  A    between atoms: O_4  and  C_5
REMARK    4  A    between atoms: C_7  and  O_9
REMARK    5  A    between atoms: C_11  and  C_13
REMARK    6  A    between atoms: C_13  and  O_14
REMARK    7  A    between atoms: O_14  and  P_15
REMARK    8  A    between atoms: P_15  and  O_16
REMARK    9  A    between atoms: P_15  and  O_18
REMARK   10  A    between atoms: O_18  and  P_19
REMARK   11  A    between atoms: P_19  and  O_20
REMARK   12  A    between atoms: P_19  and  O_22
REMARK   13  A    between atoms: O_22  and  C_23
REMARK   14  A    between atoms: C_23  and  C_24
REMARK   15  A    between atoms: C_27  and  N_35
REMARK   16  A    between atoms: C_29  and  O_31
REMARK   17  A    between atoms: C_32  and  O_34
REMARK   18  A    between atoms: C_45  and  O_47
REMARK                            x       y       z     vdW  Elec       q    Type
REMARK                         _______ _______ _______ _____ _____    ______ ____
ROOT
ATOM      1  P   UNL     1       6.824  -2.448  25.439  0.00  0.00    +0.483 P 
ATOM      2  O   UNL     1       6.701  -0.985  25.698  0.00  0.00    -0.227 OA
ENDROOT
BRANCH   1   3
ATOM      3  O   UNL     1       5.504  -3.094  24.799  0.00  0.00    -0.302 OA
ATOM      4  H   UNL     1       4.704  -2.854  25.302  0.00  0.00    +0.222 HD
ENDBRANCH   1   3
BRANCH   1   5
ATOM      5  O   UNL     1       7.100  -3.393  26.673  0.00  0.00    -0.186 OA
BRANCH   5   6
ATOM      6  P   UNL     1       6.886  -4.961  26.667  0.00  0.00    +0.483 P 
ATOM      7  O   UNL     1       7.538  -5.724  27.771  0.00  0.00    -0.227 OA
BRANCH   6   8
ATOM      8  O   UNL     1       7.388  -5.435  25.225  0.00  0.00    -0.302 OA
ATOM      9  H   UNL     1       6.862  -5.012  24.520  0.00  0.00    +0.222 HD
ENDBRANCH   6   8
BRANCH   6  10
ATOM     10  O   UNL     1       5.295  -5.170  26.598  0.00  0.00    -0.284 OA
BRANCH  10  11
ATOM     11  C   UNL     1       4.806  -6.482  26.327  0.00  0.00    +0.206 C 
BRANCH  11  14
ATOM     12  C   UNL     1       4.079  -5.952  23.092  0.00  0.00    +0.263 C 
ATOM     13  C   UNL     1       3.932  -7.149  24.023  0.00  0.00    +0.191 C 
ATOM     14  C   UNL     1       3.599  -6.510  25.378  0.00  0.00    +0.180 C 
ATOM     15  O   UNL     1       3.135  -5.166  25.112  0.00  0.00    -0.340 OA
ATOM     16  C   UNL     1       3.029  -5.015  23.691  0.00  0.00    +0.292 C 
BRANCH  16  17
ATOM     17  O   UNL     1       1.729  -5.437  23.288  0.00  0.00    -0.364 OA
ATOM     18  H   UNL     1       1.292  -5.758  24.099  0.00  0.00    +0.213 HD
ENDBRANCH  16  17
BRANCH  13  19
ATOM     19  O   UNL     1       2.825  -7.965  23.605  0.00  0.00    -0.385 OA
ATOM     20  H   UNL     1       3.094  -8.902  23.731  0.00  0.00    +0.210 HD
ENDBRANCH  13  19
BRANCH  12  21
ATOM     21  O   UNL     1       5.402  -5.394  23.206  0.00  0.00    -0.454 OA
BRANCH  21  23
ATOM     22  C   UNL     1       6.813  -5.799  21.366  0.00  0.00    +0.136 C 
ATOM     23  C   UNL     1       5.871  -4.855  22.046  0.00  0.00    +0.304 C 
ATOM     24  O   UNL     1       5.600  -3.734  21.638  0.00  0.00    -0.251 OA
ENDBRANCH  21  23
ENDBRANCH  12  21
ENDBRANCH  11  14
ENDBRANCH  10  11
ENDBRANCH   6  10
ENDBRANCH   5   6
ENDBRANCH   1   5
BRANCH   1  25
ATOM     25  O   UNL     1       7.951  -2.856  24.370  0.00  0.00    -0.284 OA
BRANCH  25  26
ATOM     26  C   UNL     1       9.287  -2.489  24.672  0.00  0.00    +0.206 C 
BRANCH  26  27
ATOM     27  C   UNL     1       9.893  -1.658  23.538  0.00  0.00    +0.178 C 
ATOM     28  C   UNL     1       8.950  -1.457  22.351  0.00  0.00    +0.178 C 
ATOM     29  C   UNL     1       8.376  -0.049  22.517  0.00  0.00    +0.195 C 
ATOM     30  C   UNL     1       9.048   0.488  23.785  0.00  0.00    +0.253 C 
ATOM     31  O   UNL     1      10.214  -0.333  24.009  0.00  0.00    -0.346 OA
BRANCH  30  32
ATOM     32  N   UNL     1       9.463   1.870  23.674  0.00  0.00    -0.286 N 
ATOM     33  C   UNL     1       8.614   2.953  23.696  0.00  0.00    +0.167 A 
ATOM     34  N   UNL     1       7.270   2.946  23.753  0.00  0.00    -0.216 NA
ATOM     35  C   UNL     1       6.790   4.210  23.776  0.00  0.00    +0.225 A 
ATOM     36  N   UNL     1       7.478   5.374  23.744  0.00  0.00    -0.219 NA
ATOM     37  C   UNL     1       8.828   5.322  23.696  0.00  0.00    +0.147 A 
ATOM     38  N   UNL     1       9.538   6.515  23.680  0.00  0.00    -0.341 N 
ATOM     39  H   UNL     1      10.483   6.419  23.324  0.00  0.00    +0.144 HD
ATOM     40  H   UNL     1       8.984   7.293  23.349  0.00  0.00    +0.144 HD
ATOM     41  C   UNL     1       9.448   4.061  23.654  0.00  0.00    +0.147 A 
ATOM     42  N   UNL     1      10.768   3.680  23.566  0.00  0.00    -0.231 NA
ATOM     43  C   UNL     1      10.737   2.362  23.596  0.00  0.00    +0.203 A 
ENDBRANCH  30  32
BRANCH  29  44
ATOM     44  O   UNL     1       6.953  -0.084  22.633  0.00  0.00    -0.385 OA
ATOM     45  H   UNL     1       6.719  -0.956  23.009  0.00  0.00    +0.210 HD
ENDBRANCH  29  44
BRANCH  28  46
ATOM     46  O   UNL     1       9.704  -1.525  21.128  0.00  0.00    -0.386 OA
ATOM     47  H   UNL     1      10.623  -1.262  21.314  0.00  0.00    +0.210 HD
ENDBRANCH  28  46
ENDBRANCH  26  27
ENDBRANCH  25  26
ENDBRANCH   1  25
TORSDOF 17
ENDMDL
MODEL 3
REMARK VINA RESULT:      -7.4      2.290      3.498
REMARK  Name = 
REMARK  18 active torsions:
REMARK  status: ('A' for Active; 'I' for Inactive)
REMARK    1  A    between atoms: C_1  and  C_2
REMARK    2  A    between atoms: C_2  and  O_4
REMARK    3  A    between atoms: O_4  and  C_5
REMARK    4  A    between atoms: C_7  and  O_9
REMARK    5  A    between atoms: C_11  and  C_13
REMARK    6  A    between atoms: C_13  and  O_14
REMARK    7  A    between atoms: O_14  and  P_15
REMARK    8  A    between atoms: P_15  and  O_16
REMARK    9  A    between atoms: P_15  and  O_18
REMARK   10  A    between atoms: O_18  and  P_19
REMARK   11  A    between atoms: P_19  and  O_20
REMARK   12  A    between atoms: P_19  and  O_22
REMARK   13  A    between atoms: O_22  and  C_23
REMARK   14  A    between atoms: C_23  and  C_24
REMARK   15  A    between atoms: C_27  and  N_35
REMARK   16  A    between atoms: C_29  and  O_31
REMARK   17  A    between atoms: C_32  and  O_34
REMARK   18  A    between atoms: C_45  and  O_47
REMARK                            x       y       z     vdW  Elec       q    Type
REMARK                         _______ _______ _______ _____ _____    ______ ____
ROOT
ATOM      1  P   UNL     1       5.676  -6.276  28.242  0.00  0.00    +0.483 P 
ATOM      2  O   UNL     1       5.842  -7.707  28.625  0.00  0.00    -0.227 OA
ENDROOT
BRANCH   1   3
ATOM      3  O   UNL     1       6.000  -5.256  29.436  0.00  0.00    -0.302 OA
ATOM      4  H   UNL     1       6.274  -5.724  30.247  0.00  0.00    +0.222 HD
ENDBRANCH   1   3
BRANCH   1   5
ATOM      5  O   UNL     1       4.247  -5.801  27.768  0.00  0.00    -0.186 OA
BRANCH   5   6
ATOM      6  P   UNL     1       2.906  -6.060  28.566  0.00  0.00    +0.483 P 
ATOM      7  O   UNL     1       2.816  -5.453  29.927  0.00  0.00    -0.227 OA
BRANCH   6   8
ATOM      8  O   UNL     1       2.754  -7.651  28.601  0.00  0.00    -0.302 OA
ATOM      9  H   UNL     1       3.627  -8.083  28.553  0.00  0.00    +0.222 HD
ENDBRANCH   6   8
BRANCH   6  10
ATOM     10  O   UNL     1       1.729  -5.592  27.578  0.00  0.00    -0.284 OA
BRANCH  10  11
ATOM     11  C   UNL     1       2.071  -5.302  26.224  0.00  0.00    +0.206 C 
BRANCH  11  14
ATOM     12  C   UNL     1       2.805  -6.187  23.069  0.00  0.00    +0.263 C 
ATOM     13  C   UNL     1       3.156  -6.764  24.434  0.00  0.00    +0.191 C 
ATOM     14  C   UNL     1       1.898  -6.495  25.272  0.00  0.00    +0.180 C 
ATOM     15  O   UNL     1       0.815  -6.248  24.345  0.00  0.00    -0.340 OA
ATOM     16  C   UNL     1       1.308  -6.499  23.023  0.00  0.00    +0.292 C 
BRANCH  16  17
ATOM     17  O   UNL     1       1.117  -7.879  22.724  0.00  0.00    -0.364 OA
ATOM     18  H   UNL     1       1.873  -8.135  22.163  0.00  0.00    +0.213 HD
ENDBRANCH  16  17
BRANCH  13  19
ATOM     19  O   UNL     1       3.356  -8.184  24.333  0.00  0.00    -0.385 OA
ATOM     20  H   UNL     1       3.053  -8.579  25.181  0.00  0.00    +0.210 HD
ENDBRANCH  13  19
BRANCH  12  21
ATOM     21  O   UNL     1       3.043  -4.768  23.054  0.00  0.00    -0.454 OA
BRANCH  21  23
ATOM     22  C   UNL     1       4.678  -3.472  24.145  0.00  0.00    +0.136 C 
ATOM     23  C   UNL     1       4.365  -4.434  23.042  0.00  0.00    +0.304 C 
ATOM     24  O   UNL     1       5.175  -4.827  22.215  0.00  0.00    -0.251 OA
ENDBRANCH  21  23
ENDBRANCH  12  21
ENDBRANCH  11  14
ENDBRANCH  10  11
ENDBRANCH   6  10
ENDBRANCH   5   6
ENDBRANCH   1   5
BRANCH   1  25
ATOM     25  O   UNL     1       6.666  -5.763  27.085  0.00  0.00    -0.284 OA
BRANCH  25  26
ATOM     26  C   UNL     1       7.007  -4.387  27.094  0.00  0.00    +0.206 C 
BRANCH  26  27
ATOM     27  C   UNL     1       8.431  -4.175  26.573  0.00  0.00    +0.178 C 
ATOM     28  C   UNL     1       8.868  -5.214  25.539  0.00  0.00    +0.178 C 
ATOM     29  C   UNL     1       8.713  -4.531  24.179  0.00  0.00    +0.195 C 
ATOM     30  C   UNL     1       8.218  -3.121  24.517  0.00  0.00    +0.253 C 
ATOM     31  O   UNL     1       8.533  -2.899  25.908  0.00  0.00    -0.346 OA
BRANCH  30  32
ATOM     32  N   UNL     1       8.845  -2.085  23.724  0.00  0.00    -0.286 N 
ATOM     33  C   UNL     1       8.234  -0.919  23.324  0.00  0.00    +0.167 A 
ATOM     34  N   UNL     1       6.955  -0.548  23.521  0.00  0.00    -0.216 NA
ATOM     35  C   UNL     1       6.732   0.678  22.995  0.00  0.00    +0.225 A 
ATOM     36  N   UNL     1       7.597   1.488  22.345  0.00  0.00    -0.219 NA
ATOM     37  C   UNL     1       8.873   1.068  22.184  0.00  0.00    +0.147 A 
ATOM     38  N   UNL     1       9.769   1.905  21.532  0.00  0.00    -0.341 N 
ATOM     39  H   UNL     1      10.580   1.420  21.164  0.00  0.00    +0.144 HD
ATOM     40  H   UNL     1       9.308   2.578  20.934  0.00  0.00    +0.144 HD
ATOM     41  C   UNL     1       9.227  -0.200  22.676  0.00  0.00    +0.147 A 
ATOM     42  N   UNL     1      10.404  -0.913  22.637  0.00  0.00    -0.231 NA
ATOM     43  C   UNL     1      10.140  -2.028  23.289  0.00  0.00    +0.203 A 
ENDBRANCH  30  32
BRANCH  29  44
ATOM     44  O   UNL     1       7.795  -5.241  23.347  0.00  0.00    -0.385 OA
ATOM     45  H   UNL     1       7.121  -5.634  23.937  0.00  0.00    +0.210 HD
ENDBRANCH  29  44
BRANCH  28  46
ATOM     46  O   UNL     1      10.251  -5.546  25.753  0.00  0.00    -0.386 OA
ATOM     47  H   UNL     1      10.787  -5.101  25.073  0.00  0.00    +0.210 HD
ENDBRANCH  28  46
ENDBRANCH  26  27
ENDBRANCH  25  26
ENDBRANCH   1  25
TORSDOF 17
ENDMDL
MODEL 4
REMARK VINA RESULT:      -7.4      1.356      1.965
REMARK  Name = 
REMARK  18 active torsions:
REMARK  status: ('A' for Active; 'I' for Inactive)
REMARK    1  A    between atoms: C_1  and  C_2
REMARK    2  A    between atoms: C_2  and  O_4
REMARK    3  A    between atoms: O_4  and  C_5
REMARK    4  A    between atoms: C_7  and  O_9
REMARK    5  A    between atoms: C_11  and  C_13
REMARK    6  A    between atoms: C_13  and  O_14
REMARK    7  A    between atoms: O_14  and  P_15
REMARK    8  A    between atoms: P_15  and  O_16
REMARK    9  A    between atoms: P_15  and  O_18
REMARK   10  A    between atoms: O_18  and  P_19
REMARK   11  A    between atoms: P_19  and  O_20
REMARK   12  A    between atoms: P_19  and  O_22
REMARK   13  A    between atoms: O_22  and  C_23
REMARK   14  A    between atoms: C_23  and  C_24
REMARK   15  A    between atoms: C_27  and  N_35
REMARK   16  A    between atoms: C_29  and  O_31
REMARK   17  A    between atoms: C_32  and  O_34
REMARK   18  A    between atoms: C_45  and  O_47
REMARK                            x       y       z     vdW  Elec       q    Type
REMARK                         _______ _______ _______ _____ _____    ______ ____
ROOT
ATOM      1  P   UNL     1       9.041  -4.503  25.187  0.00  0.00    +0.483 P 
ATOM      2  O   UNL     1      10.317  -5.255  25.348  0.00  0.00    -0.227 OA
ENDROOT
BRANCH   1   3
ATOM      3  O   UNL     1       8.903  -3.262  26.192  0.00  0.00    -0.302 OA
ATOM      4  H   UNL     1       8.562  -2.467  25.741  0.00  0.00    +0.222 HD
ENDBRANCH   1   3
BRANCH   1   5
ATOM      5  O   UNL     1       7.690  -5.284  25.425  0.00  0.00    -0.186 OA
BRANCH   5   6
ATOM      6  P   UNL     1       6.836  -5.214  26.755  0.00  0.00    +0.483 P 
ATOM      7  O   UNL     1       6.490  -3.849  27.250  0.00  0.00    -0.227 OA
BRANCH   6   8
ATOM      8  O   UNL     1       7.679  -6.050  27.826  0.00  0.00    -0.302 OA
ATOM      9  H   UNL     1       8.552  -5.639  27.976  0.00  0.00    +0.222 HD
ENDBRANCH   6   8
BRANCH   6  10
ATOM     10  O   UNL     1       5.552  -6.140  26.483  0.00  0.00    -0.284 OA
BRANCH  10  11
ATOM     11  C   UNL     1       4.273  -5.510  26.438  0.00  0.00    +0.206 C 
BRANCH  11  14
ATOM     12  C   UNL     1       4.089  -5.983  23.119  0.00  0.00    +0.263 C 
ATOM     13  C   UNL     1       4.065  -6.919  24.320  0.00  0.00    +0.191 C 
ATOM     14  C   UNL     1       3.322  -6.110  25.392  0.00  0.00    +0.180 C 
ATOM     15  O   UNL     1       2.599  -5.061  24.707  0.00  0.00    -0.340 OA
ATOM     16  C   UNL     1       2.741  -5.282  23.299  0.00  0.00    +0.292 C 
BRANCH  16  17
ATOM     17  O   UNL     1       1.693  -6.148  22.870  0.00  0.00    -0.364 OA
ATOM     18  H   UNL     1       0.927  -5.571  22.698  0.00  0.00    +0.213 HD
ENDBRANCH  16  17
BRANCH  13  19
ATOM     19  O   UNL     1       3.302  -8.098  24.011  0.00  0.00    -0.385 OA
ATOM     20  H   UNL     1       3.686  -8.483  23.192  0.00  0.00    +0.210 HD
ENDBRANCH  13  19
BRANCH  12  21
ATOM     21  O   UNL     1       5.180  -5.051  23.238  0.00  0.00    -0.454 OA
BRANCH  21  23
ATOM     22  C   UNL     1       6.833  -5.963  21.830  0.00  0.00    +0.136 C 
ATOM     23  C   UNL     1       5.860  -4.852  22.073  0.00  0.00    +0.304 C 
ATOM     24  O   UNL     1       5.731  -3.875  21.349  0.00  0.00    -0.251 OA
ENDBRANCH  21  23
ENDBRANCH  12  21
ENDBRANCH  11  14
ENDBRANCH  10  11
ENDBRANCH   6  10
ENDBRANCH   5   6
ENDBRANCH   1   5
BRANCH   1  25
ATOM     25  O   UNL     1       8.842  -3.800  23.756  0.00  0.00    -0.284 OA
BRANCH  25  26
ATOM     26  C   UNL     1       9.453  -2.535  23.570  0.00  0.00    +0.206 C 
BRANCH  26  27
ATOM     27  C   UNL     1       8.434  -1.504  23.079  0.00  0.00    +0.178 C 
ATOM     28  C   UNL     1       7.070  -1.614  23.763  0.00  0.00    +0.178 C 
ATOM     29  C   UNL     1       7.051  -0.512  24.823  0.00  0.00    +0.195 C 
ATOM     30  C   UNL     1       8.406   0.187  24.667  0.00  0.00    +0.253 C 
ATOM     31  O   UNL     1       8.902  -0.168  23.359  0.00  0.00    -0.346 OA
BRANCH  30  32
ATOM     32  N   UNL     1       8.323   1.629  24.759  0.00  0.00    -0.286 N 
ATOM     33  C   UNL     1       9.289   2.505  24.321  0.00  0.00    +0.167 A 
ATOM     34  N   UNL     1      10.494   2.210  23.800  0.00  0.00    -0.216 NA
ATOM     35  C   UNL     1      11.157   3.342  23.470  0.00  0.00    +0.225 A 
ATOM     36  N   UNL     1      10.756   4.625  23.608  0.00  0.00    -0.219 NA
ATOM     37  C   UNL     1       9.531   4.864  24.130  0.00  0.00    +0.147 A 
ATOM     38  N   UNL     1       9.109   6.180  24.258  0.00  0.00    -0.341 N 
ATOM     39  H   UNL     1       8.359   6.301  24.930  0.00  0.00    +0.144 HD
ATOM     40  H   UNL     1       9.880   6.835  24.286  0.00  0.00    +0.144 HD
ATOM     41  C   UNL     1       8.748   3.766  24.526  0.00  0.00    +0.147 A 
ATOM     42  N   UNL     1       7.505   3.678  25.111  0.00  0.00    -0.231 NA
ATOM     43  C   UNL     1       7.279   2.383  25.220  0.00  0.00    +0.203 A 
ENDBRANCH  30  32
BRANCH  29  44
ATOM     44  O   UNL     1       6.873  -1.058  26.131  0.00  0.00    -0.385 OA
ATOM     45  H   UNL     1       6.861  -0.305  26.755  0.00  0.00    +0.210 HD
ENDBRANCH  29  44
BRANCH  28  46
ATOM     46  O   UNL     1       6.033  -1.366  22.797  0.00  0.00    -0.386 OA
ATOM     47  H   UNL     1       6.230  -1.875  21.991  0.00  0.00    +0.210 HD
ENDBRANCH  28  46
ENDBRANCH  26  27
ENDBRANCH  25  26
ENDBRANCH   1  25
TORSDOF 17
ENDMDL
MODEL 5
REMARK VINA RESULT:      -7.4      2.274      3.941
REMARK  Name = 
REMARK  18 active torsions:
REMARK  status: ('A' for Active; 'I' for Inactive)
REMARK    1  A    between atoms: C_1  and  C_2
REMARK    2  A    between atoms: C_2  and  O_4
REMARK    3  A    between atoms: O_4  and  C_5
REMARK    4  A    between atoms: C_7  and  O_9
REMARK    5  A    between atoms: C_11  and  C_13
REMARK    6  A    between atoms: C_13  and  O_14
REMARK    7  A    between atoms: O_14  and  P_15
REMARK    8  A    between atoms: P_15  and  O_16
REMARK    9  A    between atoms: P_15  and  O_18
REMARK   10  A    between atoms: O_18  and  P_19
REMARK   11  A    between atoms: P_19  and  O_20
REMARK   12  A    between atoms: P_19  and  O_22
REMARK   13  A    between atoms: O_22  and  C_23
REMARK   14  A    between atoms: C_23  and  C_24
REMARK   15  A    between atoms: C_27  and  N_35
REMARK   16  A    between atoms: C_29  and  O_31
REMARK   17  A    between atoms: C_32  and  O_34
REMARK   18  A    between atoms: C_45  and  O_47
REMARK                            x       y       z     vdW  Elec       q    Type
REMARK                         _______ _______ _______ _____ _____    ______ ____
ROOT
ATOM      1  P   UNL     1       5.923  -6.072  28.689  0.00  0.00    +0.483 P 
ATOM      2  O   UNL     1       5.311  -7.376  28.302  0.00  0.00    -0.227 OA
ENDROOT
BRANCH   1   3
ATOM      3  O   UNL     1       6.383  -6.016  30.223  0.00  0.00    -0.302 OA
ATOM      4  H   UNL     1       5.897  -6.661  30.771  0.00  0.00    +0.222 HD
ENDBRANCH   1   3
BRANCH   1   5
ATOM      5  O   UNL     1       5.036  -4.774  28.553  0.00  0.00    -0.186 OA
BRANCH   5   6
ATOM      6  P   UNL     1       3.456  -4.771  28.476  0.00  0.00    +0.483 P 
ATOM      7  O   UNL     1       2.766  -3.578  29.049  0.00  0.00    -0.227 OA
BRANCH   6   8
ATOM      8  O   UNL     1       3.010  -6.129  29.192  0.00  0.00    -0.302 OA
ATOM      9  H   UNL     1       3.028  -6.030  30.163  0.00  0.00    +0.222 HD
ENDBRANCH   6   8
BRANCH   6  10
ATOM     10  O   UNL     1       3.107  -5.030  26.930  0.00  0.00    -0.284 OA
BRANCH  10  11
ATOM     11  C   UNL     1       3.570  -4.078  25.973  0.00  0.00    +0.206 C 
BRANCH  11  14
ATOM     12  C   UNL     1       3.208  -6.001  23.244  0.00  0.00    +0.263 C 
ATOM     13  C   UNL     1       3.740  -4.593  23.479  0.00  0.00    +0.191 C 
ATOM     14  C   UNL     1       4.421  -4.691  24.851  0.00  0.00    +0.180 C 
ATOM     15  O   UNL     1       4.660  -6.094  25.108  0.00  0.00    -0.340 OA
ATOM     16  C   UNL     1       4.307  -6.820  23.925  0.00  0.00    +0.292 C 
BRANCH  16  17
ATOM     17  O   UNL     1       5.449  -6.882  23.075  0.00  0.00    -0.364 OA
ATOM     18  H   UNL     1       5.773  -5.966  23.001  0.00  0.00    +0.213 HD
ENDBRANCH  16  17
BRANCH  13  19
ATOM     19  O   UNL     1       4.730  -4.269  22.488  0.00  0.00    -0.385 OA
ATOM     20  H   UNL     1       5.270  -3.532  22.850  0.00  0.00    +0.210 HD
ENDBRANCH  13  19
BRANCH  12  21
ATOM     21  O   UNL     1       1.943  -6.170  23.911  0.00  0.00    -0.454 OA
BRANCH  21  23
ATOM     22  C   UNL     1       0.575  -7.919  24.693  0.00  0.00    +0.136 C 
ATOM     23  C   UNL     1       1.266  -7.288  23.525  0.00  0.00    +0.304 C 
ATOM     24  O   UNL     1       1.263  -7.745  22.390  0.00  0.00    -0.251 OA
ENDBRANCH  21  23
ENDBRANCH  12  21
ENDBRANCH  11  14
ENDBRANCH  10  11
ENDBRANCH   6  10
ENDBRANCH   5   6
ENDBRANCH   1   5
BRANCH   1  25
ATOM     25  O   UNL     1       7.282  -5.704  27.916  0.00  0.00    -0.284 OA
BRANCH  25  26
ATOM     26  C   UNL     1       7.281  -4.512  27.147  0.00  0.00    +0.206 C 
BRANCH  26  27
ATOM     27  C   UNL     1       8.630  -4.311  26.453  0.00  0.00    +0.178 C 
ATOM     28  C   UNL     1       8.890  -5.299  25.314  0.00  0.00    +0.178 C 
ATOM     29  C   UNL     1       8.582  -4.532  24.027  0.00  0.00    +0.195 C 
ATOM     30  C   UNL     1       8.187  -3.131  24.506  0.00  0.00    +0.253 C 
ATOM     31  O   UNL     1       8.690  -3.001  25.852  0.00  0.00    -0.346 OA
BRANCH  30  32
ATOM     32  N   UNL     1       8.742  -2.069  23.694  0.00  0.00    -0.286 N 
ATOM     33  C   UNL     1       8.104  -0.885  23.401  0.00  0.00    +0.167 A 
ATOM     34  N   UNL     1       6.854  -0.515  23.738  0.00  0.00    -0.216 NA
ATOM     35  C   UNL     1       6.591   0.731  23.285  0.00  0.00    +0.225 A 
ATOM     36  N   UNL     1       7.395   1.561  22.583  0.00  0.00    -0.219 NA
ATOM     37  C   UNL     1       8.644   1.142  22.279  0.00  0.00    +0.147 A 
ATOM     38  N   UNL     1       9.478   1.999  21.573  0.00  0.00    -0.341 N 
ATOM     39  H   UNL     1      10.245   1.524  21.109  0.00  0.00    +0.144 HD
ATOM     40  H   UNL     1       8.967   2.697  21.050  0.00  0.00    +0.144 HD
ATOM     41  C   UNL     1       9.035  -0.146  22.685  0.00  0.00    +0.147 A 
ATOM     42  N   UNL     1      10.195  -0.862  22.502  0.00  0.00    -0.231 NA
ATOM     43  C   UNL     1       9.987  -2.001  23.134  0.00  0.00    +0.203 A 
ENDBRANCH  30  32
BRANCH  29  44
ATOM     44  O   UNL     1       7.537  -5.165  23.287  0.00  0.00    -0.385 OA
ATOM     45  H   UNL     1       7.465  -4.691  22.434  0.00  0.00    +0.210 HD
ENDBRANCH  29  44
BRANCH  28  46
ATOM     46  O   UNL     1      10.276  -5.682  25.324  0.00  0.00    -0.386 OA
ATOM     47  H   UNL     1      10.426  -6.291  26.068  0.00  0.00    +0.210 HD
ENDBRANCH  28  46
ENDBRANCH  26  27
ENDBRANCH  25  26
ENDBRANCH   1  25
TORSDOF 17
ENDMDL
MODEL 6
REMARK VINA RESULT:      -7.1      4.438      8.789
REMARK  Name = 
REMARK  18 active torsions:
REMARK  status: ('A' for Active; 'I' for Inactive)
REMARK    1  A    between atoms: C_1  and  C_2
REMARK    2  A    between atoms: C_2  and  O_4
REMARK    3  A    between atoms: O_4  and  C_5
REMARK    4  A    between atoms: C_7  and  O_9
REMARK    5  A    between atoms: C_11  and  C_13
REMARK    6  A    between atoms: C_13  and  O_14
REMARK    7  A    between atoms: O_14  and  P_15
REMARK    8  A    between atoms: P_15  and  O_16
REMARK    9  A    between atoms: P_15  and  O_18
REMARK   10  A    between atoms: O_18  and  P_19
REMARK   11  A    between atoms: P_19  and  O_20
REMARK   12  A    between atoms: P_19  and  O_22
REMARK   13  A    between atoms: O_22  and  C_23
REMARK   14  A    between atoms: C_23  and  C_24
REMARK   15  A    between atoms: C_27  and  N_35
REMARK   16  A    between atoms: C_29  and  O_31
REMARK   17  A    between atoms: C_32  and  O_34
REMARK   18  A    between atoms: C_45  and  O_47
REMARK                            x       y       z     vdW  Elec       q    Type
REMARK                         _______ _______ _______ _____ _____    ______ ____
ROOT
ATOM      1  P   UNL     1       7.490   0.176  26.943  0.00  0.00    +0.483 P 
ATOM      2  O   UNL     1       8.154   0.136  28.277  0.00  0.00    -0.227 OA
ENDROOT
BRANCH   1   3
ATOM      3  O   UNL     1       8.121   1.266  25.951  0.00  0.00    -0.302 OA
ATOM      4  H   UNL     1       7.495   1.521  25.249  0.00  0.00    +0.222 HD
ENDBRANCH   1   3
BRANCH   1   5
ATOM      5  O   UNL     1       5.952   0.526  26.896  0.00  0.00    -0.186 OA
BRANCH   5   6
ATOM      6  P   UNL     1       5.226   1.220  25.674  0.00  0.00    +0.483 P 
ATOM      7  O   UNL     1       3.735   1.258  25.722  0.00  0.00    -0.227 OA
BRANCH   6   8
ATOM      8  O   UNL     1       5.770   0.445  24.385  0.00  0.00    -0.302 OA
ATOM      9  H   UNL     1       5.779   1.033  23.606  0.00  0.00    +0.222 HD
ENDBRANCH   6   8
BRANCH   6  10
ATOM     10  O   UNL     1       5.900   2.672  25.550  0.00  0.00    -0.284 OA
BRANCH  10  11
ATOM     11  C   UNL     1       5.582   3.459  24.403  0.00  0.00    +0.206 C 
BRANCH  11  14
ATOM     12  C   UNL     1       8.347   2.938  22.572  0.00  0.00    +0.263 C 
ATOM     13  C   UNL     1       7.122   3.826  22.401  0.00  0.00    +0.191 C 
ATOM     14  C   UNL     1       6.777   4.242  23.837  0.00  0.00    +0.180 C 
ATOM     15  O   UNL     1       7.956   4.012  24.642  0.00  0.00    -0.340 OA
ATOM     16  C   UNL     1       9.019   3.632  23.759  0.00  0.00    +0.292 C 
BRANCH  16  17
ATOM     17  O   UNL     1       9.676   4.814  23.309  0.00  0.00    -0.364 OA
ATOM     18  H   UNL     1       9.122   5.556  23.613  0.00  0.00    +0.213 HD
ENDBRANCH  16  17
BRANCH  13  19
ATOM     19  O   UNL     1       7.466   4.999  21.644  0.00  0.00    -0.385 OA
ATOM     20  H   UNL     1       7.364   5.770  22.246  0.00  0.00    +0.210 HD
ENDBRANCH  13  19
BRANCH  12  21
ATOM     21  O   UNL     1       7.945   1.598  22.911  0.00  0.00    -0.454 OA
BRANCH  21  23
ATOM     22  C   UNL     1       9.252   0.463  21.315  0.00  0.00    +0.136 C 
ATOM     23  C   UNL     1       8.936   0.674  22.763  0.00  0.00    +0.304 C 
ATOM     24  O   UNL     1       9.462   0.062  23.682  0.00  0.00    -0.251 OA
ENDBRANCH  21  23
ENDBRANCH  12  21
ENDBRANCH  11  14
ENDBRANCH  10  11
ENDBRANCH   6  10
ENDBRANCH   5   6
ENDBRANCH   1   5
BRANCH   1  25
ATOM     25  O   UNL     1       7.613  -1.174  26.081  0.00  0.00    -0.284 OA
BRANCH  25  26
ATOM     26  C   UNL     1       8.637  -2.082  26.451  0.00  0.00    +0.206 C 
BRANCH  26  27
ATOM     27  C   UNL     1       8.803  -3.177  25.395  0.00  0.00    +0.178 C 
ATOM     28  C   UNL     1       9.303  -4.507  25.961  0.00  0.00    +0.178 C 
ATOM     29  C   UNL     1       8.062  -5.393  26.085  0.00  0.00    +0.195 C 
ATOM     30  C   UNL     1       6.920  -4.521  25.555  0.00  0.00    +0.253 C 
ATOM     31  O   UNL     1       7.532  -3.471  24.778  0.00  0.00    -0.346 OA
BRANCH  30  32
ATOM     32  N   UNL     1       5.989  -5.244  24.712  0.00  0.00    -0.286 N 
ATOM     33  C   UNL     1       4.961  -6.034  25.171  0.00  0.00    +0.167 A 
ATOM     34  N   UNL     1       4.663  -6.344  26.446  0.00  0.00    -0.216 NA
ATOM     35  C   UNL     1       3.567  -7.134  26.498  0.00  0.00    +0.225 A 
ATOM     36  N   UNL     1       2.815  -7.603  25.477  0.00  0.00    -0.219 NA
ATOM     37  C   UNL     1       3.155  -7.253  24.216  0.00  0.00    +0.147 A 
ATOM     38  N   UNL     1       2.375  -7.718  23.165  0.00  0.00    -0.341 N 
ATOM     39  H   UNL     1       2.851  -7.699  22.270  0.00  0.00    +0.144 HD
ATOM     40  H   UNL     1       1.853  -8.550  23.407  0.00  0.00    +0.144 HD
ATOM     41  C   UNL     1       4.288  -6.442  24.028  0.00  0.00    +0.147 A 
ATOM     42  N   UNL     1       4.902  -5.956  22.896  0.00  0.00    -0.231 NA
ATOM     43  C   UNL     1       5.906  -5.230  23.348  0.00  0.00    +0.203 A 
ENDBRANCH  30  32
BRANCH  29  44
ATOM     44  O   UNL     1       7.850  -5.796  27.439  0.00  0.00    -0.385 OA
ATOM     45  H   UNL     1       8.516  -5.330  27.983  0.00  0.00    +0.210 HD
ENDBRANCH  29  44
BRANCH  28  46
ATOM     46  O   UNL     1      10.225  -5.103  25.032  0.00  0.00    -0.386 OA
ATOM     47  H   UNL     1      10.281  -4.537  24.243  0.00  0.00    +0.210 HD
ENDBRANCH  28  46
ENDBRANCH  26  27
ENDBRANCH  25  26
ENDBRANCH   1  25
TORSDOF 17
ENDMDL
MODEL 7
REMARK VINA RESULT:      -7.1      1.901      3.751
REMARK  Name = 
REMARK  18 active torsions:
REMARK  status: ('A' for Active; 'I' for Inactive)
REMARK    1  A    between atoms: C_1  and  C_2
REMARK    2  A    between atoms: C_2  and  O_4
REMARK    3  A    between atoms: O_4  and  C_5
REMARK    4  A    between atoms: C_7  and  O_9
REMARK    5  A    between atoms: C_11  and  C_13
REMARK    6  A    between atoms: C_13  and  O_14
REMARK    7  A    between atoms: O_14  and  P_15
REMARK    8  A    between atoms: P_15  and  O_16
REMARK    9  A    between atoms: P_15  and  O_18
REMARK   10  A    between atoms: O_18  and  P_19
REMARK   11  A    between atoms: P_19  and  O_20
REMARK   12  A    between atoms: P_19  and  O_22
REMARK   13  A    between atoms: O_22  and  C_23
REMARK   14  A    between atoms: C_23  and  C_24
REMARK   15  A    between atoms: C_27  and  N_35
REMARK   16  A    between atoms: C_29  and  O_31
REMARK   17  A    between atoms: C_32  and  O_34
REMARK   18  A    between atoms: C_45  and  O_47
REMARK                            x       y       z     vdW  Elec       q    Type
REMARK                         _______ _______ _______ _____ _____    ______ ____
ROOT
ATOM      1  P   UNL     1       6.536  -5.152  22.384  0.00  0.00    +0.483 P 
ATOM      2  O   UNL     1       7.091  -6.389  21.764  0.00  0.00    -0.227 OA
ENDROOT
BRANCH   1   3
ATOM      3  O   UNL     1       6.760  -5.080  23.970  0.00  0.00    -0.302 OA
ATOM      4  H   UNL     1       7.375  -4.365  24.216  0.00  0.00    +0.222 HD
ENDBRANCH   1   3
BRANCH   1   5
ATOM      5  O   UNL     1       4.985  -4.892  22.248  0.00  0.00    -0.186 OA
BRANCH   5   6
ATOM      6  P   UNL     1       3.925  -5.171  23.390  0.00  0.00    +0.483 P 
ATOM      7  O   UNL     1       2.498  -5.259  22.963  0.00  0.00    -0.227 OA
BRANCH   6   8
ATOM      8  O   UNL     1       4.166  -4.008  24.461  0.00  0.00    -0.302 OA
ATOM      9  H   UNL     1       4.780  -3.336  24.110  0.00  0.00    +0.222 HD
ENDBRANCH   6   8
BRANCH   6  10
ATOM     10  O   UNL     1       4.451  -6.489  24.142  0.00  0.00    -0.284 OA
BRANCH  10  11
ATOM     11  C   UNL     1       3.828  -6.846  25.375  0.00  0.00    +0.206 C 
BRANCH  11  14
ATOM     12  C   UNL     1       4.905  -5.193  28.092  0.00  0.00    +0.263 C 
ATOM     13  C   UNL     1       4.235  -6.544  27.877  0.00  0.00    +0.191 C 
ATOM     14  C   UNL     1       4.814  -7.023  26.539  0.00  0.00    +0.180 C 
ATOM     15  O   UNL     1       6.019  -6.259  26.300  0.00  0.00    -0.340 OA
ATOM     16  C   UNL     1       6.274  -5.471  27.469  0.00  0.00    +0.292 C 
BRANCH  16  17
ATOM     17  O   UNL     1       7.061  -6.243  28.372  0.00  0.00    -0.364 OA
ATOM     18  H   UNL     1       7.139  -5.704  29.181  0.00  0.00    +0.213 HD
ENDBRANCH  16  17
BRANCH  13  19
ATOM     19  O   UNL     1       4.628  -7.460  28.912  0.00  0.00    -0.385 OA
ATOM     20  H   UNL     1       5.027  -8.242  28.469  0.00  0.00    +0.210 HD
ENDBRANCH  13  19
BRANCH  12  21
ATOM     21  O   UNL     1       4.199  -4.169  27.368  0.00  0.00    -0.454 OA
BRANCH  21  23
ATOM     22  C   UNL     1       4.047  -2.186  28.628  0.00  0.00    +0.136 C 
ATOM     23  C   UNL     1       4.732  -2.924  27.521  0.00  0.00    +0.304 C 
ATOM     24  O   UNL     1       5.616  -2.452  26.818  0.00  0.00    -0.251 OA
ENDBRANCH  21  23
ENDBRANCH  12  21
ENDBRANCH  11  14
ENDBRANCH  10  11
ENDBRANCH   6  10
ENDBRANCH   5   6
ENDBRANCH   1   5
BRANCH   1  25
ATOM     25  O   UNL     1       7.210  -3.781  21.886  0.00  0.00    -0.284 OA
BRANCH  25  26
ATOM     26  C   UNL     1       6.696  -2.577  22.431  0.00  0.00    +0.206 C 
BRANCH  26  27
ATOM     27  C   UNL     1       7.622  -2.034  23.522  0.00  0.00    +0.178 C 
ATOM     28  C   UNL     1       9.087  -2.434  23.340  0.00  0.00    +0.178 C 
ATOM     29  C   UNL     1       9.774  -1.211  22.729  0.00  0.00    +0.195 C 
ATOM     30  C   UNL     1       8.659  -0.166  22.619  0.00  0.00    +0.253 C 
ATOM     31  O   UNL     1       7.609  -0.591  23.513  0.00  0.00    -0.346 OA
BRANCH  30  32
ATOM     32  N   UNL     1       9.082   1.167  22.995  0.00  0.00    -0.286 N 
ATOM     33  C   UNL     1       8.354   2.315  22.781  0.00  0.00    +0.167 A 
ATOM     34  N   UNL     1       7.177   2.438  22.140  0.00  0.00    -0.216 NA
ATOM     35  C   UNL     1       6.767   3.727  22.149  0.00  0.00    +0.225 A 
ATOM     36  N   UNL     1       7.379   4.804  22.690  0.00  0.00    -0.219 NA
ATOM     37  C   UNL     1       8.556   4.621  23.330  0.00  0.00    +0.147 A 
ATOM     38  N   UNL     1       9.179   5.722  23.901  0.00  0.00    -0.341 N 
ATOM     39  H   UNL     1      10.170   5.585  24.067  0.00  0.00    +0.144 HD
ATOM     40  H   UNL     1       8.885   6.595  23.484  0.00  0.00    +0.144 HD
ATOM     41  C   UNL     1       9.097   3.324  23.378  0.00  0.00    +0.147 A 
ATOM     42  N   UNL     1      10.265   2.827  23.907  0.00  0.00    -0.231 NA
ATOM     43  C   UNL     1      10.213   1.530  23.672  0.00  0.00    +0.203 A 
ENDBRANCH  30  32
BRANCH  29  44
ATOM     44  O   UNL     1      10.348  -1.524  21.458  0.00  0.00    -0.385 OA
ATOM     45  H   UNL     1      11.196  -1.980  21.633  0.00  0.00    +0.210 HD
ENDBRANCH  29  44
BRANCH  28  46
ATOM     46  O   UNL     1       9.667  -2.714  24.626  0.00  0.00    -0.386 OA
ATOM     47  H   UNL     1      10.552  -3.098  24.492  0.00  0.00    +0.210 HD
ENDBRANCH  28  46
ENDBRANCH  26  27
ENDBRANCH  25  26
ENDBRANCH   1  25
TORSDOF 17
ENDMDL
MODEL 8
REMARK VINA RESULT:      -7.0      3.211      5.391
REMARK  Name = 
REMARK  18 active torsions:
REMARK  status: ('A' for Active; 'I' for Inactive)
REMARK    1  A    between atoms: C_1  and  C_2
REMARK    2  A    between atoms: C_2  and  O_4
REMARK    3  A    between atoms: O_4  and  C_5
REMARK    4  A    between atoms: C_7  and  O_9
REMARK    5  A    between atoms: C_11  and  C_13
REMARK    6  A    between atoms: C_13  and  O_14
REMARK    7  A    between atoms: O_14  and  P_15
REMARK    8  A    between atoms: P_15  and  O_16
REMARK    9  A    between atoms: P_15  and  O_18
REMARK   10  A    between atoms: O_18  and  P_19
REMARK   11  A    between atoms: P_19  and  O_20
REMARK   12  A    between atoms: P_19  and  O_22
REMARK   13  A    between atoms: O_22  and  C_23
REMARK   14  A    between atoms: C_23  and  C_24
REMARK   15  A    between atoms: C_27  and  N_35
REMARK   16  A    between atoms: C_29  and  O_31
REMARK   17  A    between atoms: C_32  and  O_34
REMARK   18  A    between atoms: C_45  and  O_47
REMARK                            x       y       z     vdW  Elec       q    Type
REMARK                         _______ _______ _______ _____ _____    ______ ____
ROOT
ATOM      1  P   UNL     1       5.302   1.184  25.300  0.00  0.00    +0.483 P 
ATOM      2  O   UNL     1       6.405   1.663  26.181  0.00  0.00    -0.227 OA
ENDROOT
BRANCH   1   3
ATOM      3  O   UNL     1       3.901   1.911  25.582  0.00  0.00    -0.302 OA
ATOM      4  H   UNL     1       4.021   2.752  26.062  0.00  0.00    +0.222 HD
ENDBRANCH   1   3
BRANCH   1   5
ATOM      5  O   UNL     1       4.912  -0.344  25.373  0.00  0.00    -0.186 OA
BRANCH   5   6
ATOM      6  P   UNL     1       4.150  -1.018  26.584  0.00  0.00    +0.483 P 
ATOM      7  O   UNL     1       2.721  -0.631  26.768  0.00  0.00    -0.227 OA
BRANCH   6   8
ATOM      8  O   UNL     1       5.040  -0.673  27.867  0.00  0.00    -0.302 OA
ATOM      9  H   UNL     1       4.474  -0.489  28.641  0.00  0.00    +0.222 HD
ENDBRANCH   6   8
BRANCH   6  10
ATOM     10  O   UNL     1       4.365  -2.598  26.393  0.00  0.00    -0.284 OA
BRANCH  10  11
ATOM     11  C   UNL     1       3.898  -3.193  25.183  0.00  0.00    +0.206 C 
BRANCH  11  14
ATOM     12  C   UNL     1       5.042  -5.708  23.276  0.00  0.00    +0.263 C 
ATOM     13  C   UNL     1       5.318  -5.260  24.705  0.00  0.00    +0.191 C 
ATOM     14  C   UNL     1       3.960  -4.728  25.183  0.00  0.00    +0.180 C 
ATOM     15  O   UNL     1       2.954  -5.272  24.297  0.00  0.00    -0.340 OA
ATOM     16  C   UNL     1       3.602  -6.205  23.423  0.00  0.00    +0.292 C 
BRANCH  16  17
ATOM     17  O   UNL     1       3.603  -7.485  24.050  0.00  0.00    -0.364 OA
ATOM     18  H   UNL     1       3.604  -8.135  23.323  0.00  0.00    +0.213 HD
ENDBRANCH  16  17
BRANCH  13  19
ATOM     19  O   UNL     1       5.688  -6.389  25.513  0.00  0.00    -0.385 OA
ATOM     20  H   UNL     1       6.010  -7.089  24.901  0.00  0.00    +0.210 HD
ENDBRANCH  13  19
BRANCH  12  21
ATOM     21  O   UNL     1       5.116  -4.584  22.380  0.00  0.00    -0.454 OA
BRANCH  21  23
ATOM     22  C   UNL     1       7.015  -5.586  21.417  0.00  0.00    +0.136 C 
ATOM     23  C   UNL     1       6.374  -4.331  21.920  0.00  0.00    +0.304 C 
ATOM     24  O   UNL     1       6.924  -3.240  21.958  0.00  0.00    -0.251 OA
ENDBRANCH  21  23
ENDBRANCH  12  21
ENDBRANCH  11  14
ENDBRANCH  10  11
ENDBRANCH   6  10
ENDBRANCH   5   6
ENDBRANCH   1   5
BRANCH   1  25
ATOM     25  O   UNL     1       5.515   1.462  23.732  0.00  0.00    -0.284 OA
BRANCH  25  26
ATOM     26  C   UNL     1       6.628   2.261  23.366  0.00  0.00    +0.206 C 
BRANCH  26  27
ATOM     27  C   UNL     1       7.647   1.444  22.568  0.00  0.00    +0.178 C 
ATOM     28  C   UNL     1       9.085   1.947  22.710  0.00  0.00    +0.178 C 
ATOM     29  C   UNL     1       9.749   1.012  23.722  0.00  0.00    +0.195 C 
ATOM     30  C   UNL     1       8.653   0.005  24.083  0.00  0.00    +0.253 C 
ATOM     31  O   UNL     1       7.665   0.079  23.033  0.00  0.00    -0.346 OA
BRANCH  30  32
ATOM     32  N   UNL     1       9.133  -1.358  24.178  0.00  0.00    -0.286 N 
ATOM     33  C   UNL     1       8.698  -2.285  25.097  0.00  0.00    +0.167 A 
ATOM     34  N   UNL     1       7.822  -2.102  26.103  0.00  0.00    -0.216 NA
ATOM     35  C   UNL     1       7.634  -3.256  26.782  0.00  0.00    +0.225 A 
ATOM     36  N   UNL     1       8.199  -4.465  26.565  0.00  0.00    -0.219 NA
ATOM     37  C   UNL     1       9.066  -4.594  25.535  0.00  0.00    +0.147 A 
ATOM     38  N   UNL     1       9.635  -5.839  25.298  0.00  0.00    -0.341 N 
ATOM     39  H   UNL     1      10.486  -5.795  24.750  0.00  0.00    +0.144 HD
ATOM     40  H   UNL     1       9.628  -6.431  26.117  0.00  0.00    +0.144 HD
ATOM     41  C   UNL     1       9.356  -3.459  24.759  0.00  0.00    +0.147 A 
ATOM     42  N   UNL     1      10.202  -3.258  23.692  0.00  0.00    -0.231 NA
ATOM     43  C   UNL     1      10.029  -1.992  23.363  0.00  0.00    +0.203 A 
ENDBRANCH  30  32
BRANCH  29  44
ATOM     44  O   UNL     1      10.216   1.735  24.862  0.00  0.00    -0.385 OA
ATOM     45  H   UNL     1      11.194   1.735  24.817  0.00  0.00    +0.210 HD
ENDBRANCH  29  44
BRANCH  28  46
ATOM     46  O   UNL     1       9.755   1.835  21.443  0.00  0.00    -0.386 OA
ATOM     47  H   UNL     1       9.247   1.230  20.874  0.00  0.00    +0.210 HD
ENDBRANCH  28  46
ENDBRANCH  26  27
ENDBRANCH  25  26
ENDBRANCH   1  25
TORSDOF 17
ENDMDL
MODEL 9
REMARK VINA RESULT:      -7.0      3.454      6.330
REMARK  Name = 
REMARK  18 active torsions:
REMARK  status: ('A' for Active; 'I' for Inactive)
REMARK    1  A    between atoms: C_1  and  C_2
REMARK    2  A    between atoms: C_2  and  O_4
REMARK    3  A    between atoms: O_4  and  C_5
REMARK    4  A    between atoms: C_7  and  O_9
REMARK    5  A    between atoms: C_11  and  C_13
REMARK    6  A    between atoms: C_13  and  O_14
REMARK    7  A    between atoms: O_14  and  P_15
REMARK    8  A    between atoms: P_15  and  O_16
REMARK    9  A    between atoms: P_15  and  O_18
REMARK   10  A    between atoms: O_18  and  P_19
REMARK   11  A    between atoms: P_19  and  O_20
REMARK   12  A    between atoms: P_19  and  O_22
REMARK   13  A    between atoms: O_22  and  C_23
REMARK   14  A    between atoms: C_23  and  C_24
REMARK   15  A    between atoms: C_27  and  N_35
REMARK   16  A    between atoms: C_29  and  O_31
REMARK   17  A    between atoms: C_32  and  O_34
REMARK   18  A    between atoms: C_45  and  O_47
REMARK                            x       y       z     vdW  Elec       q    Type
REMARK                         _______ _______ _______ _____ _____    ______ ____
ROOT
ATOM      1  P   UNL     1       9.331   1.561  22.322  0.00  0.00    +0.483 P 
ATOM      2  O   UNL     1       8.100   1.659  21.488  0.00  0.00    -0.227 OA
ENDROOT
BRANCH   1   3
ATOM      3  O   UNL     1      10.538   2.470  21.785  0.00  0.00    -0.302 OA
ATOM      4  H   UNL     1      11.392   2.202  22.172  0.00  0.00    +0.222 HD
ENDBRANCH   1   3
BRANCH   1   5
ATOM      5  O   UNL     1      10.013   0.144  22.466  0.00  0.00    -0.186 OA
BRANCH   5   6
ATOM      6  P   UNL     1       9.227  -1.211  22.683  0.00  0.00    +0.483 P 
ATOM      7  O   UNL     1       9.254  -2.183  21.550  0.00  0.00    -0.227 OA
BRANCH   6   8
ATOM      8  O   UNL     1       7.739  -0.763  23.060  0.00  0.00    -0.302 OA
ATOM      9  H   UNL     1       7.486   0.042  22.570  0.00  0.00    +0.222 HD
ENDBRANCH   6   8
BRANCH   6  10
ATOM     10  O   UNL     1       9.796  -1.816  24.058  0.00  0.00    -0.284 OA
BRANCH  10  11
ATOM     11  C   UNL     1       8.880  -1.997  25.137  0.00  0.00    +0.206 C 
BRANCH  11  14
ATOM     12  C   UNL     1       8.034  -5.223  24.751  0.00  0.00    +0.263 C 
ATOM     13  C   UNL     1       9.362  -4.493  24.899  0.00  0.00    +0.191 C 
ATOM     14  C   UNL     1       9.034  -3.343  25.861  0.00  0.00    +0.180 C 
ATOM     15  O   UNL     1       7.805  -3.693  26.539  0.00  0.00    -0.340 OA
ATOM     16  C   UNL     1       7.464  -5.031  26.158  0.00  0.00    +0.292 C 
BRANCH  16  17
ATOM     17  O   UNL     1       8.102  -5.934  27.058  0.00  0.00    -0.364 OA
ATOM     18  H   UNL     1       7.603  -6.769  26.992  0.00  0.00    +0.213 HD
ENDBRANCH  16  17
BRANCH  13  19
ATOM     19  O   UNL     1      10.333  -5.355  25.516  0.00  0.00    -0.385 OA
ATOM     20  H   UNL     1      10.721  -5.909  24.802  0.00  0.00    +0.210 HD
ENDBRANCH  13  19
BRANCH  12  21
ATOM     21  O   UNL     1       7.216  -4.570  23.763  0.00  0.00    -0.454 OA
BRANCH  21  23
ATOM     22  C   UNL     1       7.037  -5.778  21.750  0.00  0.00    +0.136 C 
ATOM     23  C   UNL     1       6.415  -5.423  23.064  0.00  0.00    +0.304 C 
ATOM     24  O   UNL     1       5.315  -5.807  23.436  0.00  0.00    -0.251 OA
ENDBRANCH  21  23
ENDBRANCH  12  21
ENDBRANCH  11  14
ENDBRANCH  10  11
ENDBRANCH   6  10
ENDBRANCH   5   6
ENDBRANCH   1   5
BRANCH   1  25
ATOM     25  O   UNL     1       9.170   2.076  23.835  0.00  0.00    -0.284 OA
BRANCH  25  26
ATOM     26  C   UNL     1       8.852   3.445  24.018  0.00  0.00    +0.206 C 
BRANCH  26  27
ATOM     27  C   UNL     1       7.596   3.604  24.879  0.00  0.00    +0.178 C 
ATOM     28  C   UNL     1       6.292   3.547  24.080  0.00  0.00    +0.178 C 
ATOM     29  C   UNL     1       5.748   2.133  24.282  0.00  0.00    +0.195 C 
ATOM     30  C   UNL     1       6.765   1.464  25.212  0.00  0.00    +0.253 C 
ATOM     31  O   UNL     1       7.511   2.529  25.838  0.00  0.00    -0.346 OA
BRANCH  30  32
ATOM     32  N   UNL     1       6.154   0.652  26.244  0.00  0.00    -0.286 N 
ATOM     33  C   UNL     1       5.577  -0.580  26.039  0.00  0.00    +0.167 A 
ATOM     34  N   UNL     1       5.406  -1.227  24.872  0.00  0.00    -0.216 NA
ATOM     35  C   UNL     1       4.813  -2.426  25.077  0.00  0.00    +0.225 A 
ATOM     36  N   UNL     1       4.411  -2.979  26.243  0.00  0.00    -0.219 NA
ATOM     37  C   UNL     1       4.616  -2.288  27.387  0.00  0.00    +0.147 A 
ATOM     38  N   UNL     1       4.219  -2.860  28.589  0.00  0.00    -0.341 N 
ATOM     39  H   UNL     1       4.100  -2.187  29.337  0.00  0.00    +0.144 HD
ATOM     40  H   UNL     1       3.504  -3.564  28.466  0.00  0.00    +0.144 HD
ATOM     41  C   UNL     1       5.213  -1.018  27.304  0.00  0.00    +0.147 A 
ATOM     42  N   UNL     1       5.516  -0.073  28.257  0.00  0.00    -0.231 NA
ATOM     43  C   UNL     1       6.092   0.905  27.586  0.00  0.00    +0.203 A 
ENDBRANCH  30  32
BRANCH  29  44
ATOM     44  O   UNL     1       5.622   1.446  23.036  0.00  0.00    -0.385 OA
ATOM     45  H   UNL     1       5.529   0.494  23.243  0.00  0.00    +0.210 HD
ENDBRANCH  29  44
BRANCH  28  46
ATOM     46  O   UNL     1       5.361   4.500  24.622  0.00  0.00    -0.386 OA
ATOM     47  H   UNL     1       5.291   5.251  24.007  0.00  0.00    +0.210 HD
ENDBRANCH  28  46
ENDBRANCH  26  27
ENDBRANCH  25  26
ENDBRANCH   1  25
TORSDOF 17
ENDMDL
