MODEL 1
REMARK VINA RESULT:      -8.7      0.000      0.000
REMARK  Name = 
REMARK  5 active torsions:
REMARK  status: ('A' for Active; 'I' for Inactive)
REMARK    1  A    between atoms: C_1  and  C_2
REMARK    2  A    between atoms: C_5  and  C_19
REMARK    3  A    between atoms: C_7  and  C_8
REMARK    4  A    between atoms: N_21  and  C_22
REMARK    5  A    between atoms: C_26  and  C_28
REMARK                            x       y       z     vdW  Elec       q    Type
REMARK                         _______ _______ _______ _____ _____    ______ ____
ROOT
ATOM      1  C   UNL     1       7.360  -4.475  22.217  0.00  0.00    +0.044 C 
ATOM      2  C   UNL     1       7.857  -3.203  22.861  0.00  0.00    -0.043 A 
ATOM      3  C   UNL     1       7.834  -2.928  24.262  0.00  0.00    -0.014 A 
ATOM      4  C   UNL     1       8.404  -1.688  24.683  0.00  0.00    +0.021 A 
ATOM      5  C   UNL     1       8.975  -0.778  23.777  0.00  0.00    +0.038 A 
ATOM      6  C   UNL     1       8.936  -1.064  22.414  0.00  0.00    +0.013 A 
ATOM      7  C   UNL     1       8.380  -2.251  21.963  0.00  0.00    +0.005 A 
ENDROOT
BRANCH   3   8
ATOM      8  C   UNL     1       7.272  -3.858  25.298  0.00  0.00    -0.017 A 
ATOM      9  C   UNL     1       5.896  -4.017  25.529  0.00  0.00    +0.020 A 
ATOM     10  C   UNL     1       5.386  -4.940  26.475  0.00  0.00    +0.019 A 
ATOM     11  C   UNL     1       6.231  -5.680  27.295  0.00  0.00    +0.076 A 
ATOM     12  N   UNL     1       5.766  -6.536  28.219  0.00  0.00    -0.215 NA
ATOM     13  C   UNL     1       4.440  -6.667  28.329  0.00  0.00    +0.213 A 
ATOM     14  N   UNL     1       3.540  -6.053  27.560  0.00  0.00    -0.222 NA
ATOM     15  N   UNL     1       3.960  -7.536  29.280  0.00  0.00    -0.327 N 
ATOM     16  H   UNL     1       3.049  -7.876  29.012  0.00  0.00    +0.145 HD
ATOM     17  H   UNL     1       4.662  -8.229  29.514  0.00  0.00    +0.145 HD
ATOM     18  C   UNL     1       7.593  -5.500  27.112  0.00  0.00    +0.029 A 
ATOM     19  C   UNL     1       4.034  -5.192  26.652  0.00  0.00    +0.124 A 
ATOM     20  C   UNL     1       8.106  -4.632  26.127  0.00  0.00    +0.010 A 
ENDBRANCH   3   8
BRANCH   5  21
ATOM     21  C   UNL     1       9.597   0.527  24.157  0.00  0.00    +0.248 C 
ATOM     22  N   UNL     1       9.157   1.664  23.494  0.00  0.00    -0.281 N 
ATOM     23  H   UNL     1       8.468   1.550  22.765  0.00  0.00    +0.155 HD
ATOM     24  O   UNL     1      10.410   0.495  25.076  0.00  0.00    -0.270 OA
BRANCH  22  25
ATOM     25  C   UNL     1       9.504   3.004  23.828  0.00  0.00    +0.034 A 
ATOM     26  C   UNL     1      10.744   3.501  23.397  0.00  0.00    +0.035 A 
ATOM     27  C   UNL     1      11.127   4.836  23.660  0.00  0.00    +0.057 A 
ATOM     28  C   UNL     1      10.252   5.671  24.369  0.00  0.00    +0.012 A 
ATOM     29  C   UNL     1       9.025   5.185  24.803  0.00  0.00    +0.002 A 
ATOM     30  C   UNL     1       8.657   3.866  24.535  0.00  0.00    +0.023 A 
BRANCH  27  31
ATOM     31  C   UNL     1      12.456   5.365  23.182  0.00  0.00    +0.417 C 
ATOM     32  F   UNL     1      13.477   4.495  23.423  0.00  0.00    -0.166 F 
ATOM     33  F   UNL     1      12.805   6.530  23.792  0.00  0.00    -0.166 F 
ATOM     34  F   UNL     1      12.495   5.619  21.843  0.00  0.00    -0.166 F 
ENDBRANCH  27  31
ENDBRANCH  22  25
ENDBRANCH   5  21
TORSDOF 4
ENDMDL
MODEL 2
REMARK VINA RESULT:      -8.2      2.406      2.885
REMARK  Name = 
REMARK  5 active torsions:
REMARK  status: ('A' for Active; 'I' for Inactive)
REMARK    1  A    between atoms: C_1  and  C_2
REMARK    2  A    between atoms: C_5  and  C_19
REMARK    3  A    between atoms: C_7  and  C_8
REMARK    4  A    between atoms: N_21  and  C_22
REMARK    5  A    between atoms: C_26  and  C_28
REMARK                            x       y       z     vdW  Elec       q    Type
REMARK                         _______ _______ _______ _____ _____    ______ ____
ROOT
ATOM      1  C   UNL     1       9.057  -4.608  24.553  0.00  0.00    +0.044 C 
ATOM      2  C   UNL     1       8.843  -3.191  24.079  0.00  0.00    -0.043 A 
ATOM      3  C   UNL     1       7.605  -2.662  23.605  0.00  0.00    -0.014 A 
ATOM      4  C   UNL     1       7.590  -1.277  23.254  0.00  0.00    +0.021 A 
ATOM      5  C   UNL     1       8.727  -0.460  23.375  0.00  0.00    +0.038 A 
ATOM      6  C   UNL     1       9.927  -1.027  23.798  0.00  0.00    +0.013 A 
ATOM      7  C   UNL     1       9.986  -2.370  24.136  0.00  0.00    +0.005 A 
ENDROOT
BRANCH   3   8
ATOM      8  C   UNL     1       6.338  -3.458  23.476  0.00  0.00    -0.017 A 
ATOM      9  C   UNL     1       5.244  -3.315  24.345  0.00  0.00    +0.020 A 
ATOM     10  C   UNL     1       4.038  -4.038  24.173  0.00  0.00    +0.019 A 
ATOM     11  C   UNL     1       3.905  -5.001  23.178  0.00  0.00    +0.076 A 
ATOM     12  N   UNL     1       2.781  -5.718  23.019  0.00  0.00    -0.215 NA
ATOM     13  C   UNL     1       1.767  -5.474  23.857  0.00  0.00    +0.213 A 
ATOM     14  N   UNL     1       1.764  -4.538  24.808  0.00  0.00    -0.222 NA
ATOM     15  N   UNL     1       0.618  -6.212  23.703  0.00  0.00    -0.327 N 
ATOM     16  H   UNL     1      -0.175  -5.698  24.054  0.00  0.00    +0.145 HD
ATOM     17  H   UNL     1       0.554  -6.576  22.759  0.00  0.00    +0.145 HD
ATOM     18  C   UNL     1       4.993  -5.188  22.341  0.00  0.00    +0.029 A 
ATOM     19  C   UNL     1       2.907  -3.844  24.952  0.00  0.00    +0.124 A 
ATOM     20  C   UNL     1       6.172  -4.424  22.466  0.00  0.00    +0.010 A 
ENDBRANCH   3   8
BRANCH   5  21
ATOM     21  C   UNL     1       8.770   0.995  23.037  0.00  0.00    +0.248 C 
ATOM     22  N   UNL     1       9.091   1.881  24.057  0.00  0.00    -0.281 N 
ATOM     23  H   UNL     1       9.242   1.503  24.981  0.00  0.00    +0.155 HD
ATOM     24  O   UNL     1       8.578   1.288  21.861  0.00  0.00    -0.270 OA
BRANCH  22  25
ATOM     25  C   UNL     1       9.343   3.272  23.896  0.00  0.00    +0.034 A 
ATOM     26  C   UNL     1      10.669   3.694  23.706  0.00  0.00    +0.035 A 
ATOM     27  C   UNL     1      10.980   5.057  23.498  0.00  0.00    +0.057 A 
ATOM     28  C   UNL     1       9.943   6.000  23.488  0.00  0.00    +0.012 A 
ATOM     29  C   UNL     1       8.629   5.592  23.680  0.00  0.00    +0.002 A 
ATOM     30  C   UNL     1       8.335   4.243  23.882  0.00  0.00    +0.023 A 
BRANCH  27  31
ATOM     31  C   UNL     1      12.406   5.498  23.281  0.00  0.00    +0.417 C 
ATOM     32  F   UNL     1      13.296   4.483  23.468  0.00  0.00    -0.166 F 
ATOM     33  F   UNL     1      12.782   6.487  24.137  0.00  0.00    -0.166 F 
ATOM     34  F   UNL     1      12.647   5.976  22.028  0.00  0.00    -0.166 F 
ENDBRANCH  27  31
ENDBRANCH  22  25
ENDBRANCH   5  21
TORSDOF 4
ENDMDL
MODEL 3
REMARK VINA RESULT:      -7.9      2.303      2.949
REMARK  Name = 
REMARK  5 active torsions:
REMARK  status: ('A' for Active; 'I' for Inactive)
REMARK    1  A    between atoms: C_1  and  C_2
REMARK    2  A    between atoms: C_5  and  C_19
REMARK    3  A    between atoms: C_7  and  C_8
REMARK    4  A    between atoms: N_21  and  C_22
REMARK    5  A    between atoms: C_26  and  C_28
REMARK                            x       y       z     vdW  Elec       q    Type
REMARK                         _______ _______ _______ _____ _____    ______ ____
ROOT
ATOM      1  C   UNL     1       9.544  -5.264  25.223  0.00  0.00    +0.044 C 
ATOM      2  C   UNL     1       9.077  -4.006  24.532  0.00  0.00    -0.043 A 
ATOM      3  C   UNL     1       7.749  -3.771  24.062  0.00  0.00    -0.014 A 
ATOM      4  C   UNL     1       7.489  -2.492  23.483  0.00  0.00    +0.021 A 
ATOM      5  C   UNL     1       8.477  -1.497  23.386  0.00  0.00    +0.038 A 
ATOM      6  C   UNL     1       9.770  -1.782  23.815  0.00  0.00    +0.013 A 
ATOM      7  C   UNL     1      10.068  -3.017  24.371  0.00  0.00    +0.005 A 
ENDROOT
BRANCH   3   8
ATOM      8  C   UNL     1       6.630  -4.768  24.156  0.00  0.00    -0.017 A 
ATOM      9  C   UNL     1       5.951  -5.056  25.351  0.00  0.00    +0.020 A 
ATOM     10  C   UNL     1       4.861  -5.960  25.407  0.00  0.00    +0.019 A 
ATOM     11  C   UNL     1       4.462  -6.684  24.289  0.00  0.00    +0.076 A 
ATOM     12  N   UNL     1       3.452  -7.569  24.330  0.00  0.00    -0.215 NA
ATOM     13  C   UNL     1       2.823  -7.736  25.498  0.00  0.00    +0.213 A 
ATOM     14  N   UNL     1       3.085  -7.057  26.616  0.00  0.00    -0.222 NA
ATOM     15  N   UNL     1       1.796  -8.647  25.546  0.00  0.00    -0.327 N 
ATOM     16  H   UNL     1       1.148  -8.403  26.280  0.00  0.00    +0.145 HD
ATOM     17  H   UNL     1       1.411  -8.798  24.621  0.00  0.00    +0.145 HD
ATOM     18  C   UNL     1       5.153  -6.446  23.112  0.00  0.00    +0.029 A 
ATOM     19  C   UNL     1       4.109  -6.188  26.549  0.00  0.00    +0.124 A 
ATOM     20  C   UNL     1       6.194  -5.499  23.035  0.00  0.00    +0.010 A 
ENDBRANCH   3   8
BRANCH   5  21
ATOM     21  C   UNL     1       8.262  -0.137  22.805  0.00  0.00    +0.248 C 
ATOM     22  N   UNL     1       7.680   0.824  23.620  0.00  0.00    -0.281 N 
ATOM     23  H   UNL     1       7.398   0.548  24.550  0.00  0.00    +0.155 HD
ATOM     24  O   UNL     1       8.677   0.040  21.664  0.00  0.00    -0.270 OA
BRANCH  22  25
ATOM     25  C   UNL     1       7.548   2.206  23.307  0.00  0.00    +0.034 A 
ATOM     26  C   UNL     1       8.566   3.084  23.713  0.00  0.00    +0.035 A 
ATOM     27  C   UNL     1       8.515   4.460  23.395  0.00  0.00    +0.057 A 
ATOM     28  C   UNL     1       7.423   4.953  22.667  0.00  0.00    +0.012 A 
ATOM     29  C   UNL     1       6.409   4.092  22.265  0.00  0.00    +0.002 A 
ATOM     30  C   UNL     1       6.473   2.734  22.584  0.00  0.00    +0.023 A 
BRANCH  27  31
ATOM     31  C   UNL     1       9.620   5.393  23.825  0.00  0.00    +0.417 C 
ATOM     32  F   UNL     1       9.463   5.825  25.107  0.00  0.00    -0.166 F 
ATOM     33  F   UNL     1       9.685   6.514  23.057  0.00  0.00    -0.166 F 
ATOM     34  F   UNL     1      10.861   4.831  23.773  0.00  0.00    -0.166 F 
ENDBRANCH  27  31
ENDBRANCH  22  25
ENDBRANCH   5  21
TORSDOF 4
ENDMDL
MODEL 4
REMARK VINA RESULT:      -7.9      1.622      2.093
REMARK  Name = 
REMARK  5 active torsions:
REMARK  status: ('A' for Active; 'I' for Inactive)
REMARK    1  A    between atoms: C_1  and  C_2
REMARK    2  A    between atoms: C_5  and  C_19
REMARK    3  A    between atoms: C_7  and  C_8
REMARK    4  A    between atoms: N_21  and  C_22
REMARK    5  A    between atoms: C_26  and  C_28
REMARK                            x       y       z     vdW  Elec       q    Type
REMARK                         _______ _______ _______ _____ _____    ______ ____
ROOT
ATOM      1  C   UNL     1       7.359  -4.307  22.144  0.00  0.00    +0.044 C 
ATOM      2  C   UNL     1       7.923  -3.059  22.779  0.00  0.00    -0.043 A 
ATOM      3  C   UNL     1       7.974  -2.802  24.182  0.00  0.00    -0.014 A 
ATOM      4  C   UNL     1       8.599  -1.584  24.590  0.00  0.00    +0.021 A 
ATOM      5  C   UNL     1       9.153  -0.679  23.669  0.00  0.00    +0.038 A 
ATOM      6  C   UNL     1       9.042  -0.946  22.307  0.00  0.00    +0.013 A 
ATOM      7  C   UNL     1       8.431  -2.111  21.868  0.00  0.00    +0.005 A 
ENDROOT
BRANCH   3   8
ATOM      8  C   UNL     1       7.434  -3.729  25.233  0.00  0.00    -0.017 A 
ATOM      9  C   UNL     1       6.065  -3.992  25.401  0.00  0.00    +0.020 A 
ATOM     10  C   UNL     1       5.581  -4.912  26.364  0.00  0.00    +0.019 A 
ATOM     11  C   UNL     1       6.437  -5.541  27.261  0.00  0.00    +0.076 A 
ATOM     12  N   UNL     1       5.994  -6.392  28.200  0.00  0.00    -0.215 NA
ATOM     13  C   UNL     1       4.679  -6.628  28.250  0.00  0.00    +0.213 A 
ATOM     14  N   UNL     1       3.775  -6.126  27.407  0.00  0.00    -0.222 NA
ATOM     15  N   UNL     1       4.220  -7.492  29.216  0.00  0.00    -0.327 N 
ATOM     16  H   UNL     1       3.355  -7.917  28.919  0.00  0.00    +0.145 HD
ATOM     17  H   UNL     1       4.961  -8.112  29.518  0.00  0.00    +0.145 HD
ATOM     18  C   UNL     1       7.788  -5.256  27.138  0.00  0.00    +0.029 A 
ATOM     19  C   UNL     1       4.246  -5.267  26.485  0.00  0.00    +0.124 A 
ATOM     20  C   UNL     1       8.282  -4.393  26.139  0.00  0.00    +0.010 A 
ENDBRANCH   3   8
BRANCH   5  21
ATOM     21  C   UNL     1       9.831   0.602  24.035  0.00  0.00    +0.248 C 
ATOM     22  N   UNL     1       9.687   1.674  23.166  0.00  0.00    -0.281 N 
ATOM     23  H   UNL     1       9.164   1.526  22.315  0.00  0.00    +0.155 HD
ATOM     24  O   UNL     1      10.415   0.620  25.114  0.00  0.00    -0.270 OA
BRANCH  22  25
ATOM     25  C   UNL     1      10.112   3.009  23.419  0.00  0.00    +0.034 A 
ATOM     26  C   UNL     1       9.179   3.920  23.940  0.00  0.00    +0.035 A 
ATOM     27  C   UNL     1       9.551   5.248  24.253  0.00  0.00    +0.057 A 
ATOM     28  C   UNL     1      10.873   5.657  24.033  0.00  0.00    +0.012 A 
ATOM     29  C   UNL     1      11.802   4.762  23.514  0.00  0.00    +0.002 A 
ATOM     30  C   UNL     1      11.422   3.454  23.211  0.00  0.00    +0.023 A 
BRANCH  27  31
ATOM     31  C   UNL     1       8.545   6.215  24.824  0.00  0.00    +0.417 C 
ATOM     32  F   UNL     1       9.063   6.963  25.838  0.00  0.00    -0.166 F 
ATOM     33  F   UNL     1       7.453   5.589  25.343  0.00  0.00    -0.166 F 
ATOM     34  F   UNL     1       8.065   7.108  23.913  0.00  0.00    -0.166 F 
ENDBRANCH  27  31
ENDBRANCH  22  25
ENDBRANCH   5  21
TORSDOF 4
ENDMDL
MODEL 5
REMARK VINA RESULT:      -7.2      3.168      4.268
REMARK  Name = 
REMARK  5 active torsions:
REMARK  status: ('A' for Active; 'I' for Inactive)
REMARK    1  A    between atoms: C_1  and  C_2
REMARK    2  A    between atoms: C_5  and  C_19
REMARK    3  A    between atoms: C_7  and  C_8
REMARK    4  A    between atoms: N_21  and  C_22
REMARK    5  A    between atoms: C_26  and  C_28
REMARK                            x       y       z     vdW  Elec       q    Type
REMARK                         _______ _______ _______ _____ _____    ______ ____
ROOT
ATOM      1  C   UNL     1       4.122  -1.613  28.299  0.00  0.00    +0.044 C 
ATOM      2  C   UNL     1       5.040  -0.541  27.762  0.00  0.00    -0.043 A 
ATOM      3  C   UNL     1       5.889  -0.681  26.624  0.00  0.00    -0.014 A 
ATOM      4  C   UNL     1       6.643   0.469  26.238  0.00  0.00    +0.021 A 
ATOM      5  C   UNL     1       6.553   1.690  26.927  0.00  0.00    +0.038 A 
ATOM      6  C   UNL     1       5.747   1.772  28.060  0.00  0.00    +0.013 A 
ATOM      7  C   UNL     1       5.010   0.674  28.475  0.00  0.00    +0.005 A 
ENDROOT
BRANCH   3   8
ATOM      8  C   UNL     1       6.019  -1.940  25.814  0.00  0.00    -0.017 A 
ATOM      9  C   UNL     1       5.579  -2.051  24.485  0.00  0.00    +0.020 A 
ATOM     10  C   UNL     1       5.760  -3.232  23.723  0.00  0.00    +0.019 A 
ATOM     11  C   UNL     1       6.305  -4.382  24.283  0.00  0.00    +0.076 A 
ATOM     12  N   UNL     1       6.456  -5.519  23.586  0.00  0.00    -0.215 NA
ATOM     13  C   UNL     1       6.063  -5.517  22.307  0.00  0.00    +0.213 A 
ATOM     14  N   UNL     1       5.580  -4.460  21.653  0.00  0.00    -0.222 NA
ATOM     15  N   UNL     1       6.206  -6.682  21.592  0.00  0.00    -0.327 N 
ATOM     16  H   UNL     1       6.294  -6.478  20.609  0.00  0.00    +0.145 HD
ATOM     17  H   UNL     1       6.920  -7.268  22.009  0.00  0.00    +0.145 HD
ATOM     18  C   UNL     1       6.701  -4.302  25.609  0.00  0.00    +0.029 A 
ATOM     19  C   UNL     1       5.429  -3.338  22.380  0.00  0.00    +0.124 A 
ATOM     20  C   UNL     1       6.585  -3.110  26.353  0.00  0.00    +0.010 A 
ENDBRANCH   3   8
BRANCH   5  21
ATOM     21  C   UNL     1       7.305   2.931  26.564  0.00  0.00    +0.248 C 
ATOM     22  N   UNL     1       7.791   3.029  25.268  0.00  0.00    -0.281 N 
ATOM     23  H   UNL     1       7.646   2.245  24.648  0.00  0.00    +0.155 HD
ATOM     24  O   UNL     1       7.378   3.797  27.430  0.00  0.00    -0.270 OA
BRANCH  22  25
ATOM     25  C   UNL     1       8.379   4.189  24.689  0.00  0.00    +0.034 A 
ATOM     26  C   UNL     1       9.756   4.176  24.417  0.00  0.00    +0.035 A 
ATOM     27  C   UNL     1      10.390   5.281  23.804  0.00  0.00    +0.057 A 
ATOM     28  C   UNL     1       9.627   6.408  23.469  0.00  0.00    +0.012 A 
ATOM     29  C   UNL     1       8.263   6.430  23.739  0.00  0.00    +0.002 A 
ATOM     30  C   UNL     1       7.649   5.332  24.343  0.00  0.00    +0.023 A 
BRANCH  27  31
ATOM     31  C   UNL     1      11.868   5.253  23.505  0.00  0.00    +0.417 C 
ATOM     32  F   UNL     1      12.600   5.911  24.447  0.00  0.00    -0.166 F 
ATOM     33  F   UNL     1      12.172   5.843  22.316  0.00  0.00    -0.166 F 
ATOM     34  F   UNL     1      12.390   3.995  23.442  0.00  0.00    -0.166 F 
ENDBRANCH  27  31
ENDBRANCH  22  25
ENDBRANCH   5  21
TORSDOF 4
ENDMDL
MODEL 6
REMARK VINA RESULT:      -7.2      5.071      5.946
REMARK  Name = 
REMARK  5 active torsions:
REMARK  status: ('A' for Active; 'I' for Inactive)
REMARK    1  A    between atoms: C_1  and  C_2
REMARK    2  A    between atoms: C_5  and  C_19
REMARK    3  A    between atoms: C_7  and  C_8
REMARK    4  A    between atoms: N_21  and  C_22
REMARK    5  A    between atoms: C_26  and  C_28
REMARK                            x       y       z     vdW  Elec       q    Type
REMARK                         _______ _______ _______ _____ _____    ______ ____
ROOT
ATOM      1  C   UNL     1      10.339  -1.741  22.638  0.00  0.00    +0.044 C 
ATOM      2  C   UNL     1       9.227  -0.723  22.569  0.00  0.00    -0.043 A 
ATOM      3  C   UNL     1       7.903  -0.919  23.065  0.00  0.00    -0.014 A 
ATOM      4  C   UNL     1       7.006   0.187  22.958  0.00  0.00    +0.021 A 
ATOM      5  C   UNL     1       7.396   1.419  22.405  0.00  0.00    +0.038 A 
ATOM      6  C   UNL     1       8.684   1.554  21.892  0.00  0.00    +0.013 A 
ATOM      7  C   UNL     1       9.581   0.499  21.965  0.00  0.00    +0.005 A 
ENDROOT
BRANCH   3   8
ATOM      8  C   UNL     1       7.415  -2.191  23.697  0.00  0.00    -0.017 A 
ATOM      9  C   UNL     1       7.301  -2.369  25.086  0.00  0.00    +0.020 A 
ATOM     10  C   UNL     1       6.788  -3.559  25.659  0.00  0.00    +0.019 A 
ATOM     11  C   UNL     1       6.451  -4.656  24.874  0.00  0.00    +0.076 A 
ATOM     12  N   UNL     1       5.993  -5.803  25.401  0.00  0.00    -0.215 NA
ATOM     13  C   UNL     1       5.861  -5.863  26.731  0.00  0.00    +0.213 A 
ATOM     14  N   UNL     1       6.100  -4.857  27.573  0.00  0.00    -0.222 NA
ATOM     15  N   UNL     1       5.401  -7.038  27.275  0.00  0.00    -0.327 N 
ATOM     16  H   UNL     1       4.950  -6.859  28.159  0.00  0.00    +0.145 HD
ATOM     17  H   UNL     1       4.879  -7.567  26.587  0.00  0.00    +0.145 HD
ATOM     18  C   UNL     1       6.603  -4.513  23.504  0.00  0.00    +0.029 A 
ATOM     19  C   UNL     1       6.570  -3.725  27.019  0.00  0.00    +0.124 A 
ATOM     20  C   UNL     1       7.049  -3.308  22.923  0.00  0.00    +0.010 A 
ENDBRANCH   3   8
BRANCH   5  21
ATOM     21  C   UNL     1       6.509   2.616  22.279  0.00  0.00    +0.248 C 
ATOM     22  N   UNL     1       5.184   2.475  22.668  0.00  0.00    -0.281 N 
ATOM     23  H   UNL     1       4.878   1.566  22.983  0.00  0.00    +0.155 HD
ATOM     24  O   UNL     1       7.043   3.652  21.895  0.00  0.00    -0.270 OA
BRANCH  22  25
ATOM     25  C   UNL     1       4.237   3.532  22.779  0.00  0.00    +0.034 A 
ATOM     26  C   UNL     1       3.324   3.725  21.730  0.00  0.00    +0.035 A 
ATOM     27  C   UNL     1       2.332   4.729  21.800  0.00  0.00    +0.057 A 
ATOM     28  C   UNL     1       2.267   5.548  22.936  0.00  0.00    +0.012 A 
ATOM     29  C   UNL     1       3.170   5.367  23.977  0.00  0.00    +0.002 A 
ATOM     30  C   UNL     1       4.144   4.370  23.897  0.00  0.00    +0.023 A 
BRANCH  27  31
ATOM     31  C   UNL     1       1.347   4.920  20.673  0.00  0.00    +0.417 C 
ATOM     32  F   UNL     1       0.451   3.897  20.590  0.00  0.00    -0.166 F 
ATOM     33  F   UNL     1       1.953   4.986  19.456  0.00  0.00    -0.166 F 
ATOM     34  F   UNL     1       0.603   6.056  20.783  0.00  0.00    -0.166 F 
ENDBRANCH  27  31
ENDBRANCH  22  25
ENDBRANCH   5  21
TORSDOF 4
ENDMDL
MODEL 7
REMARK VINA RESULT:      -7.2      5.449      9.975
REMARK  Name = 
REMARK  5 active torsions:
REMARK  status: ('A' for Active; 'I' for Inactive)
REMARK    1  A    between atoms: C_1  and  C_2
REMARK    2  A    between atoms: C_5  and  C_19
REMARK    3  A    between atoms: C_7  and  C_8
REMARK    4  A    between atoms: N_21  and  C_22
REMARK    5  A    between atoms: C_26  and  C_28
REMARK                            x       y       z     vdW  Elec       q    Type
REMARK                         _______ _______ _______ _____ _____    ______ ____
ROOT
ATOM      1  C   UNL     1      10.709   3.433  23.737  0.00  0.00    +0.044 C 
ATOM      2  C   UNL     1      10.070   2.065  23.751  0.00  0.00    -0.043 A 
ATOM      3  C   UNL     1       8.671   1.811  23.622  0.00  0.00    -0.014 A 
ATOM      4  C   UNL     1       8.266   0.442  23.601  0.00  0.00    +0.021 A 
ATOM      5  C   UNL     1       9.188  -0.615  23.690  0.00  0.00    +0.038 A 
ATOM      6  C   UNL     1      10.539  -0.323  23.861  0.00  0.00    +0.013 A 
ATOM      7  C   UNL     1      10.972   0.993  23.899  0.00  0.00    +0.005 A 
ENDROOT
BRANCH   3   8
ATOM      8  C   UNL     1       7.625   2.880  23.490  0.00  0.00    -0.017 A 
ATOM      9  C   UNL     1       6.559   3.033  24.392  0.00  0.00    +0.020 A 
ATOM     10  C   UNL     1       5.613   4.082  24.279  0.00  0.00    +0.019 A 
ATOM     11  C   UNL     1       5.639   4.970  23.209  0.00  0.00    +0.076 A 
ATOM     12  N   UNL     1       4.733   5.951  23.068  0.00  0.00    -0.215 NA
ATOM     13  C   UNL     1       3.786   6.058  24.007  0.00  0.00    +0.213 A 
ATOM     14  N   UNL     1       3.699   5.300  25.101  0.00  0.00    -0.222 NA
ATOM     15  N   UNL     1       2.852   7.056  23.862  0.00  0.00    -0.327 N 
ATOM     16  H   UNL     1       2.482   7.319  24.762  0.00  0.00    +0.145 HD
ATOM     17  H   UNL     1       3.213   7.798  23.274  0.00  0.00    +0.145 HD
ATOM     18  C   UNL     1       6.657   4.803  22.284  0.00  0.00    +0.029 A 
ATOM     19  C   UNL     1       4.612   4.318  25.209  0.00  0.00    +0.124 A 
ATOM     20  C   UNL     1       7.640   3.803  22.427  0.00  0.00    +0.010 A 
ENDBRANCH   3   8
BRANCH   5  21
ATOM     21  C   UNL     1       8.827  -2.065  23.660  0.00  0.00    +0.248 C 
ATOM     22  N   UNL     1       7.497  -2.391  23.431  0.00  0.00    -0.281 N 
ATOM     23  H   UNL     1       6.836  -1.634  23.332  0.00  0.00    +0.155 HD
ATOM     24  O   UNL     1       9.754  -2.860  23.781  0.00  0.00    -0.270 OA
BRANCH  22  25
ATOM     25  C   UNL     1       6.992  -3.702  23.202  0.00  0.00    +0.034 A 
ATOM     26  C   UNL     1       6.291  -4.338  24.238  0.00  0.00    +0.035 A 
ATOM     27  C   UNL     1       5.728  -5.623  24.059  0.00  0.00    +0.057 A 
ATOM     28  C   UNL     1       5.882  -6.269  22.825  0.00  0.00    +0.012 A 
ATOM     29  C   UNL     1       6.579  -5.648  21.795  0.00  0.00    +0.002 A 
ATOM     30  C   UNL     1       7.128  -4.379  21.985  0.00  0.00    +0.023 A 
BRANCH  27  31
ATOM     31  C   UNL     1       4.965  -6.293  25.174  0.00  0.00    +0.417 C 
ATOM     32  F   UNL     1       3.909  -5.545  25.600  0.00  0.00    -0.166 F 
ATOM     33  F   UNL     1       5.735  -6.514  26.274  0.00  0.00    -0.166 F 
ATOM     34  F   UNL     1       4.446  -7.505  24.831  0.00  0.00    -0.166 F 
ENDBRANCH  27  31
ENDBRANCH  22  25
ENDBRANCH   5  21
TORSDOF 4
ENDMDL
MODEL 8
REMARK VINA RESULT:      -7.1      5.293      9.817
REMARK  Name = 
REMARK  5 active torsions:
REMARK  status: ('A' for Active; 'I' for Inactive)
REMARK    1  A    between atoms: C_1  and  C_2
REMARK    2  A    between atoms: C_5  and  C_19
REMARK    3  A    between atoms: C_7  and  C_8
REMARK    4  A    between atoms: N_21  and  C_22
REMARK    5  A    between atoms: C_26  and  C_28
REMARK                            x       y       z     vdW  Elec       q    Type
REMARK                         _______ _______ _______ _____ _____    ______ ____
ROOT
ATOM      1  C   UNL     1      10.776   3.595  23.393  0.00  0.00    +0.044 C 
ATOM      2  C   UNL     1      10.157   2.264  23.747  0.00  0.00    -0.043 A 
ATOM      3  C   UNL     1       8.756   1.990  23.770  0.00  0.00    -0.014 A 
ATOM      4  C   UNL     1       8.369   0.650  24.076  0.00  0.00    +0.021 A 
ATOM      5  C   UNL     1       9.308  -0.363  24.332  0.00  0.00    +0.038 A 
ATOM      6  C   UNL     1      10.663  -0.043  24.346  0.00  0.00    +0.013 A 
ATOM      7  C   UNL     1      11.081   1.249  24.066  0.00  0.00    +0.005 A 
ENDROOT
BRANCH   3   8
ATOM      8  C   UNL     1       7.690   3.006  23.477  0.00  0.00    -0.017 A 
ATOM      9  C   UNL     1       6.445   2.679  22.915  0.00  0.00    +0.020 A 
ATOM     10  C   UNL     1       5.433   3.647  22.697  0.00  0.00    +0.019 A 
ATOM     11  C   UNL     1       5.654   4.997  22.946  0.00  0.00    +0.076 A 
ATOM     12  N   UNL     1       4.718   5.932  22.716  0.00  0.00    -0.215 NA
ATOM     13  C   UNL     1       3.540   5.522  22.235  0.00  0.00    +0.213 A 
ATOM     14  N   UNL     1       3.200   4.252  22.012  0.00  0.00    -0.222 NA
ATOM     15  N   UNL     1       2.583   6.478  21.989  0.00  0.00    -0.327 N 
ATOM     16  H   UNL     1       1.662   6.070  22.048  0.00  0.00    +0.145 HD
ATOM     17  H   UNL     1       2.758   7.307  22.544  0.00  0.00    +0.145 HD
ATOM     18  C   UNL     1       6.896   5.342  23.457  0.00  0.00    +0.029 A 
ATOM     19  C   UNL     1       4.161   3.338  22.239  0.00  0.00    +0.124 A 
ATOM     20  C   UNL     1       7.883   4.376  23.738  0.00  0.00    +0.010 A 
ENDBRANCH   3   8
BRANCH   5  21
ATOM     21  C   UNL     1       8.965  -1.784  24.644  0.00  0.00    +0.248 C 
ATOM     22  N   UNL     1       7.753  -2.027  25.277  0.00  0.00    -0.281 N 
ATOM     23  H   UNL     1       7.183  -1.232  25.527  0.00  0.00    +0.155 HD
ATOM     24  O   UNL     1       9.760  -2.635  24.258  0.00  0.00    -0.270 OA
BRANCH  22  25
ATOM     25  C   UNL     1       7.180  -3.310  25.504  0.00  0.00    +0.034 A 
ATOM     26  C   UNL     1       6.598  -3.984  24.418  0.00  0.00    +0.035 A 
ATOM     27  C   UNL     1       6.051  -5.278  24.569  0.00  0.00    +0.057 A 
ATOM     28  C   UNL     1       6.086  -5.892  25.829  0.00  0.00    +0.012 A 
ATOM     29  C   UNL     1       6.656  -5.230  26.910  0.00  0.00    +0.002 A 
ATOM     30  C   UNL     1       7.195  -3.952  26.747  0.00  0.00    +0.023 A 
BRANCH  27  31
ATOM     31  C   UNL     1       5.440  -5.999  23.394  0.00  0.00    +0.417 C 
ATOM     32  F   UNL     1       4.503  -5.245  22.754  0.00  0.00    -0.166 F 
ATOM     33  F   UNL     1       4.811  -7.150  23.756  0.00  0.00    -0.166 F 
ATOM     34  F   UNL     1       6.345  -6.353  22.439  0.00  0.00    -0.166 F 
ENDBRANCH  27  31
ENDBRANCH  22  25
ENDBRANCH   5  21
TORSDOF 4
ENDMDL
MODEL 9
REMARK VINA RESULT:      -7.0      5.360      9.910
REMARK  Name = 
REMARK  5 active torsions:
REMARK  status: ('A' for Active; 'I' for Inactive)
REMARK    1  A    between atoms: C_1  and  C_2
REMARK    2  A    between atoms: C_5  and  C_19
REMARK    3  A    between atoms: C_7  and  C_8
REMARK    4  A    between atoms: N_21  and  C_22
REMARK    5  A    between atoms: C_26  and  C_28
REMARK                            x       y       z     vdW  Elec       q    Type
REMARK                         _______ _______ _______ _____ _____    ______ ____
ROOT
ATOM      1  C   UNL     1      10.191   1.720  21.862  0.00  0.00    +0.044 C 
ATOM      2  C   UNL     1       9.613   0.549  22.619  0.00  0.00    -0.043 A 
ATOM      3  C   UNL     1       8.552   0.630  23.571  0.00  0.00    -0.014 A 
ATOM      4  C   UNL     1       8.105  -0.601  24.141  0.00  0.00    +0.021 A 
ATOM      5  C   UNL     1       8.663  -1.841  23.783  0.00  0.00    +0.038 A 
ATOM      6  C   UNL     1       9.726  -1.871  22.884  0.00  0.00    +0.013 A 
ATOM      7  C   UNL     1      10.199  -0.697  22.318  0.00  0.00    +0.005 A 
ENDROOT
BRANCH   3   8
ATOM      8  C   UNL     1       7.882   1.908  23.985  0.00  0.00    -0.017 A 
ATOM      9  C   UNL     1       6.807   2.478  23.284  0.00  0.00    +0.020 A 
ATOM     10  C   UNL     1       6.154   3.657  23.723  0.00  0.00    +0.019 A 
ATOM     11  C   UNL     1       6.605   4.367  24.830  0.00  0.00    +0.076 A 
ATOM     12  N   UNL     1       6.019   5.502  25.243  0.00  0.00    -0.215 NA
ATOM     13  C   UNL     1       4.964   5.941  24.549  0.00  0.00    +0.213 A 
ATOM     14  N   UNL     1       4.413   5.314  23.508  0.00  0.00    -0.222 NA
ATOM     15  N   UNL     1       4.367   7.108  24.962  0.00  0.00    -0.327 N 
ATOM     16  H   UNL     1       3.398   7.122  24.681  0.00  0.00    +0.145 HD
ATOM     17  H   UNL     1       4.567   7.282  25.940  0.00  0.00    +0.145 HD
ATOM     18  C   UNL     1       7.696   3.842  25.506  0.00  0.00    +0.029 A 
ATOM     19  C   UNL     1       5.028   4.186  23.110  0.00  0.00    +0.124 A 
ATOM     20  C   UNL     1       8.307   2.634  25.114  0.00  0.00    +0.010 A 
ENDBRANCH   3   8
BRANCH   5  21
ATOM     21  C   UNL     1       8.229  -3.161  24.333  0.00  0.00    +0.248 C 
ATOM     22  N   UNL     1       6.983  -3.224  24.942  0.00  0.00    -0.281 N 
ATOM     23  H   UNL     1       6.450  -2.370  25.016  0.00  0.00    +0.155 HD
ATOM     24  O   UNL     1       8.989  -4.106  24.145  0.00  0.00    -0.270 OA
BRANCH  22  25
ATOM     25  C   UNL     1       6.331  -4.413  25.373  0.00  0.00    +0.034 A 
ATOM     26  C   UNL     1       6.358  -4.734  26.739  0.00  0.00    +0.035 A 
ATOM     27  C   UNL     1       5.692  -5.879  27.234  0.00  0.00    +0.057 A 
ATOM     28  C   UNL     1       4.999  -6.706  26.340  0.00  0.00    +0.012 A 
ATOM     29  C   UNL     1       4.970  -6.398  24.985  0.00  0.00    +0.002 A 
ATOM     30  C   UNL     1       5.630  -5.263  24.509  0.00  0.00    +0.023 A 
BRANCH  27  31
ATOM     31  C   UNL     1       5.717  -6.208  28.706  0.00  0.00    +0.417 C 
ATOM     32  F   UNL     1       4.755  -7.110  29.051  0.00  0.00    -0.166 F 
ATOM     33  F   UNL     1       5.504  -5.116  29.489  0.00  0.00    -0.166 F 
ATOM     34  F   UNL     1       6.896  -6.746  29.127  0.00  0.00    -0.166 F 
ENDBRANCH  27  31
ENDBRANCH  22  25
ENDBRANCH   5  21
TORSDOF 4
ENDMDL
