MODEL 1
REMARK VINA RESULT:      -6.2      0.000      0.000
REMARK  Name = 
REMARK  14 active torsions:
REMARK  status: ('A' for Active; 'I' for Inactive)
REMARK    1  A    between atoms: C_2  and  C_3
REMARK    2  A    between atoms: C_2  and  N_9
REMARK    3  A    between atoms: C_2  and  C_19
REMARK    4  A    between atoms: C_3  and  N_4
REMARK    5  A    between atoms: C_10  and  O_11
REMARK    6  A    between atoms: C_10  and  C_12
REMARK    7  A    between atoms: C_12  and  C_13
REMARK    8  A    between atoms: C_13  and  C_14
REMARK    9  A    between atoms: C_14  and  C_15
REMARK   10  A    between atoms: C_15  and  C_16
REMARK   11  A    between atoms: C_16  and  C_17
REMARK   12  A    between atoms: C_17  and  C_18
REMARK   13  A    between atoms: C_19  and  O_21
REMARK   14  A    between atoms: C_19  and  C_22
REMARK                            x       y       z     vdW  Elec       q    Type
REMARK                         _______ _______ _______ _____ _____    ______ ____
ROOT
ATOM      1  C   UNL     1       8.784  -2.362  23.795  0.00  0.00    +0.155 C 
ENDROOT
BRANCH   1   2
ATOM      2  N   UNL     1       7.952  -3.118  22.847  0.00  0.00    -0.247 NA
ATOM      3  C   UNL     1       6.811  -2.772  22.415  0.00  0.00    +0.183 C 
BRANCH   3   4
ATOM      4  O   UNL     1       6.134  -1.677  22.798  0.00  0.00    -0.496 OA
ATOM      5  H   UNL     1       5.942  -1.088  22.059  0.00  0.00    +0.293 HD
ENDBRANCH   3   4
BRANCH   3   6
ATOM      6  C   UNL     1       6.082  -3.618  21.412  0.00  0.00    +0.095 C 
BRANCH   6   7
ATOM      7  C   UNL     1       6.439  -5.094  21.525  0.00  0.00    +0.009 C 
BRANCH   7   8
ATOM      8  C   UNL     1       5.348  -5.920  22.212  0.00  0.00    +0.000 C 
BRANCH   8   9
ATOM      9  C   UNL     1       5.469  -5.817  23.733  0.00  0.00    +0.000 C 
BRANCH   9  10
ATOM     10  C   UNL     1       4.347  -4.968  24.330  0.00  0.00    -0.000 C 
BRANCH  10  11
ATOM     11  C   UNL     1       3.509  -5.781  25.316  0.00  0.00    -0.003 C 
ATOM     12  C   UNL     1       4.228  -7.051  25.741  0.00  0.00    +0.004 C 
ENDBRANCH  10  11
ENDBRANCH   9  10
ENDBRANCH   8   9
ENDBRANCH   7   8
ENDBRANCH   6   7
ENDBRANCH   3   6
ENDBRANCH   1   2
BRANCH   1  13
ATOM     13  C   UNL     1       9.022  -3.242  25.062  0.00  0.00    +0.170 C 
BRANCH  13  14
ATOM     14  C   UNL     1       7.842  -3.787  25.888  0.00  0.00    -0.013 A 
ATOM     15  C   UNL     1       6.783  -2.902  26.165  0.00  0.00    +0.010 A 
ATOM     16  C   UNL     1       5.825  -3.188  27.143  0.00  0.00    +0.050 A 
ATOM     17  C   UNL     1       5.879  -4.381  27.852  0.00  0.00    +0.162 A 
ATOM     18  O   UNL     1       4.967  -4.521  28.861  0.00  0.00    -0.485 OA
ATOM     19  C   UNL     1       4.881  -5.856  29.353  0.00  0.00    +0.270 C 
ATOM     20  C   UNL     1       6.238  -6.545  29.419  0.00  0.00    +0.270 C 
ATOM     21  O   UNL     1       6.935  -6.538  28.168  0.00  0.00    -0.485 OA
ATOM     22  C   UNL     1       6.862  -5.320  27.542  0.00  0.00    +0.162 A 
ATOM     23  C   UNL     1       7.839  -5.027  26.564  0.00  0.00    +0.055 A 
ENDBRANCH  13  14
BRANCH  13  24
ATOM     24  O   UNL     1       9.919  -4.324  24.773  0.00  0.00    -0.385 OA
ATOM     25  H   UNL     1      10.118  -4.775  25.611  0.00  0.00    +0.210 HD
ENDBRANCH  13  24
ENDBRANCH   1  13
BRANCH   1  26
ATOM     26  C   UNL     1      10.089  -2.000  22.964  0.00  0.00    +0.114 C 
BRANCH  26  27
ATOM     27  N   UNL     1      10.426  -0.596  22.647  0.00  0.00    -0.300 NA
ATOM     28  C   UNL     1      10.529   0.228  23.879  0.00  0.00    +0.084 C 
ATOM     29  C   UNL     1      10.234   1.667  23.442  0.00  0.00    +0.017 C 
ATOM     30  C   UNL     1       9.928   1.547  21.963  0.00  0.00    +0.017 C 
ATOM     31  C   UNL     1       9.434   0.115  21.842  0.00  0.00    +0.084 C 
ENDBRANCH  26  27
ENDBRANCH   1  26
TORSDOF 13
ENDMDL
MODEL 2
REMARK VINA RESULT:      -6.2      1.690      5.501
REMARK  Name = 
REMARK  14 active torsions:
REMARK  status: ('A' for Active; 'I' for Inactive)
REMARK    1  A    between atoms: C_2  and  C_3
REMARK    2  A    between atoms: C_2  and  N_9
REMARK    3  A    between atoms: C_2  and  C_19
REMARK    4  A    between atoms: C_3  and  N_4
REMARK    5  A    between atoms: C_10  and  O_11
REMARK    6  A    between atoms: C_10  and  C_12
REMARK    7  A    between atoms: C_12  and  C_13
REMARK    8  A    between atoms: C_13  and  C_14
REMARK    9  A    between atoms: C_14  and  C_15
REMARK   10  A    between atoms: C_15  and  C_16
REMARK   11  A    between atoms: C_16  and  C_17
REMARK   12  A    between atoms: C_17  and  C_18
REMARK   13  A    between atoms: C_19  and  O_21
REMARK   14  A    between atoms: C_19  and  C_22
REMARK                            x       y       z     vdW  Elec       q    Type
REMARK                         _______ _______ _______ _____ _____    ______ ____
ROOT
ATOM      1  C   UNL     1       8.132  -2.297  22.791  0.00  0.00    +0.155 C 
ENDROOT
BRANCH   1   2
ATOM      2  N   UNL     1       8.173  -0.871  22.434  0.00  0.00    -0.247 NA
ATOM      3  C   UNL     1       9.107  -0.284  21.809  0.00  0.00    +0.183 C 
BRANCH   3   4
ATOM      4  O   UNL     1      10.257  -0.855  21.414  0.00  0.00    -0.496 OA
ATOM      5  H   UNL     1      10.890  -0.941  22.137  0.00  0.00    +0.293 HD
ENDBRANCH   3   4
BRANCH   3   6
ATOM      6  C   UNL     1       9.005   1.174  21.469  0.00  0.00    +0.095 C 
BRANCH   6   7
ATOM      7  C   UNL     1      10.160   1.988  22.039  0.00  0.00    +0.009 C 
BRANCH   7   8
ATOM      8  C   UNL     1      10.133   2.072  23.567  0.00  0.00    +0.000 C 
BRANCH   8   9
ATOM      9  C   UNL     1       9.226   3.214  24.030  0.00  0.00    +0.000 C 
BRANCH   9  10
ATOM     10  C   UNL     1       8.265   2.759  25.128  0.00  0.00    -0.000 C 
BRANCH  10  11
ATOM     11  C   UNL     1       8.287   1.238  25.279  0.00  0.00    -0.003 C 
ATOM     12  C   UNL     1       6.883   0.672  25.410  0.00  0.00    +0.004 C 
ENDBRANCH  10  11
ENDBRANCH   9  10
ENDBRANCH   8   9
ENDBRANCH   7   8
ENDBRANCH   6   7
ENDBRANCH   3   6
ENDBRANCH   1   2
BRANCH   1  13
ATOM     13  C   UNL     1       8.949  -2.507  24.104  0.00  0.00    +0.170 C 
BRANCH  13  14
ATOM     14  C   UNL     1       8.393  -3.355  25.263  0.00  0.00    -0.013 A 
ATOM     15  C   UNL     1       8.788  -4.705  25.324  0.00  0.00    +0.010 A 
ATOM     16  C   UNL     1       8.121  -5.628  26.135  0.00  0.00    +0.050 A 
ATOM     17  C   UNL     1       7.058  -5.224  26.932  0.00  0.00    +0.162 A 
ATOM     18  O   UNL     1       6.400  -6.217  27.602  0.00  0.00    -0.485 OA
ATOM     19  C   UNL     1       5.521  -5.721  28.609  0.00  0.00    +0.270 C 
ATOM     20  C   UNL     1       4.800  -4.449  28.185  0.00  0.00    +0.270 C 
ATOM     21  O   UNL     1       5.691  -3.408  27.770  0.00  0.00    -0.485 OA
ATOM     22  C   UNL     1       6.696  -3.878  26.963  0.00  0.00    +0.162 A 
ATOM     23  C   UNL     1       7.360  -2.946  26.134  0.00  0.00    +0.055 A 
ENDBRANCH  13  14
BRANCH  13  24
ATOM     24  O   UNL     1      10.284  -2.946  23.812  0.00  0.00    -0.385 OA
ATOM     25  H   UNL     1      10.230  -3.864  23.499  0.00  0.00    +0.210 HD
ENDBRANCH  13  24
ENDBRANCH   1  13
BRANCH   1  26
ATOM     26  C   UNL     1       6.582  -2.628  22.894  0.00  0.00    +0.114 C 
BRANCH  26  27
ATOM     27  N   UNL     1       6.051  -3.937  22.457  0.00  0.00    -0.300 NA
ATOM     28  C   UNL     1       5.336  -4.626  23.562  0.00  0.00    +0.084 C 
ATOM     29  C   UNL     1       5.411  -6.122  23.235  0.00  0.00    +0.017 C 
ATOM     30  C   UNL     1       6.228  -6.180  21.962  0.00  0.00    +0.017 C 
ATOM     31  C   UNL     1       7.060  -4.911  22.043  0.00  0.00    +0.084 C 
ENDBRANCH  26  27
ENDBRANCH   1  26
TORSDOF 13
ENDMDL
MODEL 3
REMARK VINA RESULT:      -6.1      1.316      2.150
REMARK  Name = 
REMARK  14 active torsions:
REMARK  status: ('A' for Active; 'I' for Inactive)
REMARK    1  A    between atoms: C_2  and  C_3
REMARK    2  A    between atoms: C_2  and  N_9
REMARK    3  A    between atoms: C_2  and  C_19
REMARK    4  A    between atoms: C_3  and  N_4
REMARK    5  A    between atoms: C_10  and  O_11
REMARK    6  A    between atoms: C_10  and  C_12
REMARK    7  A    between atoms: C_12  and  C_13
REMARK    8  A    between atoms: C_13  and  C_14
REMARK    9  A    between atoms: C_14  and  C_15
REMARK   10  A    between atoms: C_15  and  C_16
REMARK   11  A    between atoms: C_16  and  C_17
REMARK   12  A    between atoms: C_17  and  C_18
REMARK   13  A    between atoms: C_19  and  O_21
REMARK   14  A    between atoms: C_19  and  C_22
REMARK                            x       y       z     vdW  Elec       q    Type
REMARK                         _______ _______ _______ _____ _____    ______ ____
ROOT
ATOM      1  C   UNL     1       8.492  -1.337  22.891  0.00  0.00    +0.155 C 
ENDROOT
BRANCH   1   2
ATOM      2  N   UNL     1       7.747  -2.390  22.184  0.00  0.00    -0.247 NA
ATOM      3  C   UNL     1       6.517  -2.661  22.329  0.00  0.00    +0.183 C 
BRANCH   3   4
ATOM      4  O   UNL     1       5.688  -2.067  23.204  0.00  0.00    -0.496 OA
ATOM      5  H   UNL     1       5.862  -2.337  24.113  0.00  0.00    +0.293 HD
ENDBRANCH   3   4
BRANCH   3   6
ATOM      6  C   UNL     1       5.867  -3.738  21.511  0.00  0.00    +0.095 C 
BRANCH   6   7
ATOM      7  C   UNL     1       6.656  -5.041  21.529  0.00  0.00    +0.009 C 
BRANCH   7   8
ATOM      8  C   UNL     1       6.672  -5.709  22.907  0.00  0.00    +0.000 C 
BRANCH   8   9
ATOM      9  C   UNL     1       5.299  -6.296  23.238  0.00  0.00    +0.000 C 
BRANCH   9  10
ATOM     10  C   UNL     1       4.804  -5.831  24.607  0.00  0.00    -0.000 C 
BRANCH  10  11
ATOM     11  C   UNL     1       3.719  -4.764  24.464  0.00  0.00    -0.003 C 
ATOM     12  C   UNL     1       2.703  -5.143  23.400  0.00  0.00    +0.004 C 
ENDBRANCH  10  11
ENDBRANCH   9  10
ENDBRANCH   8   9
ENDBRANCH   7   8
ENDBRANCH   6   7
ENDBRANCH   3   6
ENDBRANCH   1   2
BRANCH   1  13
ATOM     13  C   UNL     1       9.496  -2.011  23.877  0.00  0.00    +0.170 C 
BRANCH  13  14
ATOM     14  C   UNL     1       9.010  -2.962  24.986  0.00  0.00    -0.013 A 
ATOM     15  C   UNL     1       9.520  -4.274  24.984  0.00  0.00    +0.010 A 
ATOM     16  C   UNL     1       8.930  -5.292  25.740  0.00  0.00    +0.050 A 
ATOM     17  C   UNL     1       7.832  -5.022  26.546  0.00  0.00    +0.162 A 
ATOM     18  O   UNL     1       7.259  -6.101  27.158  0.00  0.00    -0.485 OA
ATOM     19  C   UNL     1       6.335  -5.735  28.180  0.00  0.00    +0.270 C 
ATOM     20  C   UNL     1       5.508  -4.510  27.813  0.00  0.00    +0.270 C 
ATOM     21  O   UNL     1       6.307  -3.376  27.459  0.00  0.00    -0.485 OA
ATOM     22  C   UNL     1       7.354  -3.716  26.641  0.00  0.00    +0.162 A 
ATOM     23  C   UNL     1       7.940  -2.689  25.866  0.00  0.00    +0.055 A 
ENDBRANCH  13  14
BRANCH  13  24
ATOM     24  O   UNL     1      10.565  -2.648  23.162  0.00  0.00    -0.385 OA
ATOM     25  H   UNL     1      11.356  -2.619  23.727  0.00  0.00    +0.210 HD
ENDBRANCH  13  24
ENDBRANCH   1  13
BRANCH   1  26
ATOM     26  C   UNL     1       9.152  -0.480  21.727  0.00  0.00    +0.114 C 
BRANCH  26  27
ATOM     27  N   UNL     1       9.061   0.995  21.721  0.00  0.00    -0.300 NA
ATOM     28  C   UNL     1       9.876   1.592  22.811  0.00  0.00    +0.084 C 
ATOM     29  C   UNL     1       9.233   2.951  23.113  0.00  0.00    +0.017 C 
ATOM     30  C   UNL     1       8.038   3.006  22.184  0.00  0.00    +0.017 C 
ATOM     31  C   UNL     1       7.724   1.537  21.957  0.00  0.00    +0.084 C 
ENDBRANCH  26  27
ENDBRANCH   1  26
TORSDOF 13
ENDMDL
MODEL 4
REMARK VINA RESULT:      -5.9      2.642      6.278
REMARK  Name = 
REMARK  14 active torsions:
REMARK  status: ('A' for Active; 'I' for Inactive)
REMARK    1  A    between atoms: C_2  and  C_3
REMARK    2  A    between atoms: C_2  and  N_9
REMARK    3  A    between atoms: C_2  and  C_19
REMARK    4  A    between atoms: C_3  and  N_4
REMARK    5  A    between atoms: C_10  and  O_11
REMARK    6  A    between atoms: C_10  and  C_12
REMARK    7  A    between atoms: C_12  and  C_13
REMARK    8  A    between atoms: C_13  and  C_14
REMARK    9  A    between atoms: C_14  and  C_15
REMARK   10  A    between atoms: C_15  and  C_16
REMARK   11  A    between atoms: C_16  and  C_17
REMARK   12  A    between atoms: C_17  and  C_18
REMARK   13  A    between atoms: C_19  and  O_21
REMARK   14  A    between atoms: C_19  and  C_22
REMARK                            x       y       z     vdW  Elec       q    Type
REMARK                         _______ _______ _______ _____ _____    ______ ____
ROOT
ATOM      1  C   UNL     1       8.218  -2.211  23.034  0.00  0.00    +0.155 C 
ENDROOT
BRANCH   1   2
ATOM      2  N   UNL     1       7.659  -3.355  22.299  0.00  0.00    -0.247 NA
ATOM      3  C   UNL     1       7.765  -4.575  22.624  0.00  0.00    +0.183 C 
BRANCH   3   4
ATOM      4  O   UNL     1       8.464  -5.042  23.672  0.00  0.00    -0.496 OA
ATOM      5  H   UNL     1       8.796  -5.935  23.522  0.00  0.00    +0.293 HD
ENDBRANCH   3   4
BRANCH   3   6
ATOM      6  C   UNL     1       7.106  -5.648  21.807  0.00  0.00    +0.095 C 
BRANCH   6   7
ATOM      7  C   UNL     1       5.596  -5.684  22.001  0.00  0.00    +0.009 C 
BRANCH   7   8
ATOM      8  C   UNL     1       5.179  -6.374  23.303  0.00  0.00    +0.000 C 
BRANCH   8   9
ATOM      9  C   UNL     1       4.749  -5.342  24.348  0.00  0.00    +0.000 C 
BRANCH   9  10
ATOM     10  C   UNL     1       5.346  -5.652  25.721  0.00  0.00    -0.000 C 
BRANCH  10  11
ATOM     11  C   UNL     1       6.200  -4.488  26.222  0.00  0.00    -0.003 C 
ATOM     12  C   UNL     1       7.400  -4.980  27.014  0.00  0.00    +0.004 C 
ENDBRANCH  10  11
ENDBRANCH   9  10
ENDBRANCH   8   9
ENDBRANCH   7   8
ENDBRANCH   6   7
ENDBRANCH   3   6
ENDBRANCH   1   2
BRANCH   1  13
ATOM     13  C   UNL     1       8.937  -1.268  22.018  0.00  0.00    +0.170 C 
BRANCH  13  14
ATOM     14  C   UNL     1       9.169   0.221  22.336  0.00  0.00    -0.013 A 
ATOM     15  C   UNL     1      10.152   0.532  23.294  0.00  0.00    +0.010 A 
ATOM     16  C   UNL     1      10.234   1.801  23.875  0.00  0.00    +0.050 A 
ATOM     17  C   UNL     1       9.356   2.806  23.493  0.00  0.00    +0.162 A 
ATOM     18  O   UNL     1       9.442   3.976  24.195  0.00  0.00    -0.485 OA
ATOM     19  C   UNL     1       8.731   5.048  23.581  0.00  0.00    +0.270 C 
ATOM     20  C   UNL     1       7.414   4.600  22.961  0.00  0.00    +0.270 C 
ATOM     21  O   UNL     1       7.568   3.527  22.025  0.00  0.00    -0.485 OA
ATOM     22  C   UNL     1       8.427   2.560  22.484  0.00  0.00    +0.162 A 
ATOM     23  C   UNL     1       8.333   1.273  21.906  0.00  0.00    +0.055 A 
ENDBRANCH  13  14
BRANCH  13  24
ATOM     24  O   UNL     1      10.175  -1.842  21.576  0.00  0.00    -0.385 OA
ATOM     25  H   UNL     1      10.879  -1.515  22.162  0.00  0.00    +0.210 HD
ENDBRANCH  13  24
ENDBRANCH   1  13
BRANCH   1  26
ATOM     26  C   UNL     1       6.967  -1.578  23.780  0.00  0.00    +0.114 C 
BRANCH  26  27
ATOM     27  N   UNL     1       7.071  -1.106  25.178  0.00  0.00    -0.300 NA
ATOM     28  C   UNL     1       6.890   0.366  25.267  0.00  0.00    +0.084 C 
ATOM     29  C   UNL     1       7.624   0.797  26.542  0.00  0.00    +0.017 C 
ATOM     30  C   UNL     1       8.228  -0.487  27.071  0.00  0.00    +0.017 C 
ATOM     31  C   UNL     1       8.367  -1.331  25.815  0.00  0.00    +0.084 C 
ENDBRANCH  26  27
ENDBRANCH   1  26
TORSDOF 13
ENDMDL
MODEL 5
REMARK VINA RESULT:      -5.8      1.705      6.289
REMARK  Name = 
REMARK  14 active torsions:
REMARK  status: ('A' for Active; 'I' for Inactive)
REMARK    1  A    between atoms: C_2  and  C_3
REMARK    2  A    between atoms: C_2  and  N_9
REMARK    3  A    between atoms: C_2  and  C_19
REMARK    4  A    between atoms: C_3  and  N_4
REMARK    5  A    between atoms: C_10  and  O_11
REMARK    6  A    between atoms: C_10  and  C_12
REMARK    7  A    between atoms: C_12  and  C_13
REMARK    8  A    between atoms: C_13  and  C_14
REMARK    9  A    between atoms: C_14  and  C_15
REMARK   10  A    between atoms: C_15  and  C_16
REMARK   11  A    between atoms: C_16  and  C_17
REMARK   12  A    between atoms: C_17  and  C_18
REMARK   13  A    between atoms: C_19  and  O_21
REMARK   14  A    between atoms: C_19  and  C_22
REMARK                            x       y       z     vdW  Elec       q    Type
REMARK                         _______ _______ _______ _____ _____    ______ ____
ROOT
ATOM      1  C   UNL     1       8.651  -2.765  23.255  0.00  0.00    +0.155 C 
ENDROOT
BRANCH   1   2
ATOM      2  N   UNL     1       9.158  -1.385  23.254  0.00  0.00    -0.247 NA
ATOM      3  C   UNL     1       9.557  -0.736  22.241  0.00  0.00    +0.183 C 
BRANCH   3   4
ATOM      4  O   UNL     1       9.644  -1.223  20.992  0.00  0.00    -0.496 OA
ATOM      5  H   UNL     1       9.205  -0.655  20.347  0.00  0.00    +0.293 HD
ENDBRANCH   3   4
BRANCH   3   6
ATOM      6  C   UNL     1      10.011   0.688  22.371  0.00  0.00    +0.095 C 
BRANCH   6   7
ATOM      7  C   UNL     1      10.362   1.059  23.806  0.00  0.00    +0.009 C 
BRANCH   7   8
ATOM      8  C   UNL     1       9.474   2.172  24.369  0.00  0.00    +0.000 C 
BRANCH   8   9
ATOM      9  C   UNL     1       9.794   3.510  23.701  0.00  0.00    +0.000 C 
BRANCH   9  10
ATOM     10  C   UNL     1      11.289   3.653  23.417  0.00  0.00    -0.000 C 
BRANCH  10  11
ATOM     11  C   UNL     1      11.729   5.113  23.518  0.00  0.00    -0.003 C 
ATOM     12  C   UNL     1      13.147   5.303  23.005  0.00  0.00    +0.004 C 
ENDBRANCH  10  11
ENDBRANCH   9  10
ENDBRANCH   8   9
ENDBRANCH   7   8
ENDBRANCH   6   7
ENDBRANCH   3   6
ENDBRANCH   1   2
BRANCH   1  13
ATOM     13  C   UNL     1       8.801  -3.351  24.694  0.00  0.00    +0.170 C 
BRANCH  13  14
ATOM     14  C   UNL     1       7.567  -3.738  25.531  0.00  0.00    -0.013 A 
ATOM     15  C   UNL     1       6.935  -2.715  26.263  0.00  0.00    +0.010 A 
ATOM     16  C   UNL     1       6.014  -3.000  27.276  0.00  0.00    +0.050 A 
ATOM     17  C   UNL     1       5.674  -4.315  27.566  0.00  0.00    +0.162 A 
ATOM     18  O   UNL     1       4.853  -4.497  28.644  0.00  0.00    -0.485 OA
ATOM     19  C   UNL     1       4.315  -5.815  28.717  0.00  0.00    +0.270 C 
ATOM     20  C   UNL     1       5.319  -6.883  28.306  0.00  0.00    +0.270 C 
ATOM     21  O   UNL     1       5.876  -6.663  27.005  0.00  0.00    -0.485 OA
ATOM     22  C   UNL     1       6.213  -5.349  26.803  0.00  0.00    +0.162 A 
ATOM     23  C   UNL     1       7.155  -5.064  25.788  0.00  0.00    +0.055 A 
ENDBRANCH  13  14
BRANCH  13  24
ATOM     24  O   UNL     1       9.727  -4.447  24.706  0.00  0.00    -0.385 OA
ATOM     25  H   UNL     1      10.625  -4.074  24.701  0.00  0.00    +0.210 HD
ENDBRANCH  13  24
ENDBRANCH   1  13
BRANCH   1  26
ATOM     26  C   UNL     1       7.159  -2.633  22.726  0.00  0.00    +0.114 C 
BRANCH  26  27
ATOM     27  N   UNL     1       6.478  -3.770  22.072  0.00  0.00    -0.300 NA
ATOM     28  C   UNL     1       5.227  -4.135  22.786  0.00  0.00    +0.084 C 
ATOM     29  C   UNL     1       4.980  -5.613  22.463  0.00  0.00    +0.017 C 
ATOM     30  C   UNL     1       6.167  -6.005  21.608  0.00  0.00    +0.017 C 
ATOM     31  C   UNL     1       7.236  -5.020  22.050  0.00  0.00    +0.084 C 
ENDBRANCH  26  27
ENDBRANCH   1  26
TORSDOF 13
ENDMDL
MODEL 6
REMARK VINA RESULT:      -5.7      2.788      7.254
REMARK  Name = 
REMARK  14 active torsions:
REMARK  status: ('A' for Active; 'I' for Inactive)
REMARK    1  A    between atoms: C_2  and  C_3
REMARK    2  A    between atoms: C_2  and  N_9
REMARK    3  A    between atoms: C_2  and  C_19
REMARK    4  A    between atoms: C_3  and  N_4
REMARK    5  A    between atoms: C_10  and  O_11
REMARK    6  A    between atoms: C_10  and  C_12
REMARK    7  A    between atoms: C_12  and  C_13
REMARK    8  A    between atoms: C_13  and  C_14
REMARK    9  A    between atoms: C_14  and  C_15
REMARK   10  A    between atoms: C_15  and  C_16
REMARK   11  A    between atoms: C_16  and  C_17
REMARK   12  A    between atoms: C_17  and  C_18
REMARK   13  A    between atoms: C_19  and  O_21
REMARK   14  A    between atoms: C_19  and  C_22
REMARK                            x       y       z     vdW  Elec       q    Type
REMARK                         _______ _______ _______ _____ _____    ______ ____
ROOT
ATOM      1  C   UNL     1       7.837  -1.640  22.554  0.00  0.00    +0.155 C 
ENDROOT
BRANCH   1   2
ATOM      2  N   UNL     1       7.768  -1.169  23.945  0.00  0.00    -0.247 NA
ATOM      3  C   UNL     1       6.812  -0.521  24.468  0.00  0.00    +0.183 C 
BRANCH   3   4
ATOM      4  O   UNL     1       5.714  -0.097  23.819  0.00  0.00    -0.496 OA
ATOM      5  H   UNL     1       5.835  -0.090  22.862  0.00  0.00    +0.293 HD
ENDBRANCH   3   4
BRANCH   3   6
ATOM      6  C   UNL     1       6.847  -0.135  25.918  0.00  0.00    +0.095 C 
BRANCH   6   7
ATOM      7  C   UNL     1       6.977  -1.342  26.839  0.00  0.00    +0.009 C 
BRANCH   7   8
ATOM      8  C   UNL     1       5.815  -2.328  26.695  0.00  0.00    +0.000 C 
BRANCH   8   9
ATOM      9  C   UNL     1       6.335  -3.755  26.516  0.00  0.00    +0.000 C 
BRANCH   9  10
ATOM     10  C   UNL     1       7.861  -3.792  26.448  0.00  0.00    -0.000 C 
BRANCH  10  11
ATOM     11  C   UNL     1       8.359  -5.187  26.071  0.00  0.00    -0.003 C 
ATOM     12  C   UNL     1       9.756  -5.136  25.473  0.00  0.00    +0.004 C 
ENDBRANCH  10  11
ENDBRANCH   9  10
ENDBRANCH   8   9
ENDBRANCH   7   8
ENDBRANCH   6   7
ENDBRANCH   3   6
ENDBRANCH   1   2
BRANCH   1  13
ATOM     13  C   UNL     1       8.937  -0.824  21.805  0.00  0.00    +0.170 C 
BRANCH  13  14
ATOM     14  C   UNL     1       9.203   0.655  22.142  0.00  0.00    -0.013 A 
ATOM     15  C   UNL     1      10.296   0.941  22.981  0.00  0.00    +0.010 A 
ATOM     16  C   UNL     1      10.446   2.191  23.590  0.00  0.00    +0.050 A 
ATOM     17  C   UNL     1       9.524   3.202  23.354  0.00  0.00    +0.162 A 
ATOM     18  O   UNL     1       9.693   4.349  24.079  0.00  0.00    -0.485 OA
ATOM     19  C   UNL     1       8.909   5.435  23.593  0.00  0.00    +0.270 C 
ATOM     20  C   UNL     1       7.527   4.999  23.125  0.00  0.00    +0.270 C 
ATOM     21  O   UNL     1       7.567   3.959  22.142  0.00  0.00    -0.485 OA
ATOM     22  C   UNL     1       8.478   2.983  22.459  0.00  0.00    +0.162 A 
ATOM     23  C   UNL     1       8.317   1.716  21.854  0.00  0.00    +0.055 A 
ENDBRANCH  13  14
BRANCH  13  24
ATOM     24  O   UNL     1      10.187  -1.528  21.808  0.00  0.00    -0.385 OA
ATOM     25  H   UNL     1      10.553  -1.485  20.908  0.00  0.00    +0.210 HD
ENDBRANCH  13  24
ENDBRANCH   1  13
BRANCH   1  26
ATOM     26  C   UNL     1       8.117  -3.198  22.685  0.00  0.00    +0.114 C 
BRANCH  26  27
ATOM     27  N   UNL     1       7.137  -4.193  22.198  0.00  0.00    -0.300 NA
ATOM     28  C   UNL     1       5.797  -3.973  22.803  0.00  0.00    +0.084 C 
ATOM     29  C   UNL     1       5.096  -5.336  22.764  0.00  0.00    +0.017 C 
ATOM     30  C   UNL     1       6.134  -6.266  22.171  0.00  0.00    +0.017 C 
ATOM     31  C   UNL     1       7.441  -5.582  22.535  0.00  0.00    +0.084 C 
ENDBRANCH  26  27
ENDBRANCH   1  26
TORSDOF 13
ENDMDL
MODEL 7
REMARK VINA RESULT:      -5.6      2.028      6.179
REMARK  Name = 
REMARK  14 active torsions:
REMARK  status: ('A' for Active; 'I' for Inactive)
REMARK    1  A    between atoms: C_2  and  C_3
REMARK    2  A    between atoms: C_2  and  N_9
REMARK    3  A    between atoms: C_2  and  C_19
REMARK    4  A    between atoms: C_3  and  N_4
REMARK    5  A    between atoms: C_10  and  O_11
REMARK    6  A    between atoms: C_10  and  C_12
REMARK    7  A    between atoms: C_12  and  C_13
REMARK    8  A    between atoms: C_13  and  C_14
REMARK    9  A    between atoms: C_14  and  C_15
REMARK   10  A    between atoms: C_15  and  C_16
REMARK   11  A    between atoms: C_16  and  C_17
REMARK   12  A    between atoms: C_17  and  C_18
REMARK   13  A    between atoms: C_19  and  O_21
REMARK   14  A    between atoms: C_19  and  C_22
REMARK                            x       y       z     vdW  Elec       q    Type
REMARK                         _______ _______ _______ _____ _____    ______ ____
ROOT
ATOM      1  C   UNL     1       7.914  -2.038  23.567  0.00  0.00    +0.155 C 
ENDROOT
BRANCH   1   2
ATOM      2  N   UNL     1       8.386  -0.744  23.051  0.00  0.00    -0.247 NA
ATOM      3  C   UNL     1       9.225  -0.574  22.116  0.00  0.00    +0.183 C 
BRANCH   3   4
ATOM      4  O   UNL     1       9.879  -1.555  21.471  0.00  0.00    -0.496 OA
ATOM      5  H   UNL     1      10.769  -1.291  21.211  0.00  0.00    +0.293 HD
ENDBRANCH   3   4
BRANCH   3   6
ATOM      6  C   UNL     1       9.590   0.806  21.654  0.00  0.00    +0.095 C 
BRANCH   6   7
ATOM      7  C   UNL     1       8.367   1.667  21.366  0.00  0.00    +0.009 C 
BRANCH   7   8
ATOM      8  C   UNL     1       8.237   2.856  22.322  0.00  0.00    +0.000 C 
BRANCH   8   9
ATOM      9  C   UNL     1       9.334   2.816  23.388  0.00  0.00    +0.000 C 
BRANCH   9  10
ATOM     10  C   UNL     1       9.331   4.082  24.245  0.00  0.00    -0.000 C 
BRANCH  10  11
ATOM     11  C   UNL     1       8.616   5.227  23.528  0.00  0.00    -0.003 C 
ATOM     12  C   UNL     1       9.420   6.515  23.599  0.00  0.00    +0.004 C 
ENDBRANCH  10  11
ENDBRANCH   9  10
ENDBRANCH   8   9
ENDBRANCH   7   8
ENDBRANCH   6   7
ENDBRANCH   3   6
ENDBRANCH   1   2
BRANCH   1  13
ATOM     13  C   UNL     1       7.715  -1.917  25.111  0.00  0.00    +0.170 C 
BRANCH  13  14
ATOM     14  C   UNL     1       7.152  -3.088  25.937  0.00  0.00    -0.013 A 
ATOM     15  C   UNL     1       7.962  -4.231  26.076  0.00  0.00    +0.010 A 
ATOM     16  C   UNL     1       7.443  -5.446  26.534  0.00  0.00    +0.050 A 
ATOM     17  C   UNL     1       6.107  -5.548  26.896  0.00  0.00    +0.162 A 
ATOM     18  O   UNL     1       5.668  -6.800  27.224  0.00  0.00    -0.485 OA
ATOM     19  C   UNL     1       4.390  -6.795  27.855  0.00  0.00    +0.270 C 
ATOM     20  C   UNL     1       3.443  -5.764  27.254  0.00  0.00    +0.270 C 
ATOM     21  O   UNL     1       3.983  -4.438  27.251  0.00  0.00    -0.485 OA
ATOM     22  C   UNL     1       5.296  -4.414  26.855  0.00  0.00    +0.162 A 
ATOM     23  C   UNL     1       5.814  -3.189  26.379  0.00  0.00    +0.055 A 
ENDBRANCH  13  14
BRANCH  13  24
ATOM     24  O   UNL     1       8.911  -1.441  25.744  0.00  0.00    -0.385 OA
ATOM     25  H   UNL     1       9.546  -2.176  25.767  0.00  0.00    +0.210 HD
ENDBRANCH  13  24
ENDBRANCH   1  13
BRANCH   1  26
ATOM     26  C   UNL     1       6.595  -2.332  22.733  0.00  0.00    +0.114 C 
BRANCH  26  27
ATOM     27  N   UNL     1       6.279  -3.697  22.260  0.00  0.00    -0.300 NA
ATOM     28  C   UNL     1       5.093  -4.252  22.961  0.00  0.00    +0.084 C 
ATOM     29  C   UNL     1       5.248  -5.776  22.898  0.00  0.00    +0.017 C 
ATOM     30  C   UNL     1       6.572  -5.981  22.191  0.00  0.00    +0.017 C 
ATOM     31  C   UNL     1       7.319  -4.695  22.504  0.00  0.00    +0.084 C 
ENDBRANCH  26  27
ENDBRANCH   1  26
TORSDOF 13
ENDMDL
MODEL 8
REMARK VINA RESULT:      -5.6      2.994      5.221
REMARK  Name = 
REMARK  14 active torsions:
REMARK  status: ('A' for Active; 'I' for Inactive)
REMARK    1  A    between atoms: C_2  and  C_3
REMARK    2  A    between atoms: C_2  and  N_9
REMARK    3  A    between atoms: C_2  and  C_19
REMARK    4  A    between atoms: C_3  and  N_4
REMARK    5  A    between atoms: C_10  and  O_11
REMARK    6  A    between atoms: C_10  and  C_12
REMARK    7  A    between atoms: C_12  and  C_13
REMARK    8  A    between atoms: C_13  and  C_14
REMARK    9  A    between atoms: C_14  and  C_15
REMARK   10  A    between atoms: C_15  and  C_16
REMARK   11  A    between atoms: C_16  and  C_17
REMARK   12  A    between atoms: C_17  and  C_18
REMARK   13  A    between atoms: C_19  and  O_21
REMARK   14  A    between atoms: C_19  and  C_22
REMARK                            x       y       z     vdW  Elec       q    Type
REMARK                         _______ _______ _______ _____ _____    ______ ____
ROOT
ATOM      1  C   UNL     1       9.935   1.187  22.567  0.00  0.00    +0.155 C 
ENDROOT
BRANCH   1   2
ATOM      2  N   UNL     1       9.963  -0.084  23.305  0.00  0.00    -0.247 NA
ATOM      3  C   UNL     1      10.075  -1.240  22.797  0.00  0.00    +0.183 C 
BRANCH   3   4
ATOM      4  O   UNL     1      10.126  -1.510  21.482  0.00  0.00    -0.496 OA
ATOM      5  H   UNL     1      10.853  -2.103  21.258  0.00  0.00    +0.293 HD
ENDBRANCH   3   4
BRANCH   3   6
ATOM      6  C   UNL     1      10.133  -2.460  23.670  0.00  0.00    +0.095 C 
BRANCH   6   7
ATOM      7  C   UNL     1       9.064  -2.453  24.754  0.00  0.00    +0.009 C 
BRANCH   7   8
ATOM      8  C   UNL     1       8.846  -3.831  25.386  0.00  0.00    +0.000 C 
BRANCH   8   9
ATOM      9  C   UNL     1       8.266  -4.809  24.363  0.00  0.00    +0.000 C 
BRANCH   9  10
ATOM     10  C   UNL     1       6.777  -4.560  24.129  0.00  0.00    -0.000 C 
BRANCH  10  11
ATOM     11  C   UNL     1       6.436  -4.635  22.641  0.00  0.00    -0.003 C 
ATOM     12  C   UNL     1       6.301  -3.250  22.031  0.00  0.00    +0.004 C 
ENDBRANCH  10  11
ENDBRANCH   9  10
ENDBRANCH   8   9
ENDBRANCH   7   8
ENDBRANCH   6   7
ENDBRANCH   3   6
ENDBRANCH   1   2
BRANCH   1  13
ATOM     13  C   UNL     1       8.465   1.481  22.135  0.00  0.00    +0.170 C 
BRANCH  13  14
ATOM     14  C   UNL     1       7.297   1.341  23.129  0.00  0.00    -0.013 A 
ATOM     15  C   UNL     1       6.955   2.474  23.890  0.00  0.00    +0.010 A 
ATOM     16  C   UNL     1       6.133   2.381  25.017  0.00  0.00    +0.050 A 
ATOM     17  C   UNL     1       5.603   1.156  25.400  0.00  0.00    +0.162 A 
ATOM     18  O   UNL     1       4.905   1.146  26.575  0.00  0.00    -0.485 OA
ATOM     19  C   UNL     1       4.154  -0.051  26.766  0.00  0.00    +0.270 C 
ATOM     20  C   UNL     1       4.892  -1.291  26.281  0.00  0.00    +0.270 C 
ATOM     21  O   UNL     1       5.310  -1.200  24.914  0.00  0.00    -0.485 OA
ATOM     22  C   UNL     1       5.849   0.027  24.619  0.00  0.00    +0.162 A 
ATOM     23  C   UNL     1       6.691   0.117  23.488  0.00  0.00    +0.055 A 
ENDBRANCH  13  14
BRANCH  13  24
ATOM     24  O   UNL     1       8.367   2.758  21.489  0.00  0.00    -0.385 OA
ATOM     25  H   UNL     1       9.243   3.179  21.532  0.00  0.00    +0.210 HD
ENDBRANCH  13  24
ENDBRANCH   1  13
BRANCH   1  26
ATOM     26  C   UNL     1      10.570   2.237  23.576  0.00  0.00    +0.114 C 
BRANCH  26  27
ATOM     27  N   UNL     1      10.598   3.681  23.258  0.00  0.00    -0.300 NA
ATOM     28  C   UNL     1      11.975   4.229  23.351  0.00  0.00    +0.084 C 
ATOM     29  C   UNL     1      11.808   5.725  23.645  0.00  0.00    +0.017 C 
ATOM     30  C   UNL     1      10.308   5.912  23.750  0.00  0.00    +0.017 C 
ATOM     31  C   UNL     1       9.829   4.531  24.165  0.00  0.00    +0.084 C 
ENDBRANCH  26  27
ENDBRANCH   1  26
TORSDOF 13
ENDMDL
MODEL 9
REMARK VINA RESULT:      -5.5      2.438      4.771
REMARK  Name = 
REMARK  14 active torsions:
REMARK  status: ('A' for Active; 'I' for Inactive)
REMARK    1  A    between atoms: C_2  and  C_3
REMARK    2  A    between atoms: C_2  and  N_9
REMARK    3  A    between atoms: C_2  and  C_19
REMARK    4  A    between atoms: C_3  and  N_4
REMARK    5  A    between atoms: C_10  and  O_11
REMARK    6  A    between atoms: C_10  and  C_12
REMARK    7  A    between atoms: C_12  and  C_13
REMARK    8  A    between atoms: C_13  and  C_14
REMARK    9  A    between atoms: C_14  and  C_15
REMARK   10  A    between atoms: C_15  and  C_16
REMARK   11  A    between atoms: C_16  and  C_17
REMARK   12  A    between atoms: C_17  and  C_18
REMARK   13  A    between atoms: C_19  and  O_21
REMARK   14  A    between atoms: C_19  and  C_22
REMARK                            x       y       z     vdW  Elec       q    Type
REMARK                         _______ _______ _______ _____ _____    ______ ____
ROOT
ATOM      1  C   UNL     1       9.986  -0.068  24.828  0.00  0.00    +0.155 C 
ENDROOT
BRANCH   1   2
ATOM      2  N   UNL     1       8.633  -0.125  25.400  0.00  0.00    -0.247 NA
ATOM      3  C   UNL     1       8.346  -0.305  26.621  0.00  0.00    +0.183 C 
BRANCH   3   4
ATOM      4  O   UNL     1       9.234  -0.536  27.603  0.00  0.00    -0.496 OA
ATOM      5  H   UNL     1       9.599  -1.428  27.563  0.00  0.00    +0.293 HD
ENDBRANCH   3   4
BRANCH   3   6
ATOM      6  C   UNL     1       6.918  -0.299  27.083  0.00  0.00    +0.095 C 
BRANCH   6   7
ATOM      7  C   UNL     1       6.091  -1.401  26.434  0.00  0.00    +0.009 C 
BRANCH   7   8
ATOM      8  C   UNL     1       6.562  -2.806  26.819  0.00  0.00    +0.000 C 
BRANCH   8   9
ATOM      9  C   UNL     1       5.368  -3.724  27.086  0.00  0.00    +0.000 C 
BRANCH   9  10
ATOM     10  C   UNL     1       5.381  -4.945  26.166  0.00  0.00    -0.000 C 
BRANCH  10  11
ATOM     11  C   UNL     1       4.122  -4.993  25.301  0.00  0.00    -0.003 C 
ATOM     12  C   UNL     1       4.037  -3.790  24.376  0.00  0.00    +0.004 C 
ENDBRANCH  10  11
ENDBRANCH   9  10
ENDBRANCH   8   9
ENDBRANCH   7   8
ENDBRANCH   6   7
ENDBRANCH   3   6
ENDBRANCH   1   2
BRANCH   1  13
ATOM     13  C   UNL     1      10.148  -1.241  23.811  0.00  0.00    +0.170 C 
BRANCH  13  14
ATOM     14  C   UNL     1       9.107  -2.372  23.725  0.00  0.00    -0.013 A 
ATOM     15  C   UNL     1       9.313  -3.505  24.535  0.00  0.00    +0.010 A 
ATOM     16  C   UNL     1       8.616  -4.698  24.319  0.00  0.00    +0.050 A 
ATOM     17  C   UNL     1       7.670  -4.785  23.307  0.00  0.00    +0.162 A 
ATOM     18  O   UNL     1       7.124  -6.021  23.102  0.00  0.00    -0.485 OA
ATOM     19  C   UNL     1       5.972  -5.989  22.262  0.00  0.00    +0.270 C 
ATOM     20  C   UNL     1       6.106  -4.991  21.120  0.00  0.00    +0.270 C 
ATOM     21  O   UNL     1       6.415  -3.665  21.564  0.00  0.00    -0.485 OA
ATOM     22  C   UNL     1       7.377  -3.657  22.542  0.00  0.00    +0.162 A 
ATOM     23  C   UNL     1       8.090  -2.455  22.749  0.00  0.00    +0.055 A 
ENDBRANCH  13  14
BRANCH  13  24
ATOM     24  O   UNL     1      10.395  -0.742  22.489  0.00  0.00    -0.385 OA
ATOM     25  H   UNL     1       9.772  -1.181  21.886  0.00  0.00    +0.210 HD
ENDBRANCH  13  24
ENDBRANCH   1  13
BRANCH   1  26
ATOM     26  C   UNL     1      10.083   1.390  24.205  0.00  0.00    +0.114 C 
BRANCH  26  27
ATOM     27  N   UNL     1       8.873   2.214  23.997  0.00  0.00    -0.300 NA
ATOM     28  C   UNL     1       8.427   2.173  22.581  0.00  0.00    +0.084 C 
ATOM     29  C   UNL     1       7.648   3.474  22.353  0.00  0.00    +0.017 C 
ATOM     30  C   UNL     1       7.755   4.202  23.677  0.00  0.00    +0.017 C 
ATOM     31  C   UNL     1       9.040   3.642  24.263  0.00  0.00    +0.084 C 
ENDBRANCH  26  27
ENDBRANCH   1  26
TORSDOF 13
ENDMDL
