MODEL 1
REMARK VINA RESULT:      -7.3      0.000      0.000
REMARK  Name = 
REMARK  9 active torsions:
REMARK  status: ('A' for Active; 'I' for Inactive)
REMARK    1  A    between atoms: C_1  and  O_2
REMARK    2  A    between atoms: O_2  and  C_3
REMARK    3  A    between atoms: C_4  and  O_5
REMARK    4  A    between atoms: O_5  and  C_6
REMARK    5  A    between atoms: C_7  and  C_8
REMARK    6  A    between atoms: C_8  and  S_9
REMARK    7  A    between atoms: S_9  and  C_11
REMARK    8  A    between atoms: C_17  and  O_18
REMARK    9  A    between atoms: O_18  and  C_19
REMARK                            x       y       z     vdW  Elec       q    Type
REMARK                         _______ _______ _______ _____ _____    ______ ____
ROOT
ATOM      1  C   UNL     1       9.308  -2.065  24.148  0.00  0.00    +0.198 A 
ATOM      2  N   UNL     1       9.561  -1.003  24.984  0.00  0.00    -0.331 N 
ATOM      3  H   UNL     1       9.559  -1.054  25.994  0.00  0.00    +0.168 HD
ATOM      4  C   UNL     1       9.725   0.119  24.209  0.00  0.00    +0.070 A 
ATOM      5  C   UNL     1       9.918   1.473  24.504  0.00  0.00    +0.073 A 
ATOM      6  C   UNL     1      10.078   2.355  23.418  0.00  0.00    +0.129 A 
ATOM      7  C   UNL     1      10.031   1.889  22.101  0.00  0.00    +0.048 A 
ATOM      8  C   UNL     1       9.825   0.528  21.833  0.00  0.00    +0.033 A 
ATOM      9  C   UNL     1       9.646  -0.357  22.903  0.00  0.00    +0.090 A 
ATOM     10  N   UNL     1       9.377  -1.705  22.884  0.00  0.00    -0.220 NA
ENDROOT
BRANCH   1  11
ATOM     11  S   UNL     1       8.933  -3.671  24.700  0.00  0.00    +0.095 S 
ATOM     12  O   UNL     1      10.229  -4.424  24.663  0.00  0.00    -0.249 OA
BRANCH  11  13
ATOM     13  C   UNL     1       7.765  -4.127  23.396  0.00  0.00    +0.171 C 
BRANCH  13  18
ATOM     14  C   UNL     1       4.443  -6.010  23.773  0.00  0.00    +0.165 A 
ATOM     15  C   UNL     1       4.545  -6.316  25.123  0.00  0.00    +0.069 A 
ATOM     16  C   UNL     1       5.690  -5.942  25.783  0.00  0.00    +0.115 A 
ATOM     17  N   UNL     1       6.695  -5.263  25.195  0.00  0.00    -0.255 NA
ATOM     18  C   UNL     1       6.607  -4.966  23.859  0.00  0.00    +0.099 A 
ATOM     19  C   UNL     1       5.510  -5.371  23.089  0.00  0.00    +0.184 A 
BRANCH  14  21
ATOM     20  C   UNL     1       2.165  -5.533  23.302  0.00  0.00    +0.277 C 
ATOM     21  O   UNL     1       3.319  -6.330  23.038  0.00  0.00    -0.491 OA
ENDBRANCH  14  21
BRANCH  19  22
ATOM     22  O   UNL     1       5.293  -5.284  21.743  0.00  0.00    -0.490 OA
ATOM     23  C   UNL     1       6.136  -5.857  20.766  0.00  0.00    +0.277 C 
ENDBRANCH  19  22
ENDBRANCH  13  18
ENDBRANCH  11  13
ENDBRANCH   1  11
BRANCH   6  24
ATOM     24  O   UNL     1      10.240   3.669  23.773  0.00  0.00    -0.434 OA
BRANCH  24  25
ATOM     25  C   UNL     1      11.342   4.342  23.183  0.00  0.00    +0.541 C 
ATOM     26  F   UNL     1      12.470   3.719  23.608  0.00  0.00    -0.166 F 
ATOM     27  F   UNL     1      11.399   5.611  23.659  0.00  0.00    -0.166 F 
ENDBRANCH  24  25
ENDBRANCH   6  24
TORSDOF 7
ENDMDL
MODEL 2
REMARK VINA RESULT:      -7.1      2.028      2.278
REMARK  Name = 
REMARK  9 active torsions:
REMARK  status: ('A' for Active; 'I' for Inactive)
REMARK    1  A    between atoms: C_1  and  O_2
REMARK    2  A    between atoms: O_2  and  C_3
REMARK    3  A    between atoms: C_4  and  O_5
REMARK    4  A    between atoms: O_5  and  C_6
REMARK    5  A    between atoms: C_7  and  C_8
REMARK    6  A    between atoms: C_8  and  S_9
REMARK    7  A    between atoms: S_9  and  C_11
REMARK    8  A    between atoms: C_17  and  O_18
REMARK    9  A    between atoms: O_18  and  C_19
REMARK                            x       y       z     vdW  Elec       q    Type
REMARK                         _______ _______ _______ _____ _____    ______ ____
ROOT
ATOM      1  C   UNL     1       9.092  -3.024  24.464  0.00  0.00    +0.198 A 
ATOM      2  N   UNL     1       8.148  -2.027  24.546  0.00  0.00    -0.331 N 
ATOM      3  H   UNL     1       7.359  -2.034  25.178  0.00  0.00    +0.168 HD
ATOM      4  C   UNL     1       8.426  -1.096  23.574  0.00  0.00    +0.070 A 
ATOM      5  C   UNL     1       7.778   0.064  23.139  0.00  0.00    +0.073 A 
ATOM      6  C   UNL     1       8.392   0.800  22.109  0.00  0.00    +0.129 A 
ATOM      7  C   UNL     1       9.595   0.373  21.540  0.00  0.00    +0.048 A 
ATOM      8  C   UNL     1      10.219  -0.800  21.988  0.00  0.00    +0.033 A 
ATOM      9  C   UNL     1       9.609  -1.552  23.000  0.00  0.00    +0.090 A 
ATOM     10  N   UNL     1       9.999  -2.747  23.553  0.00  0.00    -0.220 NA
ENDROOT
BRANCH   1  11
ATOM     11  S   UNL     1       9.071  -4.466  25.436  0.00  0.00    +0.095 S 
ATOM     12  O   UNL     1       9.129  -5.608  24.465  0.00  0.00    -0.249 OA
BRANCH  11  13
ATOM     13  C   UNL     1       7.458  -4.230  26.216  0.00  0.00    +0.171 C 
BRANCH  13  18
ATOM     14  C   UNL     1       4.562  -5.670  24.151  0.00  0.00    +0.165 A 
ATOM     15  C   UNL     1       4.203  -6.700  25.009  0.00  0.00    +0.069 A 
ATOM     16  C   UNL     1       4.952  -6.878  26.148  0.00  0.00    +0.115 A 
ATOM     17  N   UNL     1       5.986  -6.083  26.486  0.00  0.00    -0.255 NA
ATOM     18  C   UNL     1       6.353  -5.070  25.637  0.00  0.00    +0.099 A 
ATOM     19  C   UNL     1       5.695  -4.858  24.421  0.00  0.00    +0.184 A 
BRANCH  14  21
ATOM     20  C   UNL     1       2.471  -5.766  23.029  0.00  0.00    +0.277 C 
ATOM     21  O   UNL     1       3.852  -5.406  22.997  0.00  0.00    -0.491 OA
ENDBRANCH  14  21
BRANCH  19  22
ATOM     22  O   UNL     1       5.980  -3.998  23.398  0.00  0.00    -0.490 OA
ATOM     23  C   UNL     1       6.683  -4.363  22.229  0.00  0.00    +0.277 C 
ENDBRANCH  19  22
ENDBRANCH  13  18
ENDBRANCH  11  13
ENDBRANCH   1  11
BRANCH   6  24
ATOM     24  O   UNL     1       7.695   1.912  21.712  0.00  0.00    -0.434 OA
BRANCH  24  25
ATOM     25  C   UNL     1       7.709   3.010  22.612  0.00  0.00    +0.541 C 
ATOM     26  F   UNL     1       7.320   4.108  21.917  0.00  0.00    -0.166 F 
ATOM     27  F   UNL     1       8.983   3.240  23.018  0.00  0.00    -0.166 F 
ENDBRANCH  24  25
ENDBRANCH   6  24
TORSDOF 7
ENDMDL
MODEL 3
REMARK VINA RESULT:      -7.1      1.629      2.420
REMARK  Name = 
REMARK  9 active torsions:
REMARK  status: ('A' for Active; 'I' for Inactive)
REMARK    1  A    between atoms: C_1  and  O_2
REMARK    2  A    between atoms: O_2  and  C_3
REMARK    3  A    between atoms: C_4  and  O_5
REMARK    4  A    between atoms: O_5  and  C_6
REMARK    5  A    between atoms: C_7  and  C_8
REMARK    6  A    between atoms: C_8  and  S_9
REMARK    7  A    between atoms: S_9  and  C_11
REMARK    8  A    between atoms: C_17  and  O_18
REMARK    9  A    between atoms: O_18  and  C_19
REMARK                            x       y       z     vdW  Elec       q    Type
REMARK                         _______ _______ _______ _____ _____    ______ ____
ROOT
ATOM      1  C   UNL     1       9.208  -2.818  24.579  0.00  0.00    +0.198 A 
ATOM      2  N   UNL     1       9.004  -1.580  25.141  0.00  0.00    -0.331 N 
ATOM      3  H   UNL     1       8.708  -1.423  26.094  0.00  0.00    +0.168 HD
ATOM      4  C   UNL     1       9.188  -0.634  24.161  0.00  0.00    +0.070 A 
ATOM      5  C   UNL     1       9.036   0.756  24.125  0.00  0.00    +0.073 A 
ATOM      6  C   UNL     1       9.354   1.411  22.920  0.00  0.00    +0.129 A 
ATOM      7  C   UNL     1       9.788   0.689  21.804  0.00  0.00    +0.048 A 
ATOM      8  C   UNL     1       9.920  -0.705  21.864  0.00  0.00    +0.033 A 
ATOM      9  C   UNL     1       9.591  -1.371  23.051  0.00  0.00    +0.090 A 
ATOM     10  N   UNL     1       9.588  -2.717  23.324  0.00  0.00    -0.220 NA
ENDROOT
BRANCH   1  11
ATOM     11  S   UNL     1       8.980  -4.320  25.426  0.00  0.00    +0.095 S 
ATOM     12  O   UNL     1       9.110  -5.394  24.387  0.00  0.00    -0.249 OA
BRANCH  11  13
ATOM     13  C   UNL     1       7.290  -4.039  26.003  0.00  0.00    +0.171 C 
BRANCH  13  18
ATOM     14  C   UNL     1       4.741  -6.408  24.386  0.00  0.00    +0.165 A 
ATOM     15  C   UNL     1       4.473  -5.661  23.249  0.00  0.00    +0.069 A 
ATOM     16  C   UNL     1       5.089  -4.438  23.123  0.00  0.00    +0.115 A 
ATOM     17  N   UNL     1       5.963  -3.954  24.027  0.00  0.00    -0.255 NA
ATOM     18  C   UNL     1       6.225  -4.683  25.158  0.00  0.00    +0.099 A 
ATOM     19  C   UNL     1       5.590  -5.904  25.406  0.00  0.00    +0.184 A 
BRANCH  14  21
ATOM     20  C   UNL     1       2.756  -7.693  24.611  0.00  0.00    +0.277 C 
ATOM     21  O   UNL     1       4.183  -7.656  24.584  0.00  0.00    -0.491 OA
ENDBRANCH  14  21
BRANCH  19  22
ATOM     22  O   UNL     1       5.619  -6.709  26.510  0.00  0.00    -0.490 OA
ATOM     23  C   UNL     1       4.943  -6.425  27.717  0.00  0.00    +0.277 C 
ENDBRANCH  19  22
ENDBRANCH  13  18
ENDBRANCH  11  13
ENDBRANCH   1  11
BRANCH   6  24
ATOM     24  O   UNL     1       9.161   2.768  22.942  0.00  0.00    -0.434 OA
BRANCH  24  25
ATOM     25  C   UNL     1      10.043   3.507  23.775  0.00  0.00    +0.541 C 
ATOM     26  F   UNL     1       9.815   4.824  23.536  0.00  0.00    -0.166 F 
ATOM     27  F   UNL     1      11.323   3.262  23.401  0.00  0.00    -0.166 F 
ENDBRANCH  24  25
ENDBRANCH   6  24
TORSDOF 7
ENDMDL
MODEL 4
REMARK VINA RESULT:      -7.0      1.835      2.390
REMARK  Name = 
REMARK  9 active torsions:
REMARK  status: ('A' for Active; 'I' for Inactive)
REMARK    1  A    between atoms: C_1  and  O_2
REMARK    2  A    between atoms: O_2  and  C_3
REMARK    3  A    between atoms: C_4  and  O_5
REMARK    4  A    between atoms: O_5  and  C_6
REMARK    5  A    between atoms: C_7  and  C_8
REMARK    6  A    between atoms: C_8  and  S_9
REMARK    7  A    between atoms: S_9  and  C_11
REMARK    8  A    between atoms: C_17  and  O_18
REMARK    9  A    between atoms: O_18  and  C_19
REMARK                            x       y       z     vdW  Elec       q    Type
REMARK                         _______ _______ _______ _____ _____    ______ ____
ROOT
ATOM      1  C   UNL     1       9.623  -0.341  24.022  0.00  0.00    +0.198 A 
ATOM      2  N   UNL     1      10.501   0.497  23.374  0.00  0.00    -0.331 N 
ATOM      3  H   UNL     1      11.286   0.187  22.818  0.00  0.00    +0.168 HD
ATOM      4  C   UNL     1      10.166   1.791  23.692  0.00  0.00    +0.070 A 
ATOM      5  C   UNL     1      10.739   3.033  23.400  0.00  0.00    +0.073 A 
ATOM      6  C   UNL     1      10.082   4.179  23.886  0.00  0.00    +0.129 A 
ATOM      7  C   UNL     1       8.912   4.069  24.641  0.00  0.00    +0.048 A 
ATOM      8  C   UNL     1       8.363   2.811  24.929  0.00  0.00    +0.033 A 
ATOM      9  C   UNL     1       9.017   1.662  24.467  0.00  0.00    +0.090 A 
ATOM     10  N   UNL     1       8.703   0.340  24.670  0.00  0.00    -0.220 NA
ENDROOT
BRANCH   1  11
ATOM     11  S   UNL     1       9.733  -2.077  23.993  0.00  0.00    +0.095 S 
ATOM     12  O   UNL     1      10.566  -2.408  22.791  0.00  0.00    -0.249 OA
BRANCH  11  13
ATOM     13  C   UNL     1       7.973  -2.445  23.807  0.00  0.00    +0.171 C 
BRANCH  13  18
ATOM     14  C   UNL     1       6.136  -5.501  25.226  0.00  0.00    +0.165 A 
ATOM     15  C   UNL     1       6.628  -5.440  26.522  0.00  0.00    +0.069 A 
ATOM     16  C   UNL     1       7.546  -4.460  26.816  0.00  0.00    +0.115 A 
ATOM     17  N   UNL     1       7.958  -3.540  25.922  0.00  0.00    -0.255 NA
ATOM     18  C   UNL     1       7.484  -3.600  24.637  0.00  0.00    +0.099 A 
ATOM     19  C   UNL     1       6.602  -4.606  24.227  0.00  0.00    +0.184 A 
BRANCH  14  21
ATOM     20  C   UNL     1       4.338  -6.902  25.893  0.00  0.00    +0.277 C 
ATOM     21  O   UNL     1       5.195  -6.439  24.849  0.00  0.00    -0.491 OA
ENDBRANCH  14  21
BRANCH  19  22
ATOM     22  O   UNL     1       6.119  -4.909  22.985  0.00  0.00    -0.490 OA
ATOM     23  C   UNL     1       6.893  -5.478  21.951  0.00  0.00    +0.277 C 
ENDBRANCH  19  22
ENDBRANCH  13  18
ENDBRANCH  11  13
ENDBRANCH   1  11
BRANCH   6  24
ATOM     24  O   UNL     1      10.707   5.362  23.587  0.00  0.00    -0.434 OA
BRANCH  24  25
ATOM     25  C   UNL     1      12.124   5.313  23.505  0.00  0.00    +0.541 C 
ATOM     26  F   UNL     1      12.610   6.249  24.360  0.00  0.00    -0.166 F 
ATOM     27  F   UNL     1      12.514   5.686  22.261  0.00  0.00    -0.166 F 
ENDBRANCH  24  25
ENDBRANCH   6  24
TORSDOF 7
ENDMDL
MODEL 5
REMARK VINA RESULT:      -6.8      3.122      3.761
REMARK  Name = 
REMARK  9 active torsions:
REMARK  status: ('A' for Active; 'I' for Inactive)
REMARK    1  A    between atoms: C_1  and  O_2
REMARK    2  A    between atoms: O_2  and  C_3
REMARK    3  A    between atoms: C_4  and  O_5
REMARK    4  A    between atoms: O_5  and  C_6
REMARK    5  A    between atoms: C_7  and  C_8
REMARK    6  A    between atoms: C_8  and  S_9
REMARK    7  A    between atoms: S_9  and  C_11
REMARK    8  A    between atoms: C_17  and  O_18
REMARK    9  A    between atoms: O_18  and  C_19
REMARK                            x       y       z     vdW  Elec       q    Type
REMARK                         _______ _______ _______ _____ _____    ______ ____
ROOT
ATOM      1  C   UNL     1       9.128  -0.071  22.625  0.00  0.00    +0.198 A 
ATOM      2  N   UNL     1      10.259   0.711  22.606  0.00  0.00    -0.331 N 
ATOM      3  H   UNL     1      11.187   0.374  22.388  0.00  0.00    +0.168 HD
ATOM      4  C   UNL     1       9.909   1.975  23.016  0.00  0.00    +0.070 A 
ATOM      5  C   UNL     1      10.639   3.142  23.266  0.00  0.00    +0.073 A 
ATOM      6  C   UNL     1       9.916   4.286  23.654  0.00  0.00    +0.129 A 
ATOM      7  C   UNL     1       8.525   4.243  23.795  0.00  0.00    +0.048 A 
ATOM      8  C   UNL     1       7.820   3.057  23.548  0.00  0.00    +0.033 A 
ATOM      9  C   UNL     1       8.529   1.907  23.179  0.00  0.00    +0.090 A 
ATOM     10  N   UNL     1       8.065   0.635  22.944  0.00  0.00    -0.220 NA
ENDROOT
BRANCH   1  11
ATOM     11  S   UNL     1       9.117  -1.775  22.280  0.00  0.00    +0.095 S 
ATOM     12  O   UNL     1       7.671  -2.168  22.229  0.00  0.00    -0.249 OA
BRANCH  11  13
ATOM     13  C   UNL     1       9.995  -2.344  23.755  0.00  0.00    +0.171 C 
BRANCH  13  18
ATOM     14  C   UNL     1       7.671  -3.919  26.370  0.00  0.00    +0.165 A 
ATOM     15  C   UNL     1       8.133  -5.224  26.281  0.00  0.00    +0.069 A 
ATOM     16  C   UNL     1       9.110  -5.498  25.354  0.00  0.00    +0.115 A 
ATOM     17  N   UNL     1       9.663  -4.560  24.562  0.00  0.00    -0.255 NA
ATOM     18  C   UNL     1       9.204  -3.270  24.636  0.00  0.00    +0.099 A 
ATOM     19  C   UNL     1       8.162  -2.912  25.499  0.00  0.00    +0.184 A 
BRANCH  14  21
ATOM     20  C   UNL     1       5.787  -4.578  27.658  0.00  0.00    +0.277 C 
ATOM     21  O   UNL     1       6.707  -3.551  27.287  0.00  0.00    -0.491 OA
ENDBRANCH  14  21
BRANCH  19  22
ATOM     22  O   UNL     1       7.489  -1.729  25.632  0.00  0.00    -0.490 OA
ATOM     23  C   UNL     1       7.986  -0.609  26.332  0.00  0.00    +0.277 C 
ENDBRANCH  19  22
ENDBRANCH  13  18
ENDBRANCH  11  13
ENDBRANCH   1  11
BRANCH   6  24
ATOM     24  O   UNL     1      10.690   5.388  23.908  0.00  0.00    -0.434 OA
BRANCH  24  25
ATOM     25  C   UNL     1      12.075   5.253  23.628  0.00  0.00    +0.541 C 
ATOM     26  F   UNL     1      12.749   5.952  24.577  0.00  0.00    -0.166 F 
ATOM     27  F   UNL     1      12.352   5.847  22.440  0.00  0.00    -0.166 F 
ENDBRANCH  24  25
ENDBRANCH   6  24
TORSDOF 7
ENDMDL
MODEL 6
REMARK VINA RESULT:      -6.8      2.291      3.311
REMARK  Name = 
REMARK  9 active torsions:
REMARK  status: ('A' for Active; 'I' for Inactive)
REMARK    1  A    between atoms: C_1  and  O_2
REMARK    2  A    between atoms: O_2  and  C_3
REMARK    3  A    between atoms: C_4  and  O_5
REMARK    4  A    between atoms: O_5  and  C_6
REMARK    5  A    between atoms: C_7  and  C_8
REMARK    6  A    between atoms: C_8  and  S_9
REMARK    7  A    between atoms: S_9  and  C_11
REMARK    8  A    between atoms: C_17  and  O_18
REMARK    9  A    between atoms: O_18  and  C_19
REMARK                            x       y       z     vdW  Elec       q    Type
REMARK                         _______ _______ _______ _____ _____    ______ ____
ROOT
ATOM      1  C   UNL     1       7.261  -2.669  22.399  0.00  0.00    +0.198 A 
ATOM      2  N   UNL     1       6.858  -1.715  23.305  0.00  0.00    -0.331 N 
ATOM      3  H   UNL     1       5.943  -1.681  23.733  0.00  0.00    +0.168 HD
ATOM      4  C   UNL     1       7.875  -0.801  23.441  0.00  0.00    +0.070 A 
ATOM      5  C   UNL     1       8.000   0.401  24.145  0.00  0.00    +0.073 A 
ATOM      6  C   UNL     1       9.237   1.069  24.069  0.00  0.00    +0.129 A 
ATOM      7  C   UNL     1      10.287   0.551  23.306  0.00  0.00    +0.048 A 
ATOM      8  C   UNL     1      10.131  -0.651  22.600  0.00  0.00    +0.033 A 
ATOM      9  C   UNL     1       8.900  -1.317  22.653  0.00  0.00    +0.090 A 
ATOM     10  N   UNL     1       8.500  -2.463  22.009  0.00  0.00    -0.220 NA
ENDROOT
BRANCH   1  11
ATOM     11  S   UNL     1       6.250  -3.968  21.839  0.00  0.00    +0.095 S 
ATOM     12  O   UNL     1       4.916  -3.750  22.488  0.00  0.00    -0.249 OA
BRANCH  11  13
ATOM     13  C   UNL     1       7.198  -5.348  22.523  0.00  0.00    +0.171 C 
BRANCH  13  18
ATOM     14  C   UNL     1       7.040  -4.942  26.335  0.00  0.00    +0.165 A 
ATOM     15  C   UNL     1       8.398  -4.778  26.571  0.00  0.00    +0.069 A 
ATOM     16  C   UNL     1       9.251  -4.865  25.497  0.00  0.00    +0.115 A 
ATOM     17  N   UNL     1       8.832  -5.063  24.232  0.00  0.00    -0.255 NA
ATOM     18  C   UNL     1       7.493  -5.236  23.993  0.00  0.00    +0.099 A 
ATOM     19  C   UNL     1       6.557  -5.236  25.033  0.00  0.00    +0.184 A 
BRANCH  14  21
ATOM     20  C   UNL     1       6.233  -5.824  28.388  0.00  0.00    +0.277 C 
ATOM     21  O   UNL     1       6.110  -4.849  27.352  0.00  0.00    -0.491 OA
ENDBRANCH  14  21
BRANCH  19  22
ATOM     22  O   UNL     1       5.218  -5.509  25.020  0.00  0.00    -0.490 OA
ATOM     23  C   UNL     1       4.673  -6.791  24.793  0.00  0.00    +0.277 C 
ENDBRANCH  19  22
ENDBRANCH  13  18
ENDBRANCH  11  13
ENDBRANCH   1  11
BRANCH   6  24
ATOM     24  O   UNL     1       9.287   2.252  24.760  0.00  0.00    -0.434 OA
BRANCH  24  25
ATOM     25  C   UNL     1       9.535   3.415  23.985  0.00  0.00    +0.541 C 
ATOM     26  F   UNL     1       9.249   4.489  24.764  0.00  0.00    -0.166 F 
ATOM     27  F   UNL     1       8.669   3.452  22.942  0.00  0.00    -0.166 F 
ENDBRANCH  24  25
ENDBRANCH   6  24
TORSDOF 7
ENDMDL
MODEL 7
REMARK VINA RESULT:      -6.7      2.128      3.374
REMARK  Name = 
REMARK  9 active torsions:
REMARK  status: ('A' for Active; 'I' for Inactive)
REMARK    1  A    between atoms: C_1  and  O_2
REMARK    2  A    between atoms: O_2  and  C_3
REMARK    3  A    between atoms: C_4  and  O_5
REMARK    4  A    between atoms: O_5  and  C_6
REMARK    5  A    between atoms: C_7  and  C_8
REMARK    6  A    between atoms: C_8  and  S_9
REMARK    7  A    between atoms: S_9  and  C_11
REMARK    8  A    between atoms: C_17  and  O_18
REMARK    9  A    between atoms: O_18  and  C_19
REMARK                            x       y       z     vdW  Elec       q    Type
REMARK                         _______ _______ _______ _____ _____    ______ ____
ROOT
ATOM      1  C   UNL     1       7.298  -2.609  22.634  0.00  0.00    +0.198 A 
ATOM      2  N   UNL     1       6.759  -1.435  23.107  0.00  0.00    -0.331 N 
ATOM      3  H   UNL     1       5.775  -1.205  23.084  0.00  0.00    +0.168 HD
ATOM      4  C   UNL     1       7.792  -0.629  23.519  0.00  0.00    +0.070 A 
ATOM      5  C   UNL     1       7.856   0.682  24.002  0.00  0.00    +0.073 A 
ATOM      6  C   UNL     1       9.123   1.178  24.362  0.00  0.00    +0.129 A 
ATOM      7  C   UNL     1      10.268   0.389  24.225  0.00  0.00    +0.048 A 
ATOM      8  C   UNL     1      10.178  -0.919  23.728  0.00  0.00    +0.033 A 
ATOM      9  C   UNL     1       8.926  -1.419  23.349  0.00  0.00    +0.090 A 
ATOM     10  N   UNL     1       8.604  -2.632  22.792  0.00  0.00    -0.220 NA
ENDROOT
BRANCH   1  11
ATOM     11  S   UNL     1       6.366  -3.887  21.910  0.00  0.00    +0.095 S 
ATOM     12  O   UNL     1       4.938  -3.592  22.260  0.00  0.00    -0.249 OA
BRANCH  11  13
ATOM     13  C   UNL     1       7.085  -5.277  22.815  0.00  0.00    +0.171 C 
BRANCH  13  18
ATOM     14  C   UNL     1       6.331  -5.684  26.555  0.00  0.00    +0.165 A 
ATOM     15  C   UNL     1       5.143  -6.391  26.439  0.00  0.00    +0.069 A 
ATOM     16  C   UNL     1       4.658  -6.629  25.175  0.00  0.00    +0.115 A 
ATOM     17  N   UNL     1       5.296  -6.245  24.053  0.00  0.00    -0.255 NA
ATOM     18  C   UNL     1       6.465  -5.537  24.160  0.00  0.00    +0.099 A 
ATOM     19  C   UNL     1       6.998  -5.185  25.405  0.00  0.00    +0.184 A 
BRANCH  14  21
ATOM     20  C   UNL     1       6.228  -5.985  28.909  0.00  0.00    +0.277 C 
ATOM     21  O   UNL     1       6.901  -5.418  27.784  0.00  0.00    -0.491 OA
ENDBRANCH  14  21
BRANCH  19  22
ATOM     22  O   UNL     1       8.065  -4.392  25.720  0.00  0.00    -0.490 OA
ATOM     23  C   UNL     1       9.413  -4.777  25.557  0.00  0.00    +0.277 C 
ENDBRANCH  19  22
ENDBRANCH  13  18
ENDBRANCH  11  13
ENDBRANCH   1  11
BRANCH   6  24
ATOM     24  O   UNL     1       9.120   2.476  24.804  0.00  0.00    -0.434 OA
BRANCH  24  25
ATOM     25  C   UNL     1       9.533   3.455  23.862  0.00  0.00    +0.541 C 
ATOM     26  F   UNL     1       9.025   3.095  22.656  0.00  0.00    -0.166 F 
ATOM     27  F   UNL     1      10.884   3.417  23.740  0.00  0.00    -0.166 F 
ENDBRANCH  24  25
ENDBRANCH   6  24
TORSDOF 7
ENDMDL
MODEL 8
REMARK VINA RESULT:      -6.6      4.147      8.875
REMARK  Name = 
REMARK  9 active torsions:
REMARK  status: ('A' for Active; 'I' for Inactive)
REMARK    1  A    between atoms: C_1  and  O_2
REMARK    2  A    between atoms: O_2  and  C_3
REMARK    3  A    between atoms: C_4  and  O_5
REMARK    4  A    between atoms: O_5  and  C_6
REMARK    5  A    between atoms: C_7  and  C_8
REMARK    6  A    between atoms: C_8  and  S_9
REMARK    7  A    between atoms: S_9  and  C_11
REMARK    8  A    between atoms: C_17  and  O_18
REMARK    9  A    between atoms: O_18  and  C_19
REMARK                            x       y       z     vdW  Elec       q    Type
REMARK                         _______ _______ _______ _____ _____    ______ ____
ROOT
ATOM      1  C   UNL     1       9.190  -1.462  23.540  0.00  0.00    +0.198 A 
ATOM      2  N   UNL     1       7.962  -1.288  22.945  0.00  0.00    -0.331 N 
ATOM      3  H   UNL     1       7.605  -0.403  22.613  0.00  0.00    +0.168 HD
ATOM      4  C   UNL     1       7.303  -2.493  22.972  0.00  0.00    +0.070 A 
ATOM      5  C   UNL     1       6.017  -2.895  22.595  0.00  0.00    +0.073 A 
ATOM      6  C   UNL     1       5.695  -4.257  22.746  0.00  0.00    +0.129 A 
ATOM      7  C   UNL     1       6.626  -5.162  23.266  0.00  0.00    +0.048 A 
ATOM      8  C   UNL     1       7.905  -4.730  23.646  0.00  0.00    +0.033 A 
ATOM      9  C   UNL     1       8.232  -3.374  23.519  0.00  0.00    +0.090 A 
ATOM     10  N   UNL     1       9.386  -2.719  23.873  0.00  0.00    -0.220 NA
ENDROOT
BRANCH   1  11
ATOM     11  S   UNL     1      10.326  -0.175  23.822  0.00  0.00    +0.095 S 
ATOM     12  O   UNL     1       9.848   0.521  25.062  0.00  0.00    -0.249 OA
BRANCH  11  13
ATOM     13  C   UNL     1      10.053   0.751  22.293  0.00  0.00    +0.171 C 
BRANCH  13  18
ATOM     14  C   UNL     1       8.474   4.082  23.360  0.00  0.00    +0.165 A 
ATOM     15  C   UNL     1       7.270   3.953  22.683  0.00  0.00    +0.069 A 
ATOM     16  C   UNL     1       7.088   2.838  21.901  0.00  0.00    +0.115 A 
ATOM     17  N   UNL     1       8.002   1.854  21.792  0.00  0.00    -0.255 NA
ATOM     18  C   UNL     1       9.199   1.979  22.449  0.00  0.00    +0.099 A 
ATOM     19  C   UNL     1       9.501   3.114  23.211  0.00  0.00    +0.184 A 
BRANCH  14  21
ATOM     20  C   UNL     1       8.734   6.436  23.544  0.00  0.00    +0.277 C 
ATOM     21  O   UNL     1       8.732   5.159  24.184  0.00  0.00    -0.491 OA
ENDBRANCH  14  21
BRANCH  19  22
ATOM     22  O   UNL     1      10.662   3.480  23.831  0.00  0.00    -0.490 OA
ATOM     23  C   UNL     1      11.732   4.135  23.185  0.00  0.00    +0.277 C 
ENDBRANCH  19  22
ENDBRANCH  13  18
ENDBRANCH  11  13
ENDBRANCH   1  11
BRANCH   6  24
ATOM     24  O   UNL     1       4.414  -4.582  22.382  0.00  0.00    -0.434 OA
BRANCH  24  25
ATOM     25  C   UNL     1       3.595  -5.125  23.406  0.00  0.00    +0.541 C 
ATOM     26  F   UNL     1       2.605  -5.829  22.802  0.00  0.00    -0.166 F 
ATOM     27  F   UNL     1       2.994  -4.114  24.082  0.00  0.00    -0.166 F 
ENDBRANCH  24  25
ENDBRANCH   6  24
TORSDOF 7
ENDMDL
MODEL 9
REMARK VINA RESULT:      -6.5      2.430      3.464
REMARK  Name = 
REMARK  9 active torsions:
REMARK  status: ('A' for Active; 'I' for Inactive)
REMARK    1  A    between atoms: C_1  and  O_2
REMARK    2  A    between atoms: O_2  and  C_3
REMARK    3  A    between atoms: C_4  and  O_5
REMARK    4  A    between atoms: O_5  and  C_6
REMARK    5  A    between atoms: C_7  and  C_8
REMARK    6  A    between atoms: C_8  and  S_9
REMARK    7  A    between atoms: S_9  and  C_11
REMARK    8  A    between atoms: C_17  and  O_18
REMARK    9  A    between atoms: O_18  and  C_19
REMARK                            x       y       z     vdW  Elec       q    Type
REMARK                         _______ _______ _______ _____ _____    ______ ____
ROOT
ATOM      1  C   UNL     1       9.573   0.469  23.098  0.00  0.00    +0.198 A 
ATOM      2  N   UNL     1       9.959   1.452  23.980  0.00  0.00    -0.331 N 
ATOM      3  H   UNL     1      10.646   1.331  24.710  0.00  0.00    +0.168 HD
ATOM      4  C   UNL     1       9.188   2.565  23.739  0.00  0.00    +0.070 A 
ATOM      5  C   UNL     1       9.077   3.812  24.362  0.00  0.00    +0.073 A 
ATOM      6  C   UNL     1       8.177   4.737  23.802  0.00  0.00    +0.129 A 
ATOM      7  C   UNL     1       7.417   4.408  22.676  0.00  0.00    +0.048 A 
ATOM      8  C   UNL     1       7.540   3.146  22.077  0.00  0.00    +0.033 A 
ATOM      9  C   UNL     1       8.419   2.210  22.635  0.00  0.00    +0.090 A 
ATOM     10  N   UNL     1       8.661   0.911  22.260  0.00  0.00    -0.220 NA
ENDROOT
BRANCH   1  11
ATOM     11  S   UNL     1      10.209  -1.150  23.108  0.00  0.00    +0.095 S 
ATOM     12  O   UNL     1       9.815  -1.746  21.789  0.00  0.00    -0.249 OA
BRANCH  11  13
ATOM     13  C   UNL     1       9.278  -1.785  24.523  0.00  0.00    +0.171 C 
BRANCH  13  18
ATOM     14  C   UNL     1       6.739  -4.436  23.408  0.00  0.00    +0.165 A 
ATOM     15  C   UNL     1       5.629  -3.610  23.299  0.00  0.00    +0.069 A 
ATOM     16  C   UNL     1       5.776  -2.288  23.643  0.00  0.00    +0.115 A 
ATOM     17  N   UNL     1       6.946  -1.752  24.041  0.00  0.00    -0.255 NA
ATOM     18  C   UNL     1       8.044  -2.564  24.162  0.00  0.00    +0.099 A 
ATOM     19  C   UNL     1       7.972  -3.938  23.903  0.00  0.00    +0.184 A 
BRANCH  14  21
ATOM     20  C   UNL     1       6.650  -6.044  21.662  0.00  0.00    +0.277 C 
ATOM     21  O   UNL     1       6.686  -5.772  23.063  0.00  0.00    -0.491 OA
ENDBRANCH  14  21
BRANCH  19  22
ATOM     22  O   UNL     1       8.903  -4.922  24.080  0.00  0.00    -0.490 OA
ATOM     23  C   UNL     1       9.419  -5.309  25.335  0.00  0.00    +0.277 C 
ENDBRANCH  19  22
ENDBRANCH  13  18
ENDBRANCH  11  13
ENDBRANCH   1  11
BRANCH   6  24
ATOM     24  O   UNL     1       8.097   5.929  24.473  0.00  0.00    -0.434 OA
BRANCH  24  25
ATOM     25  C   UNL     1       9.058   6.911  24.114  0.00  0.00    +0.541 C 
ATOM     26  F   UNL     1       9.562   6.559  22.904  0.00  0.00    -0.166 F 
ATOM     27  F   UNL     1      10.091   6.869  24.991  0.00  0.00    -0.166 F 
ENDBRANCH  24  25
ENDBRANCH   6  24
TORSDOF 7
ENDMDL
