MODEL 1
REMARK VINA RESULT:      -7.1      0.000      0.000
REMARK  Name = 
REMARK  8 active torsions:
REMARK  status: ('A' for Active; 'I' for Inactive)
REMARK    1  A    between atoms: C_1  and  C_2
REMARK    2  A    between atoms: C_2  and  C_26
REMARK    3  A    between atoms: C_3  and  S_4
REMARK    4  A    between atoms: S_4  and  N_7
REMARK    5  A    between atoms: N_7  and  C_8
REMARK    6  A    between atoms: N_12  and  C_13
REMARK    7  A    between atoms: C_13  and  C_14
REMARK    8  A    between atoms: C_13  and  C_16
REMARK                            x       y       z     vdW  Elec       q    Type
REMARK                         _______ _______ _______ _____ _____    ______ ____
ROOT
ATOM      1  C   UNL     1       9.028  -0.901  24.596  0.00  0.00    +0.164 C 
ATOM      2  C   UNL     1       9.322  -2.348  24.219  0.00  0.00    +0.235 C 
ATOM      3  O   UNL     1       9.919  -2.706  23.216  0.00  0.00    -0.274 OA
ATOM      4  N   UNL     1       8.830  -3.155  25.249  0.00  0.00    -0.289 N 
ATOM      5  C   UNL     1       8.011  -2.387  26.156  0.00  0.00    +0.110 C 
ATOM      6  C   UNL     1       7.768  -1.080  25.431  0.00  0.00    +0.049 C 
ENDROOT
BRANCH   1   7
ATOM      7  N   UNL     1       8.836  -0.028  23.406  0.00  0.00    -0.179 NA
ATOM      8  H   UNL     1       8.784  -0.619  22.571  0.00  0.00    +0.149 HD
BRANCH   7   9
ATOM      9  S   UNL     1      10.010   1.181  23.250  0.00  0.00    +0.053 S 
ATOM     10  O   UNL     1      11.119   0.782  24.087  0.00  0.00    -0.154 OA
ATOM     11  O   UNL     1      10.181   1.340  21.818  0.00  0.00    -0.154 OA
BRANCH   9  14
ATOM     12  C   UNL     1      11.387   3.954  23.283  0.00  0.00    +0.046 C 
ATOM     13  C   UNL     1       9.989   3.800  23.878  0.00  0.00    -0.018 C 
ATOM     14  C   UNL     1       9.322   2.623  23.901  0.00  0.00    +0.157 C 
BRANCH  13  15
ATOM     15  C   UNL     1       9.294   4.933  24.456  0.00  0.00    +0.018 A 
ATOM     16  S   UNL     1       7.951   4.680  25.520  0.00  0.00    -0.077 S 
ATOM     17  C   UNL     1       7.742   6.334  25.767  0.00  0.00    +0.079 A 
ATOM     18 CL   UNL     1       6.507   6.887  26.823  0.00  0.00    -0.076 Cl
ATOM     19  C   UNL     1       8.622   7.107  25.063  0.00  0.00    +0.028 A 
ATOM     20  C   UNL     1       9.513   6.299  24.294  0.00  0.00    +0.017 A 
ENDBRANCH  13  15
ENDBRANCH   9  14
ENDBRANCH   7   9
ENDBRANCH   1   7
BRANCH   4  21
ATOM     21  C   UNL     1       8.736  -4.619  25.193  0.00  0.00    +0.159 C 
ATOM     22  C   UNL     1      10.025  -5.295  25.655  0.00  0.00    +0.038 C 
BRANCH  21  23
ATOM     23  C   UNL     1       7.499  -5.178  25.944  0.00  0.00    +0.236 C 
ATOM     24  N   UNL     1       6.262  -5.137  25.310  0.00  0.00    -0.296 N 
ATOM     25  C   UNL     1       5.102  -5.742  25.972  0.00  0.00    +0.136 C 
ATOM     26  C   UNL     1       4.589  -6.938  25.159  0.00  0.00    +0.179 C 
ATOM     27  O   UNL     1       4.316  -6.566  23.795  0.00  0.00    -0.377 OA
ATOM     28  C   UNL     1       5.494  -6.040  23.162  0.00  0.00    +0.179 C 
ATOM     29  C   UNL     1       6.006  -4.798  23.908  0.00  0.00    +0.136 C 
ATOM     30  O   UNL     1       7.618  -5.672  27.069  0.00  0.00    -0.274 OA
ENDBRANCH  21  23
ENDBRANCH   4  21
TORSDOF 6
ENDMDL
MODEL 2
REMARK VINA RESULT:      -6.8      1.726      1.889
REMARK  Name = 
REMARK  8 active torsions:
REMARK  status: ('A' for Active; 'I' for Inactive)
REMARK    1  A    between atoms: C_1  and  C_2
REMARK    2  A    between atoms: C_2  and  C_26
REMARK    3  A    between atoms: C_3  and  S_4
REMARK    4  A    between atoms: S_4  and  N_7
REMARK    5  A    between atoms: N_7  and  C_8
REMARK    6  A    between atoms: N_12  and  C_13
REMARK    7  A    between atoms: C_13  and  C_14
REMARK    8  A    between atoms: C_13  and  C_16
REMARK                            x       y       z     vdW  Elec       q    Type
REMARK                         _______ _______ _______ _____ _____    ______ ____
ROOT
ATOM      1  C   UNL     1       9.159  -0.724  24.596  0.00  0.00    +0.164 C 
ATOM      2  C   UNL     1       9.338  -2.125  24.025  0.00  0.00    +0.235 C 
ATOM      3  O   UNL     1       9.695  -2.379  22.886  0.00  0.00    -0.274 OA
ATOM      4  N   UNL     1       9.066  -3.032  25.053  0.00  0.00    -0.289 N 
ATOM      5  C   UNL     1       8.478  -2.361  26.188  0.00  0.00    +0.110 C 
ATOM      6  C   UNL     1       8.107  -0.989  25.665  0.00  0.00    +0.049 C 
ENDROOT
BRANCH   1   7
ATOM      7  N   UNL     1       8.729   0.263  23.569  0.00  0.00    -0.179 NA
ATOM      8  H   UNL     1       8.528  -0.238  22.698  0.00  0.00    +0.149 HD
BRANCH   7   9
ATOM      9  S   UNL     1       9.832   1.523  23.329  0.00  0.00    +0.053 S 
ATOM     10  O   UNL     1      10.733   1.498  24.460  0.00  0.00    -0.154 OA
ATOM     11  O   UNL     1      10.330   1.322  21.981  0.00  0.00    -0.154 OA
BRANCH   9  14
ATOM     12  C   UNL     1       7.444   2.212  21.483  0.00  0.00    +0.046 C 
ATOM     13  C   UNL     1       7.892   3.216  22.541  0.00  0.00    -0.018 C 
ATOM     14  C   UNL     1       8.925   2.990  23.384  0.00  0.00    +0.157 C 
BRANCH  13  15
ATOM     15  C   UNL     1       7.213   4.488  22.698  0.00  0.00    +0.018 A 
ATOM     16  S   UNL     1       5.715   4.574  23.562  0.00  0.00    -0.077 S 
ATOM     17  C   UNL     1       5.605   6.243  23.350  0.00  0.00    +0.079 A 
ATOM     18 CL   UNL     1       4.278   7.100  24.022  0.00  0.00    -0.076 Cl
ATOM     19  C   UNL     1       6.637   6.771  22.626  0.00  0.00    +0.028 A 
ATOM     20  C   UNL     1       7.562   5.755  22.236  0.00  0.00    +0.017 A 
ENDBRANCH  13  15
ENDBRANCH   9  14
ENDBRANCH   7   9
ENDBRANCH   1   7
BRANCH   4  21
ATOM     21  C   UNL     1       8.935  -4.483  24.875  0.00  0.00    +0.159 C 
ATOM     22  C   UNL     1      10.029  -5.253  25.612  0.00  0.00    +0.038 C 
BRANCH  21  23
ATOM     23  C   UNL     1       7.524  -5.015  25.237  0.00  0.00    +0.236 C 
ATOM     24  N   UNL     1       6.478  -4.782  24.351  0.00  0.00    -0.296 N 
ATOM     25  C   UNL     1       5.159  -5.355  24.638  0.00  0.00    +0.136 C 
ATOM     26  C   UNL     1       4.782  -6.388  23.567  0.00  0.00    +0.179 C 
ATOM     27  O   UNL     1       4.866  -5.824  22.245  0.00  0.00    -0.377 OA
ATOM     28  C   UNL     1       6.191  -5.335  21.978  0.00  0.00    +0.179 C 
ATOM     29  C   UNL     1       6.584  -4.248  22.990  0.00  0.00    +0.136 C 
ATOM     30  O   UNL     1       7.341  -5.655  26.277  0.00  0.00    -0.274 OA
ENDBRANCH  21  23
ENDBRANCH   4  21
TORSDOF 6
ENDMDL
MODEL 3
REMARK VINA RESULT:      -6.8      4.134      9.727
REMARK  Name = 
REMARK  8 active torsions:
REMARK  status: ('A' for Active; 'I' for Inactive)
REMARK    1  A    between atoms: C_1  and  C_2
REMARK    2  A    between atoms: C_2  and  C_26
REMARK    3  A    between atoms: C_3  and  S_4
REMARK    4  A    between atoms: S_4  and  N_7
REMARK    5  A    between atoms: N_7  and  C_8
REMARK    6  A    between atoms: N_12  and  C_13
REMARK    7  A    between atoms: C_13  and  C_14
REMARK    8  A    between atoms: C_13  and  C_16
REMARK                            x       y       z     vdW  Elec       q    Type
REMARK                         _______ _______ _______ _____ _____    ______ ____
ROOT
ATOM      1  C   UNL     1       9.189  -0.697  23.254  0.00  0.00    +0.164 C 
ATOM      2  C   UNL     1       8.190   0.436  23.457  0.00  0.00    +0.235 C 
ATOM      3  O   UNL     1       7.130   0.340  24.055  0.00  0.00    -0.274 OA
ATOM      4  N   UNL     1       8.741   1.585  22.881  0.00  0.00    -0.289 N 
ATOM      5  C   UNL     1       9.905   1.256  22.093  0.00  0.00    +0.110 C 
ATOM      6  C   UNL     1       9.859  -0.252  21.962  0.00  0.00    +0.049 C 
ENDROOT
BRANCH   1   7
ATOM      7  N   UNL     1       8.532  -2.029  23.157  0.00  0.00    -0.179 NA
ATOM      8  H   UNL     1       7.540  -1.889  22.946  0.00  0.00    +0.149 HD
BRANCH   7   9
ATOM      9  S   UNL     1       8.755  -3.001  24.523  0.00  0.00    +0.053 S 
ATOM     10  O   UNL     1       9.911  -3.825  24.254  0.00  0.00    -0.154 OA
ATOM     11  O   UNL     1       8.750  -2.072  25.638  0.00  0.00    -0.154 OA
BRANCH   9  14
ATOM     12  C   UNL     1       8.217  -5.040  26.792  0.00  0.00    +0.046 C 
ATOM     13  C   UNL     1       7.205  -4.889  25.659  0.00  0.00    -0.018 C 
ATOM     14  C   UNL     1       7.368  -4.022  24.633  0.00  0.00    +0.157 C 
BRANCH  13  15
ATOM     15  C   UNL     1       5.994  -5.684  25.629  0.00  0.00    +0.018 A 
ATOM     16  S   UNL     1       5.146  -5.925  24.138  0.00  0.00    -0.077 S 
ATOM     17  C   UNL     1       3.981  -6.896  24.872  0.00  0.00    +0.079 A 
ATOM     18 CL   UNL     1       2.724  -7.581  23.925  0.00  0.00    -0.076 Cl
ATOM     19  C   UNL     1       4.163  -7.045  26.219  0.00  0.00    +0.028 A 
ATOM     20  C   UNL     1       5.320  -6.334  26.661  0.00  0.00    +0.017 A 
ENDBRANCH  13  15
ENDBRANCH   9  14
ENDBRANCH   7   9
ENDBRANCH   1   7
BRANCH   4  21
ATOM     21  C   UNL     1       8.022   2.849  22.686  0.00  0.00    +0.159 C 
ATOM     22  C   UNL     1       6.753   2.666  21.856  0.00  0.00    +0.038 C 
BRANCH  21  23
ATOM     23  C   UNL     1       7.729   3.593  24.015  0.00  0.00    +0.236 C 
ATOM     24  N   UNL     1       8.719   4.407  24.554  0.00  0.00    -0.296 N 
ATOM     25  C   UNL     1       8.424   5.185  25.761  0.00  0.00    +0.136 C 
ATOM     26  C   UNL     1       8.469   6.687  25.452  0.00  0.00    +0.179 C 
ATOM     27  O   UNL     1       9.721   7.059  24.846  0.00  0.00    -0.377 OA
ATOM     28  C   UNL     1       9.942   6.324  23.631  0.00  0.00    +0.179 C 
ATOM     29  C   UNL     1       9.969   4.812  23.905  0.00  0.00    +0.136 C 
ATOM     30  O   UNL     1       6.630   3.484  24.567  0.00  0.00    -0.274 OA
ENDBRANCH  21  23
ENDBRANCH   4  21
TORSDOF 6
ENDMDL
MODEL 4
REMARK VINA RESULT:      -6.7      4.070      9.507
REMARK  Name = 
REMARK  8 active torsions:
REMARK  status: ('A' for Active; 'I' for Inactive)
REMARK    1  A    between atoms: C_1  and  C_2
REMARK    2  A    between atoms: C_2  and  C_26
REMARK    3  A    between atoms: C_3  and  S_4
REMARK    4  A    between atoms: S_4  and  N_7
REMARK    5  A    between atoms: N_7  and  C_8
REMARK    6  A    between atoms: N_12  and  C_13
REMARK    7  A    between atoms: C_13  and  C_14
REMARK    8  A    between atoms: C_13  and  C_16
REMARK                            x       y       z     vdW  Elec       q    Type
REMARK                         _______ _______ _______ _____ _____    ______ ____
ROOT
ATOM      1  C   UNL     1       8.834  -1.638  24.278  0.00  0.00    +0.164 C 
ATOM      2  C   UNL     1       9.041  -0.804  23.020  0.00  0.00    +0.235 C 
ATOM      3  O   UNL     1       9.373  -1.244  21.931  0.00  0.00    -0.274 OA
ATOM      4  N   UNL     1       8.735   0.522  23.344  0.00  0.00    -0.289 N 
ATOM      5  C   UNL     1       8.585   0.680  24.770  0.00  0.00    +0.110 C 
ATOM      6  C   UNL     1       9.138  -0.604  25.353  0.00  0.00    +0.049 C 
ENDROOT
BRANCH   1   7
ATOM      7  N   UNL     1       9.723  -2.830  24.328  0.00  0.00    -0.179 NA
ATOM      8  H   UNL     1       9.973  -3.091  23.370  0.00  0.00    +0.149 HD
BRANCH   7   9
ATOM      9  S   UNL     1       9.070  -4.133  25.187  0.00  0.00    +0.053 S 
ATOM     10  O   UNL     1       9.919  -5.270  24.909  0.00  0.00    -0.154 OA
ATOM     11  O   UNL     1       8.916  -3.638  26.541  0.00  0.00    -0.154 OA
BRANCH   9  14
ATOM     12  C   UNL     1       6.792  -5.687  26.595  0.00  0.00    +0.046 C 
ATOM     13  C   UNL     1       6.566  -5.124  25.194  0.00  0.00    -0.018 C 
ATOM     14  C   UNL     1       7.511  -4.435  24.514  0.00  0.00    +0.157 C 
BRANCH  13  15
ATOM     15  C   UNL     1       5.299  -5.303  24.513  0.00  0.00    +0.018 A 
ATOM     16  S   UNL     1       4.458  -6.813  24.622  0.00  0.00    -0.077 S 
ATOM     17  C   UNL     1       3.179  -6.253  23.679  0.00  0.00    +0.079 A 
ATOM     18 CL   UNL     1       1.843  -7.282  23.357  0.00  0.00    -0.076 Cl
ATOM     19  C   UNL     1       3.345  -4.968  23.240  0.00  0.00    +0.028 A 
ATOM     20  C   UNL     1       4.578  -4.422  23.712  0.00  0.00    +0.017 A 
ENDBRANCH  13  15
ENDBRANCH   9  14
ENDBRANCH   7   9
ENDBRANCH   1   7
BRANCH   4  21
ATOM     21  C   UNL     1       8.989   1.675  22.472  0.00  0.00    +0.159 C 
ATOM     22  C   UNL     1       8.278   1.545  21.127  0.00  0.00    +0.038 C 
BRANCH  21  23
ATOM     23  C   UNL     1       8.673   3.033  23.153  0.00  0.00    +0.236 C 
ATOM     24  N   UNL     1       9.702   3.708  23.799  0.00  0.00    -0.296 N 
ATOM     25  C   UNL     1       9.438   5.033  24.369  0.00  0.00    +0.136 C 
ATOM     26  C   UNL     1      10.263   6.102  23.640  0.00  0.00    +0.179 C 
ATOM     27  O   UNL     1      11.664   5.769  23.637  0.00  0.00    -0.377 OA
ATOM     28  C   UNL     1      11.888   4.496  23.010  0.00  0.00    +0.179 C 
ATOM     29  C   UNL     1      11.130   3.382  23.750  0.00  0.00    +0.136 C 
ATOM     30  O   UNL     1       7.537   3.514  23.099  0.00  0.00    -0.274 OA
ENDBRANCH  21  23
ENDBRANCH   4  21
TORSDOF 6
ENDMDL
MODEL 5
REMARK VINA RESULT:      -6.7      4.336      9.218
REMARK  Name = 
REMARK  8 active torsions:
REMARK  status: ('A' for Active; 'I' for Inactive)
REMARK    1  A    between atoms: C_1  and  C_2
REMARK    2  A    between atoms: C_2  and  C_26
REMARK    3  A    between atoms: C_3  and  S_4
REMARK    4  A    between atoms: S_4  and  N_7
REMARK    5  A    between atoms: N_7  and  C_8
REMARK    6  A    between atoms: N_12  and  C_13
REMARK    7  A    between atoms: C_13  and  C_14
REMARK    8  A    between atoms: C_13  and  C_16
REMARK                            x       y       z     vdW  Elec       q    Type
REMARK                         _______ _______ _______ _____ _____    ______ ____
ROOT
ATOM      1  C   UNL     1       9.150  -2.280  24.499  0.00  0.00    +0.164 C 
ATOM      2  C   UNL     1       9.296  -0.774  24.681  0.00  0.00    +0.235 C 
ATOM      3  O   UNL     1       9.401  -0.203  25.755  0.00  0.00    -0.274 OA
ATOM      4  N   UNL     1       9.333  -0.202  23.406  0.00  0.00    -0.289 N 
ATOM      5  C   UNL     1       8.973  -1.170  22.398  0.00  0.00    +0.110 C 
ATOM      6  C   UNL     1       8.393  -2.331  23.180  0.00  0.00    +0.049 C 
ENDROOT
BRANCH   1   7
ATOM      7  N   UNL     1       8.427  -2.926  25.627  0.00  0.00    -0.179 NA
ATOM      8  H   UNL     1       8.736  -2.495  26.504  0.00  0.00    +0.149 HD
BRANCH   7   9
ATOM      9  S   UNL     1       8.583  -4.610  25.664  0.00  0.00    +0.053 S 
ATOM     10  O   UNL     1       9.724  -4.932  24.836  0.00  0.00    -0.154 OA
ATOM     11  O   UNL     1       8.572  -4.948  27.074  0.00  0.00    -0.154 OA
BRANCH   9  14
ATOM     12  C   UNL     1       5.676  -4.016  26.550  0.00  0.00    +0.046 C 
ATOM     13  C   UNL     1       5.927  -4.944  25.364  0.00  0.00    -0.018 C 
ATOM     14  C   UNL     1       7.166  -5.253  24.917  0.00  0.00    +0.157 C 
BRANCH  13  15
ATOM     15  C   UNL     1       4.825  -5.550  24.644  0.00  0.00    +0.018 A 
ATOM     16  S   UNL     1       4.163  -7.059  25.175  0.00  0.00    -0.077 S 
ATOM     17  C   UNL     1       3.006  -7.067  23.950  0.00  0.00    +0.079 A 
ATOM     18 CL   UNL     1       1.875  -8.355  23.854  0.00  0.00    -0.076 Cl
ATOM     19  C   UNL     1       3.090  -5.990  23.112  0.00  0.00    +0.028 A 
ATOM     20  C   UNL     1       4.151  -5.118  23.504  0.00  0.00    +0.017 A 
ENDBRANCH  13  15
ENDBRANCH   9  14
ENDBRANCH   7   9
ENDBRANCH   1   7
BRANCH   4  21
ATOM     21  C   UNL     1       9.271   1.239  23.134  0.00  0.00    +0.159 C 
ATOM     22  C   UNL     1      10.026   1.615  21.861  0.00  0.00    +0.038 C 
BRANCH  21  23
ATOM     23  C   UNL     1       7.823   1.794  23.121  0.00  0.00    +0.236 C 
ATOM     24  N   UNL     1       7.407   2.592  24.180  0.00  0.00    -0.296 N 
ATOM     25  C   UNL     1       6.071   3.195  24.138  0.00  0.00    +0.136 C 
ATOM     26  C   UNL     1       6.179   4.724  24.066  0.00  0.00    +0.179 C 
ATOM     27  O   UNL     1       6.986   5.243  25.139  0.00  0.00    -0.377 OA
ATOM     28  C   UNL     1       8.307   4.678  25.107  0.00  0.00    +0.179 C 
ATOM     29  C   UNL     1       8.251   3.149  25.242  0.00  0.00    +0.136 C 
ATOM     30  O   UNL     1       7.065   1.551  22.176  0.00  0.00    -0.274 OA
ENDBRANCH  21  23
ENDBRANCH   4  21
TORSDOF 6
ENDMDL
MODEL 6
REMARK VINA RESULT:      -6.6      2.321      3.838
REMARK  Name = 
REMARK  8 active torsions:
REMARK  status: ('A' for Active; 'I' for Inactive)
REMARK    1  A    between atoms: C_1  and  C_2
REMARK    2  A    between atoms: C_2  and  C_26
REMARK    3  A    between atoms: C_3  and  S_4
REMARK    4  A    between atoms: S_4  and  N_7
REMARK    5  A    between atoms: N_7  and  C_8
REMARK    6  A    between atoms: N_12  and  C_13
REMARK    7  A    between atoms: C_13  and  C_14
REMARK    8  A    between atoms: C_13  and  C_16
REMARK                            x       y       z     vdW  Elec       q    Type
REMARK                         _______ _______ _______ _____ _____    ______ ____
ROOT
ATOM      1  C   UNL     1       7.680  -3.742  23.224  0.00  0.00    +0.164 C 
ATOM      2  C   UNL     1       6.446  -3.478  24.076  0.00  0.00    +0.235 C 
ATOM      3  O   UNL     1       6.230  -2.453  24.703  0.00  0.00    -0.274 OA
ATOM      4  N   UNL     1       5.611  -4.594  23.958  0.00  0.00    -0.289 N 
ATOM      5  C   UNL     1       6.299  -5.681  23.303  0.00  0.00    +0.110 C 
ATOM      6  C   UNL     1       7.754  -5.260  23.298  0.00  0.00    +0.049 C 
ENDROOT
BRANCH   1   7
ATOM      7  N   UNL     1       8.895  -3.060  23.748  0.00  0.00    -0.179 NA
ATOM      8  H   UNL     1       8.721  -2.786  24.720  0.00  0.00    +0.149 HD
BRANCH   7   9
ATOM      9  S   UNL     1       9.403  -1.750  22.806  0.00  0.00    +0.053 S 
ATOM     10  O   UNL     1      10.843  -1.843  22.722  0.00  0.00    -0.154 OA
ATOM     11  O   UNL     1       8.585  -1.821  21.610  0.00  0.00    -0.154 OA
BRANCH   9  14
ATOM     12  C   UNL     1       9.898   1.147  21.829  0.00  0.00    +0.046 C 
ATOM     13  C   UNL     1       9.245   0.911  23.188  0.00  0.00    -0.018 C 
ATOM     14  C   UNL     1       8.996  -0.323  23.685  0.00  0.00    +0.157 C 
BRANCH  13  15
ATOM     15  C   UNL     1       8.850   2.024  24.029  0.00  0.00    +0.018 A 
ATOM     16  S   UNL     1       7.795   1.764  25.378  0.00  0.00    -0.077 S 
ATOM     17  C   UNL     1       7.843   3.388  25.823  0.00  0.00    +0.079 A 
ATOM     18 CL   UNL     1       6.982   3.917  27.210  0.00  0.00    -0.076 Cl
ATOM     19  C   UNL     1       8.602   4.161  24.989  0.00  0.00    +0.028 A 
ATOM     20  C   UNL     1       9.175   3.375  23.943  0.00  0.00    +0.017 A 
ENDBRANCH  13  15
ENDBRANCH   9  14
ENDBRANCH   7   9
ENDBRANCH   1   7
BRANCH   4  21
ATOM     21  C   UNL     1       4.412  -4.831  24.769  0.00  0.00    +0.159 C 
ATOM     22  C   UNL     1       3.159  -4.984  23.910  0.00  0.00    +0.038 C 
BRANCH  21  23
ATOM     23  C   UNL     1       4.571  -6.016  25.758  0.00  0.00    +0.236 C 
ATOM     24  N   UNL     1       5.158  -5.774  26.995  0.00  0.00    -0.296 N 
ATOM     25  C   UNL     1       5.234  -6.864  27.974  0.00  0.00    +0.136 C 
ATOM     26  C   UNL     1       4.379  -6.536  29.205  0.00  0.00    +0.179 C 
ATOM     27  O   UNL     1       4.740  -5.261  29.767  0.00  0.00    -0.377 OA
ATOM     28  C   UNL     1       4.588  -4.210  28.798  0.00  0.00    +0.179 C 
ATOM     29  C   UNL     1       5.479  -4.466  27.573  0.00  0.00    +0.136 C 
ATOM     30  O   UNL     1       4.160  -7.142  25.462  0.00  0.00    -0.274 OA
ENDBRANCH  21  23
ENDBRANCH   4  21
TORSDOF 6
ENDMDL
MODEL 7
REMARK VINA RESULT:      -6.6      4.247      9.835
REMARK  Name = 
REMARK  8 active torsions:
REMARK  status: ('A' for Active; 'I' for Inactive)
REMARK    1  A    between atoms: C_1  and  C_2
REMARK    2  A    between atoms: C_2  and  C_26
REMARK    3  A    between atoms: C_3  and  S_4
REMARK    4  A    between atoms: S_4  and  N_7
REMARK    5  A    between atoms: N_7  and  C_8
REMARK    6  A    between atoms: N_12  and  C_13
REMARK    7  A    between atoms: C_13  and  C_14
REMARK    8  A    between atoms: C_13  and  C_16
REMARK                            x       y       z     vdW  Elec       q    Type
REMARK                         _______ _______ _______ _____ _____    ______ ____
ROOT
ATOM      1  C   UNL     1       9.114  -1.431  23.581  0.00  0.00    +0.164 C 
ATOM      2  C   UNL     1       8.916  -0.036  24.158  0.00  0.00    +0.235 C 
ATOM      3  O   UNL     1       8.232   0.232  25.133  0.00  0.00    -0.274 OA
ATOM      4  N   UNL     1       9.694   0.844  23.398  0.00  0.00    -0.289 N 
ATOM      5  C   UNL     1      10.193   0.191  22.211  0.00  0.00    +0.110 C 
ATOM      6  C   UNL     1       9.399  -1.095  22.124  0.00  0.00    +0.049 C 
ENDROOT
BRANCH   1   7
ATOM      7  N   UNL     1       7.922  -2.303  23.769  0.00  0.00    -0.179 NA
ATOM      8  H   UNL     1       7.126  -1.715  24.033  0.00  0.00    +0.149 HD
BRANCH   7   9
ATOM      9  S   UNL     1       8.166  -3.564  24.871  0.00  0.00    +0.053 S 
ATOM     10  O   UNL     1       9.193  -4.408  24.303  0.00  0.00    -0.154 OA
ATOM     11  O   UNL     1       8.371  -2.902  26.145  0.00  0.00    -0.154 OA
BRANCH   9  14
ATOM     12  C   UNL     1       7.428  -5.642  27.045  0.00  0.00    +0.046 C 
ATOM     13  C   UNL     1       6.443  -5.351  25.915  0.00  0.00    -0.018 C 
ATOM     14  C   UNL     1       6.692  -4.459  24.929  0.00  0.00    +0.157 C 
BRANCH  13  15
ATOM     15  C   UNL     1       5.165  -6.031  25.845  0.00  0.00    +0.018 A 
ATOM     16  S   UNL     1       4.650  -6.767  24.364  0.00  0.00    -0.077 S 
ATOM     17  C   UNL     1       3.217  -7.326  25.055  0.00  0.00    +0.079 A 
ATOM     18 CL   UNL     1       2.119  -8.246  24.110  0.00  0.00    -0.076 Cl
ATOM     19  C   UNL     1       3.067  -6.969  26.366  0.00  0.00    +0.028 A 
ATOM     20  C   UNL     1       4.187  -6.209  26.821  0.00  0.00    +0.017 A 
ENDBRANCH  13  15
ENDBRANCH   9  14
ENDBRANCH   7   9
ENDBRANCH   1   7
BRANCH   4  21
ATOM     21  C   UNL     1       9.641   2.307  23.497  0.00  0.00    +0.159 C 
ATOM     22  C   UNL     1      10.939   2.961  23.031  0.00  0.00    +0.038 C 
BRANCH  21  23
ATOM     23  C   UNL     1       8.407   2.921  22.784  0.00  0.00    +0.236 C 
ATOM     24  N   UNL     1       7.925   4.147  23.227  0.00  0.00    -0.296 N 
ATOM     25  C   UNL     1       6.817   4.780  22.506  0.00  0.00    +0.136 C 
ATOM     26  C   UNL     1       7.281   6.093  21.860  0.00  0.00    +0.179 C 
ATOM     27  O   UNL     1       7.881   6.969  22.832  0.00  0.00    -0.377 OA
ATOM     28  C   UNL     1       9.004   6.338  23.468  0.00  0.00    +0.179 C 
ATOM     29  C   UNL     1       8.572   5.049  24.184  0.00  0.00    +0.136 C 
ATOM     30  O   UNL     1       7.883   2.343  21.827  0.00  0.00    -0.274 OA
ENDBRANCH  21  23
ENDBRANCH   4  21
TORSDOF 6
ENDMDL
MODEL 8
REMARK VINA RESULT:      -6.5      4.087      9.103
REMARK  Name = 
REMARK  8 active torsions:
REMARK  status: ('A' for Active; 'I' for Inactive)
REMARK    1  A    between atoms: C_1  and  C_2
REMARK    2  A    between atoms: C_2  and  C_26
REMARK    3  A    between atoms: C_3  and  S_4
REMARK    4  A    between atoms: S_4  and  N_7
REMARK    5  A    between atoms: N_7  and  C_8
REMARK    6  A    between atoms: N_12  and  C_13
REMARK    7  A    between atoms: C_13  and  C_14
REMARK    8  A    between atoms: C_13  and  C_16
REMARK                            x       y       z     vdW  Elec       q    Type
REMARK                         _______ _______ _______ _____ _____    ______ ____
ROOT
ATOM      1  C   UNL     1       8.034  -2.377  22.983  0.00  0.00    +0.164 C 
ATOM      2  C   UNL     1       8.085  -1.146  23.879  0.00  0.00    +0.235 C 
ATOM      3  O   UNL     1       7.178  -0.764  24.601  0.00  0.00    -0.274 OA
ATOM      4  N   UNL     1       9.361  -0.589  23.750  0.00  0.00    -0.289 N 
ATOM      5  C   UNL     1      10.078  -1.197  22.654  0.00  0.00    +0.110 C 
ATOM      6  C   UNL     1       9.021  -1.974  21.896  0.00  0.00    +0.049 C 
ENDROOT
BRANCH   1   7
ATOM      7  N   UNL     1       6.665  -2.655  22.470  0.00  0.00    -0.179 NA
ATOM      8  H   UNL     1       6.016  -1.981  22.888  0.00  0.00    +0.149 HD
BRANCH   7   9
ATOM      9  S   UNL     1       6.157  -4.251  22.712  0.00  0.00    +0.053 S 
ATOM     10  O   UNL     1       4.834  -4.349  22.138  0.00  0.00    -0.154 OA
ATOM     11  O   UNL     1       7.247  -5.062  22.205  0.00  0.00    -0.154 OA
BRANCH   9  14
ATOM     12  C   UNL     1       4.858  -6.697  24.097  0.00  0.00    +0.046 C 
ATOM     13  C   UNL     1       5.448  -5.575  24.948  0.00  0.00    -0.018 C 
ATOM     14  C   UNL     1       6.031  -4.475  24.418  0.00  0.00    +0.157 C 
BRANCH  13  15
ATOM     15  C   UNL     1       5.413  -5.638  26.395  0.00  0.00    +0.018 A 
ATOM     16  S   UNL     1       3.901  -5.810  27.222  0.00  0.00    -0.077 S 
ATOM     17  C   UNL     1       4.647  -5.839  28.733  0.00  0.00    +0.079 A 
ATOM     18 CL   UNL     1       3.696  -6.032  30.149  0.00  0.00    -0.076 Cl
ATOM     19  C   UNL     1       6.005  -5.698  28.675  0.00  0.00    +0.028 A 
ATOM     20  C   UNL     1       6.449  -5.568  27.323  0.00  0.00    +0.017 A 
ENDBRANCH  13  15
ENDBRANCH   9  14
ENDBRANCH   7   9
ENDBRANCH   1   7
BRANCH   4  21
ATOM     21  C   UNL     1       9.765   0.713  24.293  0.00  0.00    +0.159 C 
ATOM     22  C   UNL     1      11.247   0.748  24.660  0.00  0.00    +0.038 C 
BRANCH  21  23
ATOM     23  C   UNL     1       9.378   1.902  23.375  0.00  0.00    +0.236 C 
ATOM     24  N   UNL     1       8.302   2.702  23.741  0.00  0.00    -0.296 N 
ATOM     25  C   UNL     1       7.981   3.881  22.930  0.00  0.00    +0.136 C 
ATOM     26  C   UNL     1       8.191   5.163  23.746  0.00  0.00    +0.179 C 
ATOM     27  O   UNL     1       7.452   5.124  24.981  0.00  0.00    -0.377 OA
ATOM     28  C   UNL     1       7.842   3.993  25.777  0.00  0.00    +0.179 C 
ATOM     29  C   UNL     1       7.588   2.680  25.021  0.00  0.00    +0.136 C 
ATOM     30  O   UNL     1      10.030   2.145  22.355  0.00  0.00    -0.274 OA
ENDBRANCH  21  23
ENDBRANCH   4  21
TORSDOF 6
ENDMDL
MODEL 9
REMARK VINA RESULT:      -6.5      2.559      3.878
REMARK  Name = 
REMARK  8 active torsions:
REMARK  status: ('A' for Active; 'I' for Inactive)
REMARK    1  A    between atoms: C_1  and  C_2
REMARK    2  A    between atoms: C_2  and  C_26
REMARK    3  A    between atoms: C_3  and  S_4
REMARK    4  A    between atoms: S_4  and  N_7
REMARK    5  A    between atoms: N_7  and  C_8
REMARK    6  A    between atoms: N_12  and  C_13
REMARK    7  A    between atoms: C_13  and  C_14
REMARK    8  A    between atoms: C_13  and  C_16
REMARK                            x       y       z     vdW  Elec       q    Type
REMARK                         _______ _______ _______ _____ _____    ______ ____
ROOT
ATOM      1  C   UNL     1       8.326  -3.697  24.327  0.00  0.00    +0.164 C 
ATOM      2  C   UNL     1       6.828  -3.888  24.523  0.00  0.00    +0.235 C 
ATOM      3  O   UNL     1       5.963  -3.122  24.130  0.00  0.00    -0.274 OA
ATOM      4  N   UNL     1       6.646  -5.109  25.182  0.00  0.00    -0.289 N 
ATOM      5  C   UNL     1       7.906  -5.624  25.663  0.00  0.00    +0.110 C 
ATOM      6  C   UNL     1       8.867  -4.461  25.527  0.00  0.00    +0.049 C 
ENDROOT
BRANCH   1   7
ATOM      7  N   UNL     1       8.723  -2.263  24.306  0.00  0.00    -0.179 NA
ATOM      8  H   UNL     1       7.976  -1.711  24.739  0.00  0.00    +0.149 HD
BRANCH   7   9
ATOM      9  S   UNL     1       9.119  -1.687  22.765  0.00  0.00    +0.053 S 
ATOM     10  O   UNL     1      10.543  -1.878  22.612  0.00  0.00    -0.154 OA
ATOM     11  O   UNL     1       8.183  -2.348  21.875  0.00  0.00    -0.154 OA
BRANCH   9  14
ATOM     12  C   UNL     1      10.302   0.347  24.778  0.00  0.00    +0.046 C 
ATOM     13  C   UNL     1       9.349   0.833  23.688  0.00  0.00    -0.018 C 
ATOM     14  C   UNL     1       8.792   0.007  22.773  0.00  0.00    +0.157 C 
BRANCH  13  15
ATOM     15  C   UNL     1       8.992   2.233  23.579  0.00  0.00    +0.018 A 
ATOM     16  S   UNL     1       7.968   2.772  22.291  0.00  0.00    -0.077 S 
ATOM     17  C   UNL     1       7.995   4.366  22.838  0.00  0.00    +0.079 A 
ATOM     18 CL   UNL     1       7.101   5.569  22.001  0.00  0.00    -0.076 Cl
ATOM     19  C   UNL     1       8.769   4.549  23.950  0.00  0.00    +0.028 A 
ATOM     20  C   UNL     1       9.357   3.318  24.372  0.00  0.00    +0.017 A 
ENDBRANCH  13  15
ENDBRANCH   9  14
ENDBRANCH   7   9
ENDBRANCH   1   7
BRANCH   4  21
ATOM     21  C   UNL     1       5.370  -5.580  25.733  0.00  0.00    +0.159 C 
ATOM     22  C   UNL     1       4.779  -6.724  24.912  0.00  0.00    +0.038 C 
BRANCH  21  23
ATOM     23  C   UNL     1       5.456  -5.945  27.238  0.00  0.00    +0.236 C 
ATOM     24  N   UNL     1       5.447  -4.915  28.173  0.00  0.00    -0.296 N 
ATOM     25  C   UNL     1       5.437  -5.249  29.601  0.00  0.00    +0.136 C 
ATOM     26  C   UNL     1       4.128  -4.781  30.249  0.00  0.00    +0.179 C 
ATOM     27  O   UNL     1       3.896  -3.380  30.006  0.00  0.00    -0.377 OA
ATOM     28  C   UNL     1       3.845  -3.105  28.597  0.00  0.00    +0.179 C 
ATOM     29  C   UNL     1       5.165  -3.500  27.916  0.00  0.00    +0.136 C 
ATOM     30  O   UNL     1       5.504  -7.125  27.597  0.00  0.00    -0.274 OA
ENDBRANCH  21  23
ENDBRANCH   4  21
TORSDOF 6
ENDMDL
