MODEL 1
REMARK VINA RESULT:      -7.2      0.000      0.000
REMARK  Name = 
REMARK  9 active torsions:
REMARK  status: ('A' for Active; 'I' for Inactive)
REMARK    1  A    between atoms: C_2  and  C_4
REMARK    2  A    between atoms: C_6  and  O_7
REMARK    3  A    between atoms: O_7  and  C_8
REMARK    4  A    between atoms: C_11  and  C_13
REMARK    5  A    between atoms: C_13  and  O_14
REMARK    6  A    between atoms: C_15  and  O_17
REMARK    7  A    between atoms: C_18  and  O_20
REMARK    8  A    between atoms: C_21  and  O_23
REMARK    9  A    between atoms: C_25  and  N_27
REMARK                            x       y       z     vdW  Elec       q    Type
REMARK                         _______ _______ _______ _____ _____    ______ ____
ROOT
ATOM      1  O   UNL     1       7.389  -1.142  22.787  0.00  0.00    -0.461 OA
ENDROOT
BRANCH   1   6
ATOM      2  C   UNL     1       8.393  -4.250  24.543  0.00  0.00    +0.046 A 
ATOM      3  C   UNL     1       7.838  -5.194  23.672  0.00  0.00    +0.097 A 
ATOM      4  C   UNL     1       7.134  -4.749  22.544  0.00  0.00    +0.277 A 
ATOM      5  C   UNL     1       6.995  -3.383  22.278  0.00  0.00    +0.130 A 
ATOM      6  C   UNL     1       7.580  -2.448  23.133  0.00  0.00    +0.131 A 
ATOM      7  C   UNL     1       8.264  -2.880  24.271  0.00  0.00    +0.059 A 
BRANCH   2  11
ATOM      8  N   UNL     1      10.200  -5.506  25.589  0.00  0.00    -0.325 N 
ATOM      9  H   UNL     1      10.375  -6.023  24.736  0.00  0.00    +0.145 HD
ATOM     10  H   UNL     1      10.649  -5.850  26.428  0.00  0.00    +0.145 HD
ATOM     11  C   UNL     1       9.152  -4.653  25.756  0.00  0.00    +0.242 C 
ATOM     12  O   UNL     1       8.826  -4.251  26.866  0.00  0.00    -0.270 OA
ENDBRANCH   2  11
BRANCH   4  13
ATOM     13  N   UNL     1       6.541  -5.733  21.628  0.00  0.00    +0.080 N 
ATOM     14  O   UNL     1       6.594  -6.926  21.961  0.00  0.00    +0.041 OA
ATOM     15  O   UNL     1       6.021  -5.315  20.585  0.00  0.00    -0.576 OA
ENDBRANCH   4  13
ENDBRANCH   1   6
BRANCH   1  16
ATOM     16  C   UNL     1       8.353  -0.197  23.279  0.00  0.00    +0.339 C 
ATOM     17  C   UNL     1       8.975   0.514  22.057  0.00  0.00    +0.214 C 
ATOM     18  C   UNL     1       9.928   1.617  22.545  0.00  0.00    +0.180 C 
ATOM     19  C   UNL     1       9.218   2.554  23.528  0.00  0.00    +0.177 C 
ATOM     20  C   UNL     1       8.595   1.737  24.666  0.00  0.00    +0.179 C 
ATOM     21  O   UNL     1       7.705   0.738  24.148  0.00  0.00    -0.331 OA
BRANCH  17  22
ATOM     22  O   UNL     1       9.669  -0.445  21.234  0.00  0.00    -0.383 OA
ATOM     23  H   UNL     1      10.177  -1.047  21.803  0.00  0.00    +0.210 HD
ENDBRANCH  17  22
BRANCH  18  24
ATOM     24  O   UNL     1      10.438   2.370  21.439  0.00  0.00    -0.386 OA
ATOM     25  H   UNL     1      10.440   1.769  20.668  0.00  0.00    +0.210 HD
ENDBRANCH  18  24
BRANCH  19  26
ATOM     26  O   UNL     1      10.159   3.524  23.998  0.00  0.00    -0.386 OA
ATOM     27  H   UNL     1       9.695   4.360  24.185  0.00  0.00    +0.210 HD
ENDBRANCH  19  26
BRANCH  20  28
ATOM     28  C   UNL     1       7.787   2.635  25.610  0.00  0.00    +0.190 C 
BRANCH  28  29
ATOM     29  O   UNL     1       7.609   1.973  26.861  0.00  0.00    -0.392 OA
ATOM     30  H   UNL     1       8.268   1.253  26.881  0.00  0.00    +0.210 HD
ENDBRANCH  28  29
ENDBRANCH  20  28
ENDBRANCH   1  16
TORSDOF 9
ENDMDL
MODEL 2
REMARK VINA RESULT:      -7.0      1.517      1.648
REMARK  Name = 
REMARK  9 active torsions:
REMARK  status: ('A' for Active; 'I' for Inactive)
REMARK    1  A    between atoms: C_2  and  C_4
REMARK    2  A    between atoms: C_6  and  O_7
REMARK    3  A    between atoms: O_7  and  C_8
REMARK    4  A    between atoms: C_11  and  C_13
REMARK    5  A    between atoms: C_13  and  O_14
REMARK    6  A    between atoms: C_15  and  O_17
REMARK    7  A    between atoms: C_18  and  O_20
REMARK    8  A    between atoms: C_21  and  O_23
REMARK    9  A    between atoms: C_25  and  N_27
REMARK                            x       y       z     vdW  Elec       q    Type
REMARK                         _______ _______ _______ _____ _____    ______ ____
ROOT
ATOM      1  O   UNL     1       7.693  -1.902  22.218  0.00  0.00    -0.461 OA
ENDROOT
BRANCH   1   6
ATOM      2  C   UNL     1       8.075  -4.515  24.822  0.00  0.00    +0.046 A 
ATOM      3  C   UNL     1       6.904  -5.243  24.587  0.00  0.00    +0.097 A 
ATOM      4  C   UNL     1       6.025  -4.817  23.580  0.00  0.00    +0.277 A 
ATOM      5  C   UNL     1       6.315  -3.688  22.807  0.00  0.00    +0.130 A 
ATOM      6  C   UNL     1       7.502  -2.986  23.024  0.00  0.00    +0.131 A 
ATOM      7  C   UNL     1       8.372  -3.390  24.039  0.00  0.00    +0.059 A 
BRANCH   2  11
ATOM      8  N   UNL     1      10.098  -5.694  25.496  0.00  0.00    -0.325 N 
ATOM      9  H   UNL     1      10.154  -6.170  24.604  0.00  0.00    +0.145 HD
ATOM     10  H   UNL     1      10.700  -6.038  26.232  0.00  0.00    +0.145 HD
ATOM     11  C   UNL     1       9.048  -4.912  25.872  0.00  0.00    +0.242 C 
ATOM     12  O   UNL     1       8.894  -4.567  27.038  0.00  0.00    -0.270 OA
ENDBRANCH   2  11
BRANCH   4  13
ATOM     13  N   UNL     1       4.790  -5.572  23.333  0.00  0.00    +0.080 N 
ATOM     14  O   UNL     1       3.901  -5.011  22.676  0.00  0.00    +0.041 OA
ATOM     15  O   UNL     1       4.711  -6.720  23.789  0.00  0.00    -0.576 OA
ENDBRANCH   4  13
ENDBRANCH   1   6
BRANCH   1  16
ATOM     16  C   UNL     1       8.184  -0.709  22.848  0.00  0.00    +0.339 C 
ATOM     17  C   UNL     1       9.056   0.040  21.816  0.00  0.00    +0.214 C 
ATOM     18  C   UNL     1       9.506   1.383  22.413  0.00  0.00    +0.180 C 
ATOM     19  C   UNL     1       8.302   2.183  22.921  0.00  0.00    +0.177 C 
ATOM     20  C   UNL     1       7.482   1.327  23.893  0.00  0.00    +0.179 C 
ATOM     21  O   UNL     1       7.079   0.097  23.273  0.00  0.00    -0.331 OA
BRANCH  17  22
ATOM     22  O   UNL     1      10.190  -0.773  21.454  0.00  0.00    -0.383 OA
ATOM     23  H   UNL     1       9.882  -1.661  21.208  0.00  0.00    +0.210 HD
ENDBRANCH  17  22
BRANCH  18  24
ATOM     24  O   UNL     1      10.224   2.152  21.442  0.00  0.00    -0.386 OA
ATOM     25  H   UNL     1      10.482   2.987  21.882  0.00  0.00    +0.210 HD
ENDBRANCH  18  24
BRANCH  19  26
ATOM     26  O   UNL     1       8.775   3.394  23.520  0.00  0.00    -0.386 OA
ATOM     27  H   UNL     1       8.022   3.883  23.897  0.00  0.00    +0.210 HD
ENDBRANCH  19  26
BRANCH  20  28
ATOM     28  C   UNL     1       6.212   2.061  24.338  0.00  0.00    +0.190 C 
BRANCH  28  29
ATOM     29  O   UNL     1       5.097   1.175  24.257  0.00  0.00    -0.392 OA
ATOM     30  H   UNL     1       5.378   0.348  24.692  0.00  0.00    +0.210 HD
ENDBRANCH  28  29
ENDBRANCH  20  28
ENDBRANCH   1  16
TORSDOF 9
ENDMDL
MODEL 3
REMARK VINA RESULT:      -6.9      1.968      3.609
REMARK  Name = 
REMARK  9 active torsions:
REMARK  status: ('A' for Active; 'I' for Inactive)
REMARK    1  A    between atoms: C_2  and  C_4
REMARK    2  A    between atoms: C_6  and  O_7
REMARK    3  A    between atoms: O_7  and  C_8
REMARK    4  A    between atoms: C_11  and  C_13
REMARK    5  A    between atoms: C_13  and  O_14
REMARK    6  A    between atoms: C_15  and  O_17
REMARK    7  A    between atoms: C_18  and  O_20
REMARK    8  A    between atoms: C_21  and  O_23
REMARK    9  A    between atoms: C_25  and  N_27
REMARK                            x       y       z     vdW  Elec       q    Type
REMARK                         _______ _______ _______ _____ _____    ______ ____
ROOT
ATOM      1  O   UNL     1       9.737  -2.886  24.038  0.00  0.00    -0.461 OA
ENDROOT
BRANCH   1   6
ATOM      2  C   UNL     1       6.741  -4.819  23.019  0.00  0.00    +0.046 A 
ATOM      3  C   UNL     1       6.389  -5.366  24.257  0.00  0.00    +0.097 A 
ATOM      4  C   UNL     1       7.182  -5.080  25.379  0.00  0.00    +0.277 A 
ATOM      5  C   UNL     1       8.303  -4.250  25.271  0.00  0.00    +0.130 A 
ATOM      6  C   UNL     1       8.628  -3.681  24.039  0.00  0.00    +0.131 A 
ATOM      7  C   UNL     1       7.858  -3.977  22.912  0.00  0.00    +0.059 A 
BRANCH   2  11
ATOM      8  N   UNL     1       5.614  -6.374  21.518  0.00  0.00    -0.325 N 
ATOM      9  H   UNL     1       6.029  -7.171  21.984  0.00  0.00    +0.145 HD
ATOM     10  H   UNL     1       5.157  -6.553  20.634  0.00  0.00    +0.145 HD
ATOM     11  C   UNL     1       5.944  -5.081  21.791  0.00  0.00    +0.242 C 
ATOM     12  O   UNL     1       5.622  -4.167  21.042  0.00  0.00    -0.270 OA
ENDBRANCH   2  11
BRANCH   4  13
ATOM     13  N   UNL     1       6.824  -5.656  26.682  0.00  0.00    +0.080 N 
ATOM     14  O   UNL     1       5.856  -6.429  26.718  0.00  0.00    +0.041 OA
ATOM     15  O   UNL     1       7.511  -5.341  27.662  0.00  0.00    -0.576 OA
ENDBRANCH   4  13
ENDBRANCH   1   6
BRANCH   1  16
ATOM     16  C   UNL     1       9.517  -1.473  23.907  0.00  0.00    +0.339 C 
ATOM     17  C   UNL     1       9.497  -1.142  22.399  0.00  0.00    +0.214 C 
ATOM     18  C   UNL     1       9.146   0.343  22.212  0.00  0.00    +0.180 C 
ATOM     19  C   UNL     1       7.852   0.695  22.954  0.00  0.00    +0.177 C 
ATOM     20  C   UNL     1       7.966   0.275  24.424  0.00  0.00    +0.179 C 
ATOM     21  O   UNL     1       8.277  -1.122  24.532  0.00  0.00    -0.331 OA
BRANCH  17  22
ATOM     22  O   UNL     1      10.777  -1.451  21.813  0.00  0.00    -0.383 OA
ATOM     23  H   UNL     1      11.466  -0.928  22.254  0.00  0.00    +0.210 HD
ENDBRANCH  17  22
BRANCH  18  24
ATOM     24  O   UNL     1       9.009   0.659  20.822  0.00  0.00    -0.386 OA
ATOM     25  H   UNL     1       8.830  -0.184  20.360  0.00  0.00    +0.210 HD
ENDBRANCH  18  24
BRANCH  19  26
ATOM     26  O   UNL     1       7.601   2.096  22.800  0.00  0.00    -0.386 OA
ATOM     27  H   UNL     1       7.811   2.363  21.887  0.00  0.00    +0.210 HD
ENDBRANCH  19  26
BRANCH  20  28
ATOM     28  C   UNL     1       6.649   0.516  25.170  0.00  0.00    +0.190 C 
BRANCH  28  29
ATOM     29  O   UNL     1       5.562   0.462  24.246  0.00  0.00    -0.392 OA
ATOM     30  H   UNL     1       4.752   0.589  24.776  0.00  0.00    +0.210 HD
ENDBRANCH  28  29
ENDBRANCH  20  28
ENDBRANCH   1  16
TORSDOF 9
ENDMDL
MODEL 4
REMARK VINA RESULT:      -6.9      2.000      3.057
REMARK  Name = 
REMARK  9 active torsions:
REMARK  status: ('A' for Active; 'I' for Inactive)
REMARK    1  A    between atoms: C_2  and  C_4
REMARK    2  A    between atoms: C_6  and  O_7
REMARK    3  A    between atoms: O_7  and  C_8
REMARK    4  A    between atoms: C_11  and  C_13
REMARK    5  A    between atoms: C_13  and  O_14
REMARK    6  A    between atoms: C_15  and  O_17
REMARK    7  A    between atoms: C_18  and  O_20
REMARK    8  A    between atoms: C_21  and  O_23
REMARK    9  A    between atoms: C_25  and  N_27
REMARK                            x       y       z     vdW  Elec       q    Type
REMARK                         _______ _______ _______ _____ _____    ______ ____
ROOT
ATOM      1  O   UNL     1       6.134  -1.003  24.823  0.00  0.00    -0.461 OA
ENDROOT
BRANCH   1   6
ATOM      2  C   UNL     1       7.042  -4.498  25.668  0.00  0.00    +0.046 A 
ATOM      3  C   UNL     1       6.331  -5.167  24.667  0.00  0.00    +0.097 A 
ATOM      4  C   UNL     1       5.560  -4.421  23.762  0.00  0.00    +0.277 A 
ATOM      5  C   UNL     1       5.509  -3.026  23.845  0.00  0.00    +0.130 A 
ATOM      6  C   UNL     1       6.249  -2.363  24.826  0.00  0.00    +0.131 A 
ATOM      7  C   UNL     1       7.001  -3.098  25.744  0.00  0.00    +0.059 A 
BRANCH   2  11
ATOM      8  N   UNL     1       9.213  -5.324  26.405  0.00  0.00    -0.325 N 
ATOM      9  H   UNL     1       9.635  -5.101  25.512  0.00  0.00    +0.145 HD
ATOM     10  H   UNL     1       9.757  -5.902  27.031  0.00  0.00    +0.145 HD
ATOM     11  C   UNL     1       7.878  -5.227  26.657  0.00  0.00    +0.242 C 
ATOM     12  O   UNL     1       7.377  -5.743  27.648  0.00  0.00    -0.270 OA
ENDBRANCH   2  11
BRANCH   4  13
ATOM     13  N   UNL     1       4.804  -5.117  22.713  0.00  0.00    +0.080 N 
ATOM     14  O   UNL     1       3.586  -5.266  22.891  0.00  0.00    +0.041 OA
ATOM     15  O   UNL     1       5.423  -5.508  21.715  0.00  0.00    -0.576 OA
ENDBRANCH   4  13
ENDBRANCH   1   6
BRANCH   1  16
ATOM     16  C   UNL     1       6.640  -0.316  23.668  0.00  0.00    +0.339 C 
ATOM     17  C   UNL     1       6.434   1.197  23.896  0.00  0.00    +0.214 C 
ATOM     18  C   UNL     1       7.070   1.976  22.733  0.00  0.00    +0.180 C 
ATOM     19  C   UNL     1       8.530   1.560  22.534  0.00  0.00    +0.177 C 
ATOM     20  C   UNL     1       8.620   0.038  22.371  0.00  0.00    +0.179 C 
ATOM     21  O   UNL     1       8.027  -0.630  23.494  0.00  0.00    -0.331 OA
BRANCH  17  22
ATOM     22  O   UNL     1       5.026   1.487  24.008  0.00  0.00    -0.383 OA
ATOM     23  H   UNL     1       4.567   0.710  24.368  0.00  0.00    +0.210 HD
ENDBRANCH  17  22
BRANCH  18  24
ATOM     24  O   UNL     1       6.994   3.386  22.968  0.00  0.00    -0.386 OA
ATOM     25  H   UNL     1       7.114   3.516  23.930  0.00  0.00    +0.210 HD
ENDBRANCH  18  24
BRANCH  19  26
ATOM     26  O   UNL     1       9.059   2.266  21.406  0.00  0.00    -0.386 OA
ATOM     27  H   UNL     1       8.340   2.451  20.775  0.00  0.00    +0.210 HD
ENDBRANCH  19  26
BRANCH  20  28
ATOM     28  C   UNL     1      10.079  -0.420  22.276  0.00  0.00    +0.190 C 
BRANCH  28  29
ATOM     29  O   UNL     1      10.161  -1.581  21.450  0.00  0.00    -0.392 OA
ATOM     30  H   UNL     1       9.352  -2.097  21.630  0.00  0.00    +0.210 HD
ENDBRANCH  28  29
ENDBRANCH  20  28
ENDBRANCH   1  16
TORSDOF 9
ENDMDL
MODEL 5
REMARK VINA RESULT:      -6.9      1.383      3.082
REMARK  Name = 
REMARK  9 active torsions:
REMARK  status: ('A' for Active; 'I' for Inactive)
REMARK    1  A    between atoms: C_2  and  C_4
REMARK    2  A    between atoms: C_6  and  O_7
REMARK    3  A    between atoms: O_7  and  C_8
REMARK    4  A    between atoms: C_11  and  C_13
REMARK    5  A    between atoms: C_13  and  O_14
REMARK    6  A    between atoms: C_15  and  O_17
REMARK    7  A    between atoms: C_18  and  O_20
REMARK    8  A    between atoms: C_21  and  O_23
REMARK    9  A    between atoms: C_25  and  N_27
REMARK                            x       y       z     vdW  Elec       q    Type
REMARK                         _______ _______ _______ _____ _____    ______ ____
ROOT
ATOM      1  O   UNL     1       7.260  -1.417  22.352  0.00  0.00    -0.461 OA
ENDROOT
BRANCH   1   6
ATOM      2  C   UNL     1       5.912  -4.677  23.497  0.00  0.00    +0.046 A 
ATOM      3  C   UNL     1       6.939  -5.055  24.368  0.00  0.00    +0.097 A 
ATOM      4  C   UNL     1       8.049  -4.212  24.521  0.00  0.00    +0.277 A 
ATOM      5  C   UNL     1       8.130  -3.001  23.825  0.00  0.00    +0.130 A 
ATOM      6  C   UNL     1       7.086  -2.614  22.983  0.00  0.00    +0.131 A 
ATOM      7  C   UNL     1       5.987  -3.457  22.808  0.00  0.00    +0.059 A 
BRANCH   2  11
ATOM      8  N   UNL     1       4.811  -6.849  23.581  0.00  0.00    -0.325 N 
ATOM      9  H   UNL     1       5.691  -7.322  23.745  0.00  0.00    +0.145 HD
ATOM     10  H   UNL     1       4.019  -7.434  23.346  0.00  0.00    +0.145 HD
ATOM     11  C   UNL     1       4.707  -5.523  23.289  0.00  0.00    +0.242 C 
ATOM     12  O   UNL     1       3.670  -5.045  22.847  0.00  0.00    -0.270 OA
ENDBRANCH   2  11
BRANCH   4  13
ATOM     13  N   UNL     1       9.135  -4.606  25.428  0.00  0.00    +0.080 N 
ATOM     14  O   UNL     1      10.211  -4.947  24.915  0.00  0.00    +0.041 OA
ATOM     15  O   UNL     1       8.915  -4.569  26.646  0.00  0.00    -0.576 OA
ENDBRANCH   4  13
ENDBRANCH   1   6
BRANCH   1  16
ATOM     16  C   UNL     1       8.103  -0.459  23.009  0.00  0.00    +0.339 C 
ATOM     17  C   UNL     1       8.869   0.317  21.915  0.00  0.00    +0.214 C 
ATOM     18  C   UNL     1       9.696   1.434  22.572  0.00  0.00    +0.180 C 
ATOM     19  C   UNL     1       8.814   2.310  23.467  0.00  0.00    +0.177 C 
ATOM     20  C   UNL     1       8.064   1.432  24.476  0.00  0.00    +0.179 C 
ATOM     21  O   UNL     1       7.299   0.422  23.802  0.00  0.00    -0.331 OA
BRANCH  17  22
ATOM     22  O   UNL     1       9.712  -0.588  21.174  0.00  0.00    -0.383 OA
ATOM     23  H   UNL     1      10.118  -1.222  21.788  0.00  0.00    +0.210 HD
ENDBRANCH  17  22
BRANCH  18  24
ATOM     24  O   UNL     1      10.332   2.244  21.576  0.00  0.00    -0.386 OA
ATOM     25  H   UNL     1       9.893   2.039  20.727  0.00  0.00    +0.210 HD
ENDBRANCH  18  24
BRANCH  19  26
ATOM     26  O   UNL     1       9.638   3.295  24.101  0.00  0.00    -0.386 OA
ATOM     27  H   UNL     1      10.575   3.088  23.932  0.00  0.00    +0.210 HD
ENDBRANCH  19  26
BRANCH  20  28
ATOM     28  C   UNL     1       7.092   2.267  25.317  0.00  0.00    +0.190 C 
BRANCH  28  29
ATOM     29  O   UNL     1       7.789   2.838  26.424  0.00  0.00    -0.392 OA
ATOM     30  H   UNL     1       8.205   3.654  26.088  0.00  0.00    +0.210 HD
ENDBRANCH  28  29
ENDBRANCH  20  28
ENDBRANCH   1  16
TORSDOF 9
ENDMDL
MODEL 6
REMARK VINA RESULT:      -6.8      2.071      2.258
REMARK  Name = 
REMARK  9 active torsions:
REMARK  status: ('A' for Active; 'I' for Inactive)
REMARK    1  A    between atoms: C_2  and  C_4
REMARK    2  A    between atoms: C_6  and  O_7
REMARK    3  A    between atoms: O_7  and  C_8
REMARK    4  A    between atoms: C_11  and  C_13
REMARK    5  A    between atoms: C_13  and  O_14
REMARK    6  A    between atoms: C_15  and  O_17
REMARK    7  A    between atoms: C_18  and  O_20
REMARK    8  A    between atoms: C_21  and  O_23
REMARK    9  A    between atoms: C_25  and  N_27
REMARK                            x       y       z     vdW  Elec       q    Type
REMARK                         _______ _______ _______ _____ _____    ______ ____
ROOT
ATOM      1  O   UNL     1       9.828  -3.032  23.864  0.00  0.00    -0.461 OA
ENDROOT
BRANCH   1   6
ATOM      2  C   UNL     1       7.080  -4.595  25.803  0.00  0.00    +0.046 A 
ATOM      3  C   UNL     1       6.138  -4.751  24.780  0.00  0.00    +0.097 A 
ATOM      4  C   UNL     1       6.456  -4.308  23.488  0.00  0.00    +0.277 A 
ATOM      5  C   UNL     1       7.700  -3.729  23.213  0.00  0.00    +0.130 A 
ATOM      6  C   UNL     1       8.646  -3.607  24.232  0.00  0.00    +0.131 A 
ATOM      7  C   UNL     1       8.332  -4.026  25.526  0.00  0.00    +0.059 A 
BRANCH   2  11
ATOM      8  N   UNL     1       5.796  -4.428  27.868  0.00  0.00    -0.325 N 
ATOM      9  H   UNL     1       5.351  -3.574  27.558  0.00  0.00    +0.145 HD
ATOM     10  H   UNL     1       5.682  -4.671  28.843  0.00  0.00    +0.145 HD
ATOM     11  C   UNL     1       6.808  -5.043  27.194  0.00  0.00    +0.242 C 
ATOM     12  O   UNL     1       7.489  -5.915  27.720  0.00  0.00    -0.270 OA
ENDBRANCH   2  11
BRANCH   4  13
ATOM     13  N   UNL     1       5.470  -4.461  22.409  0.00  0.00    +0.080 N 
ATOM     14  O   UNL     1       5.339  -3.516  21.618  0.00  0.00    +0.041 OA
ATOM     15  O   UNL     1       4.834  -5.522  22.352  0.00  0.00    -0.576 OA
ENDBRANCH   4  13
ENDBRANCH   1   6
BRANCH   1  16
ATOM     16  C   UNL     1       9.877  -1.597  23.874  0.00  0.00    +0.339 C 
ATOM     17  C   UNL     1       9.627  -1.110  22.430  0.00  0.00    +0.214 C 
ATOM     18  C   UNL     1       9.554   0.425  22.419  0.00  0.00    +0.180 C 
ATOM     19  C   UNL     1       8.531   0.929  23.441  0.00  0.00    +0.177 C 
ATOM     20  C   UNL     1       8.844   0.343  24.823  0.00  0.00    +0.179 C 
ATOM     21  O   UNL     1       8.881  -1.091  24.771  0.00  0.00    -0.331 OA
BRANCH  17  22
ATOM     22  O   UNL     1      10.677  -1.588  21.565  0.00  0.00    -0.383 OA
ATOM     23  H   UNL     1      10.295  -1.845  20.710  0.00  0.00    +0.210 HD
ENDBRANCH  17  22
BRANCH  18  24
ATOM     24  O   UNL     1       9.213   0.905  21.114  0.00  0.00    -0.386 OA
ATOM     25  H   UNL     1       9.401   0.176  20.489  0.00  0.00    +0.210 HD
ENDBRANCH  18  24
BRANCH  19  26
ATOM     26  O   UNL     1       8.543   2.361  23.435  0.00  0.00    -0.386 OA
ATOM     27  H   UNL     1       9.448   2.676  23.613  0.00  0.00    +0.210 HD
ENDBRANCH  19  26
BRANCH  20  28
ATOM     28  C   UNL     1       7.776   0.743  25.846  0.00  0.00    +0.190 C 
BRANCH  28  29
ATOM     29  O   UNL     1       7.965   2.106  26.223  0.00  0.00    -0.392 OA
ATOM     30  H   UNL     1       7.659   2.175  27.147  0.00  0.00    +0.210 HD
ENDBRANCH  28  29
ENDBRANCH  20  28
ENDBRANCH   1  16
TORSDOF 9
ENDMDL
MODEL 7
REMARK VINA RESULT:      -6.8      2.135      4.289
REMARK  Name = 
REMARK  9 active torsions:
REMARK  status: ('A' for Active; 'I' for Inactive)
REMARK    1  A    between atoms: C_2  and  C_4
REMARK    2  A    between atoms: C_6  and  O_7
REMARK    3  A    between atoms: O_7  and  C_8
REMARK    4  A    between atoms: C_11  and  C_13
REMARK    5  A    between atoms: C_13  and  O_14
REMARK    6  A    between atoms: C_15  and  O_17
REMARK    7  A    between atoms: C_18  and  O_20
REMARK    8  A    between atoms: C_21  and  O_23
REMARK    9  A    between atoms: C_25  and  N_27
REMARK                            x       y       z     vdW  Elec       q    Type
REMARK                         _______ _______ _______ _____ _____    ______ ____
ROOT
ATOM      1  O   UNL     1       6.126  -1.001  24.806  0.00  0.00    -0.461 OA
ENDROOT
BRANCH   1   6
ATOM      2  C   UNL     1       5.590  -4.563  23.923  0.00  0.00    +0.046 A 
ATOM      3  C   UNL     1       6.419  -5.162  24.878  0.00  0.00    +0.097 A 
ATOM      4  C   UNL     1       7.138  -4.347  25.765  0.00  0.00    +0.277 A 
ATOM      5  C   UNL     1       7.023  -2.954  25.711  0.00  0.00    +0.130 A 
ATOM      6  C   UNL     1       6.169  -2.364  24.777  0.00  0.00    +0.131 A 
ATOM      7  C   UNL     1       5.466  -3.167  23.876  0.00  0.00    +0.059 A 
BRANCH   2  11
ATOM      8  N   UNL     1       5.457  -6.338  22.259  0.00  0.00    -0.325 N 
ATOM      9  H   UNL     1       6.465  -6.419  22.220  0.00  0.00    +0.145 HD
ATOM     10  H   UNL     1       4.936  -6.814  21.535  0.00  0.00    +0.145 HD
ATOM     11  C   UNL     1       4.801  -5.368  22.954  0.00  0.00    +0.242 C 
ATOM     12  O   UNL     1       3.611  -5.145  22.772  0.00  0.00    -0.270 OA
ENDBRANCH   2  11
BRANCH   4  13
ATOM     13  N   UNL     1       8.016  -4.967  26.766  0.00  0.00    +0.080 N 
ATOM     14  O   UNL     1       9.221  -4.682  26.723  0.00  0.00    +0.041 OA
ATOM     15  O   UNL     1       7.502  -5.732  27.593  0.00  0.00    -0.576 OA
ENDBRANCH   4  13
ENDBRANCH   1   6
BRANCH   1  16
ATOM     16  C   UNL     1       6.635  -0.316  23.652  0.00  0.00    +0.339 C 
ATOM     17  C   UNL     1       6.442   1.199  23.884  0.00  0.00    +0.214 C 
ATOM     18  C   UNL     1       7.081   1.975  22.722  0.00  0.00    +0.180 C 
ATOM     19  C   UNL     1       8.538   1.548  22.518  0.00  0.00    +0.177 C 
ATOM     20  C   UNL     1       8.616   0.026  22.352  0.00  0.00    +0.179 C 
ATOM     21  O   UNL     1       8.019  -0.640  23.474  0.00  0.00    -0.331 OA
BRANCH  17  22
ATOM     22  O   UNL     1       5.037   1.499  23.999  0.00  0.00    -0.383 OA
ATOM     23  H   UNL     1       4.548   1.016  23.313  0.00  0.00    +0.210 HD
ENDBRANCH  17  22
BRANCH  18  24
ATOM     24  O   UNL     1       7.018   3.385  22.960  0.00  0.00    -0.386 OA
ATOM     25  H   UNL     1       7.857   3.763  22.629  0.00  0.00    +0.210 HD
ENDBRANCH  18  24
BRANCH  19  26
ATOM     26  O   UNL     1       9.070   2.252  21.391  0.00  0.00    -0.386 OA
ATOM     27  H   UNL     1       8.753   1.834  20.570  0.00  0.00    +0.210 HD
ENDBRANCH  19  26
BRANCH  20  28
ATOM     28  C   UNL     1      10.071  -0.444  22.253  0.00  0.00    +0.190 C 
BRANCH  28  29
ATOM     29  O   UNL     1      10.145  -1.588  21.402  0.00  0.00    -0.392 OA
ATOM     30  H   UNL     1      10.870  -1.410  20.774  0.00  0.00    +0.210 HD
ENDBRANCH  28  29
ENDBRANCH  20  28
ENDBRANCH   1  16
TORSDOF 9
ENDMDL
MODEL 8
REMARK VINA RESULT:      -6.6      1.812      3.030
REMARK  Name = 
REMARK  9 active torsions:
REMARK  status: ('A' for Active; 'I' for Inactive)
REMARK    1  A    between atoms: C_2  and  C_4
REMARK    2  A    between atoms: C_6  and  O_7
REMARK    3  A    between atoms: O_7  and  C_8
REMARK    4  A    between atoms: C_11  and  C_13
REMARK    5  A    between atoms: C_13  and  O_14
REMARK    6  A    between atoms: C_15  and  O_17
REMARK    7  A    between atoms: C_18  and  O_20
REMARK    8  A    between atoms: C_21  and  O_23
REMARK    9  A    between atoms: C_25  and  N_27
REMARK                            x       y       z     vdW  Elec       q    Type
REMARK                         _______ _______ _______ _____ _____    ______ ____
ROOT
ATOM      1  O   UNL     1       8.903  -1.872  24.659  0.00  0.00    -0.461 OA
ENDROOT
BRANCH   1   6
ATOM      2  C   UNL     1       7.041  -4.968  25.499  0.00  0.00    +0.046 A 
ATOM      3  C   UNL     1       6.619  -5.335  24.217  0.00  0.00    +0.097 A 
ATOM      4  C   UNL     1       6.958  -4.520  23.127  0.00  0.00    +0.277 A 
ATOM      5  C   UNL     1       7.720  -3.361  23.309  0.00  0.00    +0.130 A 
ATOM      6  C   UNL     1       8.166  -3.019  24.587  0.00  0.00    +0.131 A 
ATOM      7  C   UNL     1       7.815  -3.812  25.680  0.00  0.00    +0.059 A 
BRANCH   2  11
ATOM      8  N   UNL     1       5.593  -6.555  26.649  0.00  0.00    -0.325 N 
ATOM      9  H   UNL     1       4.877  -6.462  25.940  0.00  0.00    +0.145 HD
ATOM     10  H   UNL     1       5.329  -7.033  27.500  0.00  0.00    +0.145 HD
ATOM     11  C   UNL     1       6.717  -5.787  26.696  0.00  0.00    +0.242 C 
ATOM     12  O   UNL     1       7.423  -5.749  27.696  0.00  0.00    -0.270 OA
ENDBRANCH   2  11
BRANCH   4  13
ATOM     13  N   UNL     1       6.511  -4.894  21.778  0.00  0.00    +0.080 N 
ATOM     14  O   UNL     1       5.703  -4.141  21.216  0.00  0.00    +0.041 OA
ATOM     15  O   UNL     1       6.970  -5.932  21.283  0.00  0.00    -0.576 OA
ENDBRANCH   4  13
ENDBRANCH   1   6
BRANCH   1  16
ATOM     16  C   UNL     1       8.239  -0.655  24.287  0.00  0.00    +0.339 C 
ATOM     17  C   UNL     1       8.426   0.352  25.443  0.00  0.00    +0.214 C 
ATOM     18  C   UNL     1       7.831   1.708  25.034  0.00  0.00    +0.180 C 
ATOM     19  C   UNL     1       8.405   2.173  23.692  0.00  0.00    +0.177 C 
ATOM     20  C   UNL     1       8.211   1.079  22.637  0.00  0.00    +0.179 C 
ATOM     21  O   UNL     1       8.803  -0.156  23.069  0.00  0.00    -0.331 OA
BRANCH  17  22
ATOM     22  O   UNL     1       7.798  -0.154  26.638  0.00  0.00    -0.383 OA
ATOM     23  H   UNL     1       7.357   0.577  27.101  0.00  0.00    +0.210 HD
ENDBRANCH  17  22
BRANCH  18  24
ATOM     24  O   UNL     1       8.086   2.696  26.039  0.00  0.00    -0.386 OA
ATOM     25  H   UNL     1       8.566   2.243  26.762  0.00  0.00    +0.210 HD
ENDBRANCH  18  24
BRANCH  19  26
ATOM     26  O   UNL     1       7.777   3.407  23.327  0.00  0.00    -0.386 OA
ATOM     27  H   UNL     1       8.405   4.140  23.459  0.00  0.00    +0.210 HD
ENDBRANCH  19  26
BRANCH  20  28
ATOM     28  C   UNL     1       8.870   1.470  21.310  0.00  0.00    +0.190 C 
BRANCH  28  29
ATOM     29  O   UNL     1      10.049   2.230  21.569  0.00  0.00    -0.392 OA
ATOM     30  H   UNL     1       9.769   2.979  22.129  0.00  0.00    +0.210 HD
ENDBRANCH  28  29
ENDBRANCH  20  28
ENDBRANCH   1  16
TORSDOF 9
ENDMDL
MODEL 9
REMARK VINA RESULT:      -6.5      1.460      1.649
REMARK  Name = 
REMARK  9 active torsions:
REMARK  status: ('A' for Active; 'I' for Inactive)
REMARK    1  A    between atoms: C_2  and  C_4
REMARK    2  A    between atoms: C_6  and  O_7
REMARK    3  A    between atoms: O_7  and  C_8
REMARK    4  A    between atoms: C_11  and  C_13
REMARK    5  A    between atoms: C_13  and  O_14
REMARK    6  A    between atoms: C_15  and  O_17
REMARK    7  A    between atoms: C_18  and  O_20
REMARK    8  A    between atoms: C_21  and  O_23
REMARK    9  A    between atoms: C_25  and  N_27
REMARK                            x       y       z     vdW  Elec       q    Type
REMARK                         _______ _______ _______ _____ _____    ______ ____
ROOT
ATOM      1  O   UNL     1       8.617  -1.300  22.221  0.00  0.00    -0.461 OA
ENDROOT
BRANCH   1   6
ATOM      2  C   UNL     1       8.507  -4.226  24.497  0.00  0.00    +0.046 A 
ATOM      3  C   UNL     1       7.531  -4.986  23.844  0.00  0.00    +0.097 A 
ATOM      4  C   UNL     1       6.936  -4.479  22.680  0.00  0.00    +0.277 A 
ATOM      5  C   UNL     1       7.317  -3.235  22.164  0.00  0.00    +0.130 A 
ATOM      6  C   UNL     1       8.316  -2.497  22.802  0.00  0.00    +0.131 A 
ATOM      7  C   UNL     1       8.899  -2.985  23.974  0.00  0.00    +0.059 A 
BRANCH   2  11
ATOM      8  N   UNL     1      10.241  -5.544  25.590  0.00  0.00    -0.325 N 
ATOM      9  H   UNL     1      10.482  -6.004  24.721  0.00  0.00    +0.145 HD
ATOM     10  H   UNL     1      10.630  -5.941  26.436  0.00  0.00    +0.145 HD
ATOM     11  C   UNL     1       9.177  -4.706  25.734  0.00  0.00    +0.242 C 
ATOM     12  O   UNL     1       8.768  -4.378  26.841  0.00  0.00    -0.270 OA
ENDBRANCH   2  11
BRANCH   4  13
ATOM     13  N   UNL     1       5.904  -5.267  21.993  0.00  0.00    +0.080 N 
ATOM     14  O   UNL     1       5.988  -5.365  20.760  0.00  0.00    +0.041 OA
ATOM     15  O   UNL     1       5.019  -5.789  22.683  0.00  0.00    -0.576 OA
ENDBRANCH   4  13
ENDBRANCH   1   6
BRANCH   1  16
ATOM     16  C   UNL     1       8.429  -0.127  23.027  0.00  0.00    +0.339 C 
ATOM     17  C   UNL     1       8.527   1.101  22.095  0.00  0.00    +0.214 C 
ATOM     18  C   UNL     1       8.214   2.373  22.899  0.00  0.00    +0.180 C 
ATOM     19  C   UNL     1       6.874   2.239  23.630  0.00  0.00    +0.177 C 
ATOM     20  C   UNL     1       6.870   0.963  24.480  0.00  0.00    +0.179 C 
ATOM     21  O   UNL     1       7.151  -0.188  23.670  0.00  0.00    -0.331 OA
BRANCH  17  22
ATOM     22  O   UNL     1       9.843   1.166  21.510  0.00  0.00    -0.383 OA
ATOM     23  H   UNL     1      10.508   1.000  22.198  0.00  0.00    +0.210 HD
ENDBRANCH  17  22
BRANCH  18  24
ATOM     24  O   UNL     1       8.187   3.519  22.041  0.00  0.00    -0.386 OA
ATOM     25  H   UNL     1       7.280   3.574  21.677  0.00  0.00    +0.210 HD
ENDBRANCH  18  24
BRANCH  19  26
ATOM     26  O   UNL     1       6.656   3.420  24.409  0.00  0.00    -0.386 OA
ATOM     27  H   UNL     1       7.473   3.644  24.890  0.00  0.00    +0.210 HD
ENDBRANCH  19  26
BRANCH  20  28
ATOM     28  C   UNL     1       5.505   0.745  25.140  0.00  0.00    +0.190 C 
BRANCH  28  29
ATOM     29  O   UNL     1       5.405   1.560  26.307  0.00  0.00    -0.392 OA
ATOM     30  H   UNL     1       6.023   1.175  26.958  0.00  0.00    +0.210 HD
ENDBRANCH  28  29
ENDBRANCH  20  28
ENDBRANCH   1  16
TORSDOF 9
ENDMDL
