MODEL 1
REMARK VINA RESULT:      -6.3      0.000      0.000
REMARK  Name = 
REMARK  12 active torsions:
REMARK  status: ('A' for Active; 'I' for Inactive)
REMARK    1  A    between atoms: C_6  and  C_15
REMARK    2  A    between atoms: C_7  and  C_8
REMARK    3  A    between atoms: C_11  and  O_12
REMARK    4  A    between atoms: C_18  and  O_19
REMARK    5  A    between atoms: C_22  and  C_24
REMARK    6  A    between atoms: C_24  and  O_26
REMARK    7  A    between atoms: O_26  and  C_27
REMARK    8  A    between atoms: C_27  and  C_28
REMARK    9  A    between atoms: C_29  and  C_31
REMARK   10  A    between atoms: C_31  and  O_33
REMARK   11  A    between atoms: O_33  and  C_34
REMARK   12  A    between atoms: C_34  and  C_35
REMARK                            x       y       z     vdW  Elec       q    Type
REMARK                         _______ _______ _______ _____ _____    ______ ____
ROOT
ATOM      1  C   UNL     1       8.452  -1.603  26.390  0.00  0.00    +0.165 C 
ATOM      2  C   UNL     1       7.117  -1.309  27.081  0.00  0.00    +0.147 C 
ATOM      3  C   UNL     1       6.288  -2.556  26.703  0.00  0.00    +0.147 C 
ATOM      4  C   UNL     1       7.351  -3.438  26.016  0.00  0.00    +0.165 C 
ATOM      5  C   UNL     1       7.728  -2.916  24.649  0.00  0.00    -0.005 C 
ATOM      6  C   UNL     1       8.346  -1.738  24.889  0.00  0.00    -0.005 C 
ATOM      7  O   UNL     1       8.544  -3.019  26.747  0.00  0.00    -0.362 OA
ENDROOT
BRANCH   5   8
ATOM      8  C   UNL     1       7.351  -3.639  23.430  0.00  0.00    -0.019 A 
ATOM      9  C   UNL     1       6.461  -3.092  22.498  0.00  0.00    +0.012 A 
ATOM     10  C   UNL     1       5.961  -3.862  21.442  0.00  0.00    +0.046 A 
ATOM     11  C   UNL     1       6.364  -5.181  21.299  0.00  0.00    +0.117 A 
ATOM     12  C   UNL     1       7.293  -5.734  22.168  0.00  0.00    +0.046 A 
ATOM     13  C   UNL     1       7.785  -4.960  23.224  0.00  0.00    +0.012 A 
BRANCH  11  14
ATOM     14  O   UNL     1       5.814  -5.911  20.288  0.00  0.00    -0.507 OA
ATOM     15  H   UNL     1       6.514  -6.437  19.868  0.00  0.00    +0.292 HD
ENDBRANCH  11  14
ENDBRANCH   5   8
BRANCH   6  16
ATOM     16  C   UNL     1       8.882  -0.720  24.000  0.00  0.00    -0.019 A 
ATOM     17  C   UNL     1      10.144  -0.163  24.224  0.00  0.00    +0.012 A 
ATOM     18  C   UNL     1      10.630   0.841  23.379  0.00  0.00    +0.046 A 
ATOM     19  C   UNL     1       9.857   1.283  22.311  0.00  0.00    +0.117 A 
ATOM     20  C   UNL     1       8.601   0.740  22.072  0.00  0.00    +0.046 A 
ATOM     21  C   UNL     1       8.117  -0.262  22.917  0.00  0.00    +0.012 A 
BRANCH  19  22
ATOM     22  O   UNL     1      10.369   2.262  21.513  0.00  0.00    -0.507 OA
ATOM     23  H   UNL     1      11.328   2.312  21.662  0.00  0.00    +0.292 HD
ENDBRANCH  19  22
ENDBRANCH   6  16
BRANCH   2  24
ATOM     24  C   UNL     1       6.610   0.078  26.837  0.00  0.00    +0.314 C 
ATOM     25  O   UNL     1       7.077   0.838  26.002  0.00  0.00    -0.250 OA
BRANCH  24  26
ATOM     26  O   UNL     1       5.735   0.442  27.817  0.00  0.00    -0.465 OA
BRANCH  26  27
ATOM     27  C   UNL     1       5.984   1.726  28.413  0.00  0.00    +0.229 C 
ATOM     28  C   UNL     1       7.049   1.531  29.475  0.00  0.00    +0.048 C 
ENDBRANCH  26  27
ENDBRANCH  24  26
ENDBRANCH   2  24
BRANCH   3  29
ATOM     29  C   UNL     1       5.019  -2.378  25.902  0.00  0.00    +0.314 C 
ATOM     30  O   UNL     1       4.805  -1.388  25.213  0.00  0.00    -0.250 OA
BRANCH  29  31
ATOM     31  O   UNL     1       4.159  -3.418  26.046  0.00  0.00    -0.465 OA
BRANCH  31  32
ATOM     32  C   UNL     1       3.767  -4.099  24.844  0.00  0.00    +0.229 C 
ATOM     33  C   UNL     1       4.395  -5.474  24.823  0.00  0.00    +0.048 C 
ENDBRANCH  31  32
ENDBRANCH  29  31
ENDBRANCH   3  29
TORSDOF 10
ENDMDL
MODEL 2
REMARK VINA RESULT:      -6.2      2.513      4.689
REMARK  Name = 
REMARK  12 active torsions:
REMARK  status: ('A' for Active; 'I' for Inactive)
REMARK    1  A    between atoms: C_6  and  C_15
REMARK    2  A    between atoms: C_7  and  C_8
REMARK    3  A    between atoms: C_11  and  O_12
REMARK    4  A    between atoms: C_18  and  O_19
REMARK    5  A    between atoms: C_22  and  C_24
REMARK    6  A    between atoms: C_24  and  O_26
REMARK    7  A    between atoms: O_26  and  C_27
REMARK    8  A    between atoms: C_27  and  C_28
REMARK    9  A    between atoms: C_29  and  C_31
REMARK   10  A    between atoms: C_31  and  O_33
REMARK   11  A    between atoms: O_33  and  C_34
REMARK   12  A    between atoms: C_34  and  C_35
REMARK                            x       y       z     vdW  Elec       q    Type
REMARK                         _______ _______ _______ _____ _____    ______ ____
ROOT
ATOM      1  C   UNL     1       9.084   0.360  21.911  0.00  0.00    +0.165 C 
ATOM      2  C   UNL     1      10.274  -0.125  22.745  0.00  0.00    +0.147 C 
ATOM      3  C   UNL     1       9.955  -1.628  22.899  0.00  0.00    +0.147 C 
ATOM      4  C   UNL     1       8.734  -1.784  21.969  0.00  0.00    +0.165 C 
ATOM      5  C   UNL     1       7.488  -1.162  22.556  0.00  0.00    -0.005 C 
ATOM      6  C   UNL     1       7.746   0.164  22.585  0.00  0.00    -0.005 C 
ATOM      7  O   UNL     1       9.039  -0.762  20.972  0.00  0.00    -0.362 OA
ENDROOT
BRANCH   5   8
ATOM      8  C   UNL     1       6.368  -1.993  23.011  0.00  0.00    -0.019 A 
ATOM      9  C   UNL     1       5.864  -1.898  24.313  0.00  0.00    +0.012 A 
ATOM     10  C   UNL     1       4.931  -2.823  24.794  0.00  0.00    +0.046 A 
ATOM     11  C   UNL     1       4.476  -3.838  23.965  0.00  0.00    +0.117 A 
ATOM     12  C   UNL     1       4.907  -3.922  22.650  0.00  0.00    +0.046 A 
ATOM     13  C   UNL     1       5.845  -2.998  22.178  0.00  0.00    +0.012 A 
BRANCH  11  14
ATOM     14  O   UNL     1       3.606  -4.747  24.489  0.00  0.00    -0.507 OA
ATOM     15  H   UNL     1       2.700  -4.438  24.327  0.00  0.00    +0.292 HD
ENDBRANCH  11  14
ENDBRANCH   5   8
BRANCH   6  16
ATOM     16  C   UNL     1       6.984   1.294  23.093  0.00  0.00    -0.019 A 
ATOM     17  C   UNL     1       6.591   1.352  24.432  0.00  0.00    +0.012 A 
ATOM     18  C   UNL     1       5.828   2.428  24.896  0.00  0.00    +0.046 A 
ATOM     19  C   UNL     1       5.462   3.446  24.023  0.00  0.00    +0.117 A 
ATOM     20  C   UNL     1       5.843   3.406  22.687  0.00  0.00    +0.046 A 
ATOM     21  C   UNL     1       6.605   2.330  22.226  0.00  0.00    +0.012 A 
BRANCH  19  22
ATOM     22  O   UNL     1       4.719   4.476  24.517  0.00  0.00    -0.507 OA
ATOM     23  H   UNL     1       3.833   4.142  24.733  0.00  0.00    +0.292 HD
ENDBRANCH  19  22
ENDBRANCH   6  16
BRANCH   2  24
ATOM     24  C   UNL     1      10.568   0.743  23.928  0.00  0.00    +0.314 C 
ATOM     25  O   UNL     1      11.259   0.396  24.875  0.00  0.00    -0.250 OA
BRANCH  24  26
ATOM     26  O   UNL     1       9.779   1.855  23.907  0.00  0.00    -0.465 OA
BRANCH  26  27
ATOM     27  C   UNL     1      10.472   3.092  23.672  0.00  0.00    +0.229 C 
ATOM     28  C   UNL     1       9.466   4.213  23.851  0.00  0.00    +0.048 C 
ENDBRANCH  26  27
ENDBRANCH  24  26
ENDBRANCH   2  24
BRANCH   3  29
ATOM     29  C   UNL     1       9.755  -2.198  24.285  0.00  0.00    +0.314 C 
ATOM     30  O   UNL     1       9.300  -1.538  25.211  0.00  0.00    -0.250 OA
BRANCH  29  31
ATOM     31  O   UNL     1      10.145  -3.494  24.379  0.00  0.00    -0.465 OA
BRANCH  31  32
ATOM     32  C   UNL     1       9.280  -4.374  25.114  0.00  0.00    +0.229 C 
ATOM     33  C   UNL     1       8.290  -5.009  24.164  0.00  0.00    +0.048 C 
ENDBRANCH  31  32
ENDBRANCH  29  31
ENDBRANCH   3  29
TORSDOF 10
ENDMDL
MODEL 3
REMARK VINA RESULT:      -6.0      1.378      5.425
REMARK  Name = 
REMARK  12 active torsions:
REMARK  status: ('A' for Active; 'I' for Inactive)
REMARK    1  A    between atoms: C_6  and  C_15
REMARK    2  A    between atoms: C_7  and  C_8
REMARK    3  A    between atoms: C_11  and  O_12
REMARK    4  A    between atoms: C_18  and  O_19
REMARK    5  A    between atoms: C_22  and  C_24
REMARK    6  A    between atoms: C_24  and  O_26
REMARK    7  A    between atoms: O_26  and  C_27
REMARK    8  A    between atoms: C_27  and  C_28
REMARK    9  A    between atoms: C_29  and  C_31
REMARK   10  A    between atoms: C_31  and  O_33
REMARK   11  A    between atoms: O_33  and  C_34
REMARK   12  A    between atoms: C_34  and  C_35
REMARK                            x       y       z     vdW  Elec       q    Type
REMARK                         _______ _______ _______ _____ _____    ______ ____
ROOT
ATOM      1  C   UNL     1       7.557  -2.948  26.551  0.00  0.00    +0.165 C 
ATOM      2  C   UNL     1       6.764  -3.872  25.622  0.00  0.00    +0.147 C 
ATOM      3  C   UNL     1       7.651  -3.878  24.357  0.00  0.00    +0.147 C 
ATOM      4  C   UNL     1       8.894  -3.105  24.846  0.00  0.00    +0.165 C 
ATOM      5  C   UNL     1       8.621  -1.628  25.002  0.00  0.00    -0.005 C 
ATOM      6  C   UNL     1       7.731  -1.546  26.015  0.00  0.00    -0.005 C 
ATOM      7  O   UNL     1       8.889  -3.479  26.258  0.00  0.00    -0.362 OA
ENDROOT
BRANCH   5   8
ATOM      8  C   UNL     1       9.230  -0.645  24.099  0.00  0.00    -0.019 A 
ATOM      9  C   UNL     1       9.662   0.605  24.557  0.00  0.00    +0.012 A 
ATOM     10  C   UNL     1      10.061   1.603  23.661  0.00  0.00    +0.046 A 
ATOM     11  C   UNL     1      10.051   1.349  22.298  0.00  0.00    +0.117 A 
ATOM     12  C   UNL     1       9.690   0.101  21.815  0.00  0.00    +0.046 A 
ATOM     13  C   UNL     1       9.286  -0.890  22.716  0.00  0.00    +0.012 A 
BRANCH  11  14
ATOM     14  O   UNL     1      10.399   2.364  21.457  0.00  0.00    -0.507 OA
ATOM     15  H   UNL     1      10.866   1.989  20.693  0.00  0.00    +0.292 HD
ENDBRANCH  11  14
ENDBRANCH   5   8
BRANCH   6  16
ATOM     16  C   UNL     1       7.026  -0.419  26.605  0.00  0.00    -0.019 A 
ATOM     17  C   UNL     1       5.985   0.214  25.921  0.00  0.00    +0.012 A 
ATOM     18  C   UNL     1       5.340   1.318  26.488  0.00  0.00    +0.046 A 
ATOM     19  C   UNL     1       5.735   1.787  27.736  0.00  0.00    +0.117 A 
ATOM     20  C   UNL     1       6.767   1.169  28.431  0.00  0.00    +0.046 A 
ATOM     21  C   UNL     1       7.410   0.066  27.863  0.00  0.00    +0.012 A 
BRANCH  19  22
ATOM     22  O   UNL     1       5.079   2.865  28.251  0.00  0.00    -0.507 OA
ATOM     23  H   UNL     1       4.277   2.553  28.701  0.00  0.00    +0.292 HD
ENDBRANCH  19  22
ENDBRANCH   6  16
BRANCH   2  24
ATOM     24  C   UNL     1       5.304  -3.548  25.558  0.00  0.00    +0.314 C 
ATOM     25  O   UNL     1       4.755  -2.729  26.280  0.00  0.00    -0.250 OA
BRANCH  24  26
ATOM     26  O   UNL     1       4.654  -4.448  24.767  0.00  0.00    -0.465 OA
BRANCH  26  27
ATOM     27  C   UNL     1       4.292  -5.680  25.411  0.00  0.00    +0.229 C 
ATOM     28  C   UNL     1       4.529  -6.798  24.413  0.00  0.00    +0.048 C 
ENDBRANCH  26  27
ENDBRANCH  24  26
ENDBRANCH   2  24
BRANCH   3  29
ATOM     29  C   UNL     1       7.077  -3.368  23.055  0.00  0.00    +0.314 C 
ATOM     30  O   UNL     1       6.323  -2.404  22.999  0.00  0.00    -0.250 OA
BRANCH  29  31
ATOM     31  O   UNL     1       7.478  -4.098  21.985  0.00  0.00    -0.465 OA
BRANCH  31  32
ATOM     32  C   UNL     1       7.237  -5.513  22.045  0.00  0.00    +0.229 C 
ATOM     33  C   UNL     1       6.086  -5.862  21.129  0.00  0.00    +0.048 C 
ENDBRANCH  31  32
ENDBRANCH  29  31
ENDBRANCH   3  29
TORSDOF 10
ENDMDL
MODEL 4
REMARK VINA RESULT:      -5.9      1.746      5.751
REMARK  Name = 
REMARK  12 active torsions:
REMARK  status: ('A' for Active; 'I' for Inactive)
REMARK    1  A    between atoms: C_6  and  C_15
REMARK    2  A    between atoms: C_7  and  C_8
REMARK    3  A    between atoms: C_11  and  O_12
REMARK    4  A    between atoms: C_18  and  O_19
REMARK    5  A    between atoms: C_22  and  C_24
REMARK    6  A    between atoms: C_24  and  O_26
REMARK    7  A    between atoms: O_26  and  C_27
REMARK    8  A    between atoms: C_27  and  C_28
REMARK    9  A    between atoms: C_29  and  C_31
REMARK   10  A    between atoms: C_31  and  O_33
REMARK   11  A    between atoms: O_33  and  C_34
REMARK   12  A    between atoms: C_34  and  C_35
REMARK                            x       y       z     vdW  Elec       q    Type
REMARK                         _______ _______ _______ _____ _____    ______ ____
ROOT
ATOM      1  C   UNL     1       8.952  -2.832  24.879  0.00  0.00    +0.165 C 
ATOM      2  C   UNL     1       9.414  -1.382  24.703  0.00  0.00    +0.147 C 
ATOM      3  C   UNL     1       8.499  -0.639  25.701  0.00  0.00    +0.147 C 
ATOM      4  C   UNL     1       7.798  -1.814  26.413  0.00  0.00    +0.165 C 
ATOM      5  C   UNL     1       6.775  -2.488  25.529  0.00  0.00    -0.005 C 
ATOM      6  C   UNL     1       7.497  -3.054  24.537  0.00  0.00    -0.005 C 
ATOM      7  O   UNL     1       8.850  -2.824  26.339  0.00  0.00    -0.362 OA
ENDROOT
BRANCH   5   8
ATOM      8  C   UNL     1       5.339  -2.376  25.808  0.00  0.00    -0.019 A 
ATOM      9  C   UNL     1       4.836  -1.417  26.695  0.00  0.00    +0.012 A 
ATOM     10  C   UNL     1       3.497  -1.443  27.100  0.00  0.00    +0.046 A 
ATOM     11  C   UNL     1       2.644  -2.418  26.603  0.00  0.00    +0.117 A 
ATOM     12  C   UNL     1       3.096  -3.343  25.675  0.00  0.00    +0.046 A 
ATOM     13  C   UNL     1       4.437  -3.315  25.278  0.00  0.00    +0.012 A 
BRANCH  11  14
ATOM     14  O   UNL     1       1.361  -2.438  27.062  0.00  0.00    -0.507 OA
ATOM     15  H   UNL     1       0.953  -1.576  26.881  0.00  0.00    +0.292 HD
ENDBRANCH  11  14
ENDBRANCH   5   8
BRANCH   6  16
ATOM     16  C   UNL     1       7.106  -3.786  23.343  0.00  0.00    -0.019 A 
ATOM     17  C   UNL     1       6.371  -3.166  22.328  0.00  0.00    +0.012 A 
ATOM     18  C   UNL     1       5.973  -3.893  21.202  0.00  0.00    +0.046 A 
ATOM     19  C   UNL     1       6.311  -5.238  21.090  0.00  0.00    +0.117 A 
ATOM     20  C   UNL     1       7.041  -5.871  22.088  0.00  0.00    +0.046 A 
ATOM     21  C   UNL     1       7.438  -5.142  23.212  0.00  0.00    +0.012 A 
BRANCH  19  22
ATOM     22  O   UNL     1       5.903  -5.909  19.976  0.00  0.00    -0.507 OA
ATOM     23  H   UNL     1       4.957  -6.111  20.066  0.00  0.00    +0.292 HD
ENDBRANCH  19  22
ENDBRANCH   6  16
BRANCH   2  24
ATOM     24  C   UNL     1       9.526  -0.960  23.271  0.00  0.00    +0.314 C 
ATOM     25  O   UNL     1       9.555  -1.739  22.330  0.00  0.00    -0.250 OA
BRANCH  24  26
ATOM     26  O   UNL     1       9.823   0.368  23.192  0.00  0.00    -0.465 OA
BRANCH  26  27
ATOM     27  C   UNL     1       9.888   0.902  21.858  0.00  0.00    +0.229 C 
ATOM     28  C   UNL     1       8.542   1.536  21.561  0.00  0.00    +0.048 C 
ENDBRANCH  26  27
ENDBRANCH  24  26
ENDBRANCH   2  24
BRANCH   3  29
ATOM     29  C   UNL     1       7.556   0.422  25.181  0.00  0.00    +0.314 C 
ATOM     30  O   UNL     1       6.799   0.229  24.238  0.00  0.00    -0.250 OA
BRANCH  29  31
ATOM     31  O   UNL     1       7.658   1.591  25.863  0.00  0.00    -0.465 OA
BRANCH  31  32
ATOM     32  C   UNL     1       7.432   2.795  25.112  0.00  0.00    +0.229 C 
ATOM     33  C   UNL     1       8.763   3.388  24.709  0.00  0.00    +0.048 C 
ENDBRANCH  31  32
ENDBRANCH  29  31
ENDBRANCH   3  29
TORSDOF 10
ENDMDL
MODEL 5
REMARK VINA RESULT:      -5.8      2.655      6.836
REMARK  Name = 
REMARK  12 active torsions:
REMARK  status: ('A' for Active; 'I' for Inactive)
REMARK    1  A    between atoms: C_6  and  C_15
REMARK    2  A    between atoms: C_7  and  C_8
REMARK    3  A    between atoms: C_11  and  O_12
REMARK    4  A    between atoms: C_18  and  O_19
REMARK    5  A    between atoms: C_22  and  C_24
REMARK    6  A    between atoms: C_24  and  O_26
REMARK    7  A    between atoms: O_26  and  C_27
REMARK    8  A    between atoms: C_27  and  C_28
REMARK    9  A    between atoms: C_29  and  C_31
REMARK   10  A    between atoms: C_31  and  O_33
REMARK   11  A    between atoms: O_33  and  C_34
REMARK   12  A    between atoms: C_34  and  C_35
REMARK                            x       y       z     vdW  Elec       q    Type
REMARK                         _______ _______ _______ _____ _____    ______ ____
ROOT
ATOM      1  C   UNL     1       7.798  -0.832  25.864  0.00  0.00    +0.165 C 
ATOM      2  C   UNL     1       8.155  -1.949  24.878  0.00  0.00    +0.147 C 
ATOM      3  C   UNL     1       9.540  -1.487  24.371  0.00  0.00    +0.147 C 
ATOM      4  C   UNL     1       9.821  -0.282  25.292  0.00  0.00    +0.165 C 
ATOM      5  C   UNL     1       8.969   0.916  24.939  0.00  0.00    -0.005 C 
ATOM      6  C   UNL     1       7.705   0.536  25.228  0.00  0.00    -0.005 C 
ATOM      7  O   UNL     1       9.112  -0.708  26.496  0.00  0.00    -0.362 OA
ENDROOT
BRANCH   5   8
ATOM      8  C   UNL     1       9.561   2.120  24.348  0.00  0.00    -0.019 A 
ATOM      9  C   UNL     1      10.824   2.098  23.745  0.00  0.00    +0.012 A 
ATOM     10  C   UNL     1      11.459   3.283  23.358  0.00  0.00    +0.046 A 
ATOM     11  C   UNL     1      10.824   4.501  23.552  0.00  0.00    +0.117 A 
ATOM     12  C   UNL     1       9.547   4.553  24.088  0.00  0.00    +0.046 A 
ATOM     13  C   UNL     1       8.920   3.364  24.478  0.00  0.00    +0.012 A 
BRANCH  11  14
ATOM     14  O   UNL     1      11.498   5.634  23.208  0.00  0.00    -0.507 OA
ATOM     15  H   UNL     1      12.348   5.382  22.812  0.00  0.00    +0.292 HD
ENDBRANCH  11  14
ENDBRANCH   5   8
BRANCH   6  16
ATOM     16  C   UNL     1       6.424   1.202  25.055  0.00  0.00    -0.019 A 
ATOM     17  C   UNL     1       6.062   1.755  23.824  0.00  0.00    +0.012 A 
ATOM     18  C   UNL     1       4.841   2.423  23.684  0.00  0.00    +0.046 A 
ATOM     19  C   UNL     1       3.983   2.535  24.772  0.00  0.00    +0.117 A 
ATOM     20  C   UNL     1       4.325   1.991  26.004  0.00  0.00    +0.046 A 
ATOM     21  C   UNL     1       5.545   1.324  26.142  0.00  0.00    +0.012 A 
BRANCH  19  22
ATOM     22  O   UNL     1       2.804   3.193  24.592  0.00  0.00    -0.507 OA
ATOM     23  H   UNL     1       2.155   2.570  24.225  0.00  0.00    +0.292 HD
ENDBRANCH  19  22
ENDBRANCH   6  16
BRANCH   2  24
ATOM     24  C   UNL     1       7.045  -2.292  23.935  0.00  0.00    +0.314 C 
ATOM     25  O   UNL     1       5.905  -1.864  24.038  0.00  0.00    -0.250 OA
BRANCH  24  26
ATOM     26  O   UNL     1       7.422  -3.311  23.111  0.00  0.00    -0.465 OA
BRANCH  26  27
ATOM     27  C   UNL     1       6.456  -3.679  22.113  0.00  0.00    +0.229 C 
ATOM     28  C   UNL     1       6.663  -5.150  21.807  0.00  0.00    +0.048 C 
ENDBRANCH  26  27
ENDBRANCH  24  26
ENDBRANCH   2  24
BRANCH   3  29
ATOM     29  C   UNL     1       9.723  -1.199  22.899  0.00  0.00    +0.314 C 
ATOM     30  O   UNL     1      10.662  -1.642  22.250  0.00  0.00    -0.250 OA
BRANCH  29  31
ATOM     31  O   UNL     1       8.750  -0.396  22.399  0.00  0.00    -0.465 OA
BRANCH  31  32
ATOM     32  C   UNL     1       9.040   0.270  21.159  0.00  0.00    +0.229 C 
ATOM     33  C   UNL     1       8.270   1.570  21.100  0.00  0.00    +0.048 C 
ENDBRANCH  31  32
ENDBRANCH  29  31
ENDBRANCH   3  29
TORSDOF 10
ENDMDL
MODEL 6
REMARK VINA RESULT:      -5.7      2.223      5.384
REMARK  Name = 
REMARK  12 active torsions:
REMARK  status: ('A' for Active; 'I' for Inactive)
REMARK    1  A    between atoms: C_6  and  C_15
REMARK    2  A    between atoms: C_7  and  C_8
REMARK    3  A    between atoms: C_11  and  O_12
REMARK    4  A    between atoms: C_18  and  O_19
REMARK    5  A    between atoms: C_22  and  C_24
REMARK    6  A    between atoms: C_24  and  O_26
REMARK    7  A    between atoms: O_26  and  C_27
REMARK    8  A    between atoms: C_27  and  C_28
REMARK    9  A    between atoms: C_29  and  C_31
REMARK   10  A    between atoms: C_31  and  O_33
REMARK   11  A    between atoms: O_33  and  C_34
REMARK   12  A    between atoms: C_34  and  C_35
REMARK                            x       y       z     vdW  Elec       q    Type
REMARK                         _______ _______ _______ _____ _____    ______ ____
ROOT
ATOM      1  C   UNL     1       6.336  -1.997  23.000  0.00  0.00    +0.165 C 
ATOM      2  C   UNL     1       7.445  -2.687  22.198  0.00  0.00    +0.147 C 
ATOM      3  C   UNL     1       7.055  -4.174  22.343  0.00  0.00    +0.147 C 
ATOM      4  C   UNL     1       5.686  -4.069  23.047  0.00  0.00    +0.165 C 
ATOM      5  C   UNL     1       5.820  -3.663  24.496  0.00  0.00    -0.005 C 
ATOM      6  C   UNL     1       6.296  -2.399  24.456  0.00  0.00    -0.005 C 
ATOM      7  O   UNL     1       5.216  -2.797  22.505  0.00  0.00    -0.362 OA
ENDROOT
BRANCH   5   8
ATOM      8  C   UNL     1       5.520  -4.605  25.579  0.00  0.00    -0.019 A 
ATOM      9  C   UNL     1       5.881  -4.340  26.905  0.00  0.00    +0.012 A 
ATOM     10  C   UNL     1       5.765  -5.322  27.894  0.00  0.00    +0.046 A 
ATOM     11  C   UNL     1       5.264  -6.574  27.568  0.00  0.00    +0.117 A 
ATOM     12  C   UNL     1       4.838  -6.849  26.277  0.00  0.00    +0.046 A 
ATOM     13  C   UNL     1       4.962  -5.864  25.292  0.00  0.00    +0.012 A 
BRANCH  11  14
ATOM     14  O   UNL     1       5.215  -7.518  28.549  0.00  0.00    -0.507 OA
ATOM     15  H   UNL     1       5.422  -8.383  28.160  0.00  0.00    +0.292 HD
ENDBRANCH  11  14
ENDBRANCH   5   8
BRANCH   6  16
ATOM     16  C   UNL     1       6.699  -1.476  25.506  0.00  0.00    -0.019 A 
ATOM     17  C   UNL     1       7.983  -1.531  26.056  0.00  0.00    +0.012 A 
ATOM     18  C   UNL     1       8.343  -0.659  27.089  0.00  0.00    +0.046 A 
ATOM     19  C   UNL     1       7.423   0.267  27.568  0.00  0.00    +0.117 A 
ATOM     20  C   UNL     1       6.142   0.336  27.033  0.00  0.00    +0.046 A 
ATOM     21  C   UNL     1       5.785  -0.536  26.001  0.00  0.00    +0.012 A 
BRANCH  19  22
ATOM     22  O   UNL     1       7.816   1.097  28.575  0.00  0.00    -0.507 OA
ATOM     23  H   UNL     1       7.136   1.781  28.695  0.00  0.00    +0.292 HD
ENDBRANCH  19  22
ENDBRANCH   6  16
BRANCH   2  24
ATOM     24  C   UNL     1       8.819  -2.196  22.532  0.00  0.00    +0.314 C 
ATOM     25  O   UNL     1       9.332  -2.304  23.636  0.00  0.00    -0.250 OA
BRANCH  24  26
ATOM     26  O   UNL     1       9.303  -1.420  21.522  0.00  0.00    -0.465 OA
BRANCH  26  27
ATOM     27  C   UNL     1       9.848  -0.154  21.930  0.00  0.00    +0.229 C 
ATOM     28  C   UNL     1       8.854   0.917  21.524  0.00  0.00    +0.048 C 
ENDBRANCH  26  27
ENDBRANCH  24  26
ENDBRANCH   2  24
BRANCH   3  29
ATOM     29  C   UNL     1       8.023  -5.125  23.010  0.00  0.00    +0.314 C 
ATOM     30  O   UNL     1       8.236  -6.255  22.587  0.00  0.00    -0.250 OA
BRANCH  29  31
ATOM     31  O   UNL     1       8.603  -4.591  24.114  0.00  0.00    -0.465 OA
BRANCH  31  32
ATOM     32  C   UNL     1       9.061  -5.518  25.111  0.00  0.00    +0.229 C 
ATOM     33  C   UNL     1       9.407  -4.761  26.373  0.00  0.00    +0.048 C 
ENDBRANCH  31  32
ENDBRANCH  29  31
ENDBRANCH   3  29
TORSDOF 10
ENDMDL
MODEL 7
REMARK VINA RESULT:      -5.5      1.993      6.143
REMARK  Name = 
REMARK  12 active torsions:
REMARK  status: ('A' for Active; 'I' for Inactive)
REMARK    1  A    between atoms: C_6  and  C_15
REMARK    2  A    between atoms: C_7  and  C_8
REMARK    3  A    between atoms: C_11  and  O_12
REMARK    4  A    between atoms: C_18  and  O_19
REMARK    5  A    between atoms: C_22  and  C_24
REMARK    6  A    between atoms: C_24  and  O_26
REMARK    7  A    between atoms: O_26  and  C_27
REMARK    8  A    between atoms: C_27  and  C_28
REMARK    9  A    between atoms: C_29  and  C_31
REMARK   10  A    between atoms: C_31  and  O_33
REMARK   11  A    between atoms: O_33  and  C_34
REMARK   12  A    between atoms: C_34  and  C_35
REMARK                            x       y       z     vdW  Elec       q    Type
REMARK                         _______ _______ _______ _____ _____    ______ ____
ROOT
ATOM      1  C   UNL     1       6.873  -2.227  26.482  0.00  0.00    +0.165 C 
ATOM      2  C   UNL     1       6.462  -2.995  25.222  0.00  0.00    +0.147 C 
ATOM      3  C   UNL     1       7.668  -2.737  24.292  0.00  0.00    +0.147 C 
ATOM      4  C   UNL     1       8.648  -2.022  25.246  0.00  0.00    +0.165 C 
ATOM      5  C   UNL     1       8.213  -0.608  25.554  0.00  0.00    -0.005 C 
ATOM      6  C   UNL     1       7.068  -0.746  26.259  0.00  0.00    -0.005 C 
ATOM      7  O   UNL     1       8.274  -2.646  26.512  0.00  0.00    -0.362 OA
ENDROOT
BRANCH   5   8
ATOM      8  C   UNL     1       8.963   0.544  25.045  0.00  0.00    -0.019 A 
ATOM      9  C   UNL     1       8.319   1.714  24.626  0.00  0.00    +0.012 A 
ATOM     10  C   UNL     1       9.022   2.728  23.966  0.00  0.00    +0.046 A 
ATOM     11  C   UNL     1      10.383   2.588  23.740  0.00  0.00    +0.117 A 
ATOM     12  C   UNL     1      11.064   1.470  24.198  0.00  0.00    +0.046 A 
ATOM     13  C   UNL     1      10.353   0.458  24.851  0.00  0.00    +0.012 A 
BRANCH  11  14
ATOM     14  O   UNL     1      11.020   3.575  23.049  0.00  0.00    -0.507 OA
ATOM     15  H   UNL     1      10.984   4.393  23.571  0.00  0.00    +0.292 HD
ENDBRANCH  11  14
ENDBRANCH   5   8
BRANCH   6  16
ATOM     16  C   UNL     1       6.128   0.228  26.790  0.00  0.00    -0.019 A 
ATOM     17  C   UNL     1       6.031   0.457  28.165  0.00  0.00    +0.012 A 
ATOM     18  C   UNL     1       5.097   1.371  28.663  0.00  0.00    +0.046 A 
ATOM     19  C   UNL     1       4.264   2.058  27.786  0.00  0.00    +0.117 A 
ATOM     20  C   UNL     1       4.346   1.844  26.416  0.00  0.00    +0.046 A 
ATOM     21  C   UNL     1       5.280   0.930  25.921  0.00  0.00    +0.012 A 
BRANCH  19  22
ATOM     22  O   UNL     1       3.369   2.940  28.313  0.00  0.00    -0.507 OA
ATOM     23  H   UNL     1       3.859   3.686  28.697  0.00  0.00    +0.292 HD
ENDBRANCH  19  22
ENDBRANCH   6  16
BRANCH   2  24
ATOM     24  C   UNL     1       5.057  -2.718  24.784  0.00  0.00    +0.314 C 
ATOM     25  O   UNL     1       4.260  -2.053  25.429  0.00  0.00    -0.250 OA
BRANCH  24  26
ATOM     26  O   UNL     1       4.734  -3.494  23.711  0.00  0.00    -0.465 OA
BRANCH  26  27
ATOM     27  C   UNL     1       3.679  -4.444  23.939  0.00  0.00    +0.229 C 
ATOM     28  C   UNL     1       4.329  -5.798  24.146  0.00  0.00    +0.048 C 
ENDBRANCH  26  27
ENDBRANCH  24  26
ENDBRANCH   2  24
BRANCH   3  29
ATOM     29  C   UNL     1       7.444  -2.019  22.981  0.00  0.00    +0.314 C 
ATOM     30  O   UNL     1       6.546  -1.201  22.821  0.00  0.00    -0.250 OA
BRANCH  29  31
ATOM     31  O   UNL     1       8.329  -2.393  22.023  0.00  0.00    -0.465 OA
BRANCH  31  32
ATOM     32  C   UNL     1       9.572  -1.673  21.980  0.00  0.00    +0.229 C 
ATOM     33  C   UNL     1       9.336  -0.308  21.374  0.00  0.00    +0.048 C 
ENDBRANCH  31  32
ENDBRANCH  29  31
ENDBRANCH   3  29
TORSDOF 10
ENDMDL
MODEL 8
REMARK VINA RESULT:      -5.5      2.328      5.231
REMARK  Name = 
REMARK  12 active torsions:
REMARK  status: ('A' for Active; 'I' for Inactive)
REMARK    1  A    between atoms: C_6  and  C_15
REMARK    2  A    between atoms: C_7  and  C_8
REMARK    3  A    between atoms: C_11  and  O_12
REMARK    4  A    between atoms: C_18  and  O_19
REMARK    5  A    between atoms: C_22  and  C_24
REMARK    6  A    between atoms: C_24  and  O_26
REMARK    7  A    between atoms: O_26  and  C_27
REMARK    8  A    between atoms: C_27  and  C_28
REMARK    9  A    between atoms: C_29  and  C_31
REMARK   10  A    between atoms: C_31  and  O_33
REMARK   11  A    between atoms: O_33  and  C_34
REMARK   12  A    between atoms: C_34  and  C_35
REMARK                            x       y       z     vdW  Elec       q    Type
REMARK                         _______ _______ _______ _____ _____    ______ ____
ROOT
ATOM      1  C   UNL     1       7.701  -1.698  22.822  0.00  0.00    +0.165 C 
ATOM      2  C   UNL     1       8.048  -2.847  23.775  0.00  0.00    +0.147 C 
ATOM      3  C   UNL     1       6.813  -2.865  24.703  0.00  0.00    +0.147 C 
ATOM      4  C   UNL     1       5.886  -1.846  24.007  0.00  0.00    +0.165 C 
ATOM      5  C   UNL     1       6.364  -0.425  24.189  0.00  0.00    -0.005 C 
ATOM      6  C   UNL     1       7.531  -0.364  23.511  0.00  0.00    -0.005 C 
ATOM      7  O   UNL     1       6.293  -2.038  22.618  0.00  0.00    -0.362 OA
ENDROOT
BRANCH   5   8
ATOM      8  C   UNL     1       5.621   0.524  25.025  0.00  0.00    -0.019 A 
ATOM      9  C   UNL     1       5.145   0.170  26.293  0.00  0.00    +0.012 A 
ATOM     10  C   UNL     1       4.277   1.012  26.998  0.00  0.00    +0.046 A 
ATOM     11  C   UNL     1       3.896   2.226  26.447  0.00  0.00    +0.117 A 
ATOM     12  C   UNL     1       4.399   2.635  25.222  0.00  0.00    +0.046 A 
ATOM     13  C   UNL     1       5.261   1.786  24.520  0.00  0.00    +0.012 A 
BRANCH  11  14
ATOM     14  O   UNL     1       3.010   2.992  27.144  0.00  0.00    -0.507 OA
ATOM     15  H   UNL     1       3.406   3.227  27.998  0.00  0.00    +0.292 HD
ENDBRANCH  11  14
ENDBRANCH   5   8
BRANCH   6  16
ATOM     16  C   UNL     1       8.512   0.698  23.352  0.00  0.00    -0.019 A 
ATOM     17  C   UNL     1       8.830   1.547  24.416  0.00  0.00    +0.012 A 
ATOM     18  C   UNL     1       9.749   2.586  24.236  0.00  0.00    +0.046 A 
ATOM     19  C   UNL     1      10.352   2.773  22.997  0.00  0.00    +0.117 A 
ATOM     20  C   UNL     1      10.049   1.938  21.928  0.00  0.00    +0.046 A 
ATOM     21  C   UNL     1       9.130   0.901  22.110  0.00  0.00    +0.012 A 
BRANCH  19  22
ATOM     22  O   UNL     1      11.242   3.796  22.866  0.00  0.00    -0.507 OA
ATOM     23  H   UNL     1      10.852   4.596  23.257  0.00  0.00    +0.292 HD
ENDBRANCH  19  22
ENDBRANCH   6  16
BRANCH   2  24
ATOM     24  C   UNL     1       9.441  -2.774  24.318  0.00  0.00    +0.314 C 
ATOM     25  O   UNL     1      10.043  -1.729  24.513  0.00  0.00    -0.250 OA
BRANCH  24  26
ATOM     26  O   UNL     1      10.008  -4.013  24.334  0.00  0.00    -0.465 OA
BRANCH  26  27
ATOM     27  C   UNL     1       9.795  -4.767  25.539  0.00  0.00    +0.229 C 
ATOM     28  C   UNL     1       8.994  -5.999  25.164  0.00  0.00    +0.048 C 
ENDBRANCH  26  27
ENDBRANCH  24  26
ENDBRANCH   2  24
BRANCH   3  29
ATOM     29  C   UNL     1       7.004  -2.620  26.182  0.00  0.00    +0.314 C 
ATOM     30  O   UNL     1       7.912  -1.927  26.625  0.00  0.00    -0.250 OA
BRANCH  29  31
ATOM     31  O   UNL     1       6.078  -3.257  26.941  0.00  0.00    -0.465 OA
BRANCH  31  32
ATOM     32  C   UNL     1       5.861  -4.649  26.658  0.00  0.00    +0.229 C 
ATOM     33  C   UNL     1       6.436  -5.481  27.781  0.00  0.00    +0.048 C 
ENDBRANCH  31  32
ENDBRANCH  29  31
ENDBRANCH   3  29
TORSDOF 10
ENDMDL
MODEL 9
REMARK VINA RESULT:      -5.4      2.214      5.534
REMARK  Name = 
REMARK  12 active torsions:
REMARK  status: ('A' for Active; 'I' for Inactive)
REMARK    1  A    between atoms: C_6  and  C_15
REMARK    2  A    between atoms: C_7  and  C_8
REMARK    3  A    between atoms: C_11  and  O_12
REMARK    4  A    between atoms: C_18  and  O_19
REMARK    5  A    between atoms: C_22  and  C_24
REMARK    6  A    between atoms: C_24  and  O_26
REMARK    7  A    between atoms: O_26  and  C_27
REMARK    8  A    between atoms: C_27  and  C_28
REMARK    9  A    between atoms: C_29  and  C_31
REMARK   10  A    between atoms: C_31  and  O_33
REMARK   11  A    between atoms: O_33  and  C_34
REMARK   12  A    between atoms: C_34  and  C_35
REMARK                            x       y       z     vdW  Elec       q    Type
REMARK                         _______ _______ _______ _____ _____    ______ ____
ROOT
ATOM      1  C   UNL     1       6.253  -1.870  22.988  0.00  0.00    +0.165 C 
ATOM      2  C   UNL     1       7.682  -2.365  22.749  0.00  0.00    +0.147 C 
ATOM      3  C   UNL     1       7.441  -3.838  22.353  0.00  0.00    +0.147 C 
ATOM      4  C   UNL     1       5.902  -3.884  22.252  0.00  0.00    +0.165 C 
ATOM      5  C   UNL     1       5.240  -3.836  23.610  0.00  0.00    -0.005 C 
ATOM      6  C   UNL     1       5.527  -2.607  24.090  0.00  0.00    -0.005 C 
ATOM      7  O   UNL     1       5.632  -2.512  21.829  0.00  0.00    -0.362 OA
ENDROOT
BRANCH   5   8
ATOM      8  C   UNL     1       4.541  -5.005  24.154  0.00  0.00    -0.019 A 
ATOM      9  C   UNL     1       5.133  -5.834  25.113  0.00  0.00    +0.012 A 
ATOM     10  C   UNL     1       4.540  -7.047  25.482  0.00  0.00    +0.046 A 
ATOM     11  C   UNL     1       3.337  -7.430  24.907  0.00  0.00    +0.117 A 
ATOM     12  C   UNL     1       2.693  -6.602  24.001  0.00  0.00    +0.046 A 
ATOM     13  C   UNL     1       3.294  -5.393  23.633  0.00  0.00    +0.012 A 
BRANCH  11  14
ATOM     14  O   UNL     1       2.820  -8.642  25.256  0.00  0.00    -0.507 OA
ATOM     15  H   UNL     1       3.005  -9.275  24.544  0.00  0.00    +0.292 HD
ENDBRANCH  11  14
ENDBRANCH   5   8
BRANCH   6  16
ATOM     16  C   UNL     1       5.241  -1.967  25.365  0.00  0.00    -0.019 A 
ATOM     17  C   UNL     1       5.204  -0.575  25.477  0.00  0.00    +0.012 A 
ATOM     18  C   UNL     1       4.962   0.025  26.718  0.00  0.00    +0.046 A 
ATOM     19  C   UNL     1       4.753  -0.767  27.842  0.00  0.00    +0.117 A 
ATOM     20  C   UNL     1       4.785  -2.153  27.749  0.00  0.00    +0.046 A 
ATOM     21  C   UNL     1       5.027  -2.749  26.509  0.00  0.00    +0.012 A 
BRANCH  19  22
ATOM     22  O   UNL     1       4.520  -0.141  29.030  0.00  0.00    -0.507 OA
ATOM     23  H   UNL     1       3.871   0.567  28.884  0.00  0.00    +0.292 HD
ENDBRANCH  19  22
ENDBRANCH   6  16
BRANCH   2  24
ATOM     24  C   UNL     1       8.636  -1.988  23.840  0.00  0.00    +0.314 C 
ATOM     25  O   UNL     1       8.303  -1.792  25.000  0.00  0.00    -0.250 OA
BRANCH  24  26
ATOM     26  O   UNL     1       9.853  -1.672  23.316  0.00  0.00    -0.465 OA
BRANCH  26  27
ATOM     27  C   UNL     1       9.825  -1.144  21.979  0.00  0.00    +0.229 C 
ATOM     28  C   UNL     1       9.978   0.361  22.085  0.00  0.00    +0.048 C 
ENDBRANCH  26  27
ENDBRANCH  24  26
ENDBRANCH   2  24
BRANCH   3  29
ATOM     29  C   UNL     1       8.038  -4.934  23.205  0.00  0.00    +0.314 C 
ATOM     30  O   UNL     1       8.047  -6.109  22.859  0.00  0.00    -0.250 OA
BRANCH  29  31
ATOM     31  O   UNL     1       8.539  -4.471  24.378  0.00  0.00    -0.465 OA
BRANCH  31  32
ATOM     32  C   UNL     1       8.793  -5.448  25.399  0.00  0.00    +0.229 C 
ATOM     33  C   UNL     1       8.181  -4.980  26.700  0.00  0.00    +0.048 C 
ENDBRANCH  31  32
ENDBRANCH  29  31
ENDBRANCH   3  29
TORSDOF 10
ENDMDL
