MODEL 1
REMARK VINA RESULT:      -5.0      0.000      0.000
REMARK  Name = 
REMARK  11 active torsions:
REMARK  status: ('A' for Active; 'I' for Inactive)
REMARK    1  A    between atoms: CA_2  and  C_3
REMARK    2  A    between atoms: CA_2  and  N_6
REMARK    3  A    between atoms: CA_2  and  C_14
REMARK    4  A    between atoms: C_3  and  C_4
REMARK    5  A    between atoms: C_4  and  O_5
REMARK    6  A    between atoms: C_7  and  C_9
REMARK    7  A    between atoms: C_9  and  C_10
REMARK    8  A    between atoms: C_10  and  C_11
REMARK    9  A    between atoms: C_11  and  C_12
REMARK   10  A    between atoms: C_12  and  C_13
REMARK   11  A    between atoms: C_14  and  O_15
REMARK                            x       y       z     vdW  Elec       q    Type
REMARK                         _______ _______ _______ _____ _____    ______ ____
ROOT
ATOM      1  CA  UNL     1      10.691   4.765  24.020  0.00  0.00    +0.184 C 
ENDROOT
BRANCH   1   2
ATOM      2  N   UNL     1      10.622   3.754  22.968  0.00  0.00    -0.302 N 
ATOM      3  H   UNL     1      10.949   4.020  22.045  0.00  0.00    +0.150 HD
ATOM      4  C   UNL     1      10.201   2.472  23.208  0.00  0.00    +0.214 C 
ATOM      5  O   UNL     1       9.809   2.098  24.308  0.00  0.00    -0.276 OA
BRANCH   4   6
ATOM      6  C   UNL     1      10.220   1.559  21.998  0.00  0.00    +0.096 C 
BRANCH   6   7
ATOM      7  C   UNL     1       8.902   0.823  21.759  0.00  0.00    +0.009 C 
BRANCH   7   8
ATOM      8  C   UNL     1       9.093  -0.688  21.609  0.00  0.00    +0.000 C 
BRANCH   8   9
ATOM      9  C   UNL     1      10.336  -1.164  22.360  0.00  0.00    -0.003 C 
ATOM     10  C   UNL     1       9.969  -2.096  23.503  0.00  0.00    +0.004 C 
ENDBRANCH   8   9
ENDBRANCH   7   8
ENDBRANCH   6   7
ENDBRANCH   4   6
ENDBRANCH   1   2
BRANCH   1  11
ATOM     11  C   UNL     1       9.370   5.535  23.922  0.00  0.00    +0.325 C 
ATOM     12  OXT UNL     1       8.546   5.567  24.830  0.00  0.00    -0.249 OA
BRANCH  11  13
ATOM     13  O   UNL     1       9.224   6.258  22.790  0.00  0.00    -0.479 OA
ATOM     14  H   UNL     1       8.334   6.209  22.392  0.00  0.00    +0.295 HD
ENDBRANCH  11  13
ENDBRANCH   1  11
BRANCH   1  15
ATOM     15  C   UNL     1      11.906   5.674  23.802  0.00  0.00    +0.061 C 
BRANCH  15  16
ATOM     16  C   UNL     1      12.844   5.171  22.712  0.00  0.00    +0.158 C 
BRANCH  16  17
ATOM     17  O   UNL     1      14.184   5.138  23.167  0.00  0.00    -0.395 OA
ATOM     18  H   UNL     1      14.292   5.806  23.871  0.00  0.00    +0.209 HD
ENDBRANCH  16  17
ENDBRANCH  15  16
ENDBRANCH   1  15
TORSDOF 10
ENDMDL
MODEL 2
REMARK VINA RESULT:      -5.0      4.439      8.096
REMARK  Name = 
REMARK  11 active torsions:
REMARK  status: ('A' for Active; 'I' for Inactive)
REMARK    1  A    between atoms: CA_2  and  C_3
REMARK    2  A    between atoms: CA_2  and  N_6
REMARK    3  A    between atoms: CA_2  and  C_14
REMARK    4  A    between atoms: C_3  and  C_4
REMARK    5  A    between atoms: C_4  and  O_5
REMARK    6  A    between atoms: C_7  and  C_9
REMARK    7  A    between atoms: C_9  and  C_10
REMARK    8  A    between atoms: C_10  and  C_11
REMARK    9  A    between atoms: C_11  and  C_12
REMARK   10  A    between atoms: C_12  and  C_13
REMARK   11  A    between atoms: C_14  and  O_15
REMARK                            x       y       z     vdW  Elec       q    Type
REMARK                         _______ _______ _______ _____ _____    ______ ____
ROOT
ATOM      1  CA  UNL     1       8.197  -3.765  24.868  0.00  0.00    +0.184 C 
ENDROOT
BRANCH   1   2
ATOM      2  N   UNL     1       8.980  -3.193  23.775  0.00  0.00    -0.302 N 
ATOM      3  H   UNL     1       9.046  -3.733  22.918  0.00  0.00    +0.150 HD
ATOM      4  C   UNL     1       9.557  -1.953  23.856  0.00  0.00    +0.214 C 
ATOM      5  O   UNL     1       9.495  -1.257  24.864  0.00  0.00    -0.276 OA
BRANCH   4   6
ATOM      6  C   UNL     1      10.311  -1.519  22.615  0.00  0.00    +0.096 C 
BRANCH   6   7
ATOM      7  C   UNL     1       9.420  -0.912  21.531  0.00  0.00    +0.009 C 
BRANCH   7   8
ATOM      8  C   UNL     1       8.896   0.474  21.911  0.00  0.00    +0.000 C 
BRANCH   8   9
ATOM      9  C   UNL     1      10.035   1.491  21.990  0.00  0.00    -0.003 C 
ATOM     10  C   UNL     1      10.133   2.106  23.377  0.00  0.00    +0.004 C 
ENDBRANCH   8   9
ENDBRANCH   7   8
ENDBRANCH   6   7
ENDBRANCH   4   6
ENDBRANCH   1   2
BRANCH   1  11
ATOM     11  C   UNL     1       9.190  -4.609  25.673  0.00  0.00    +0.325 C 
ATOM     12  OXT UNL     1       9.239  -4.595  26.899  0.00  0.00    -0.249 OA
BRANCH  11  13
ATOM     13  O   UNL     1       9.945  -5.448  24.931  0.00  0.00    -0.479 OA
ATOM     14  H   UNL     1       9.436  -6.008  24.314  0.00  0.00    +0.295 HD
ENDBRANCH  11  13
ENDBRANCH   1  11
BRANCH   1  15
ATOM     15  C   UNL     1       7.045  -4.607  24.308  0.00  0.00    +0.061 C 
BRANCH  15  16
ATOM     16  C   UNL     1       7.179  -4.893  22.818  0.00  0.00    +0.158 C 
BRANCH  16  17
ATOM     17  O   UNL     1       8.073  -5.965  22.582  0.00  0.00    -0.395 OA
ATOM     18  H   UNL     1       8.773  -5.944  23.261  0.00  0.00    +0.209 HD
ENDBRANCH  16  17
ENDBRANCH  15  16
ENDBRANCH   1  15
TORSDOF 10
ENDMDL
MODEL 3
REMARK VINA RESULT:      -4.9      5.961      8.804
REMARK  Name = 
REMARK  11 active torsions:
REMARK  status: ('A' for Active; 'I' for Inactive)
REMARK    1  A    between atoms: CA_2  and  C_3
REMARK    2  A    between atoms: CA_2  and  N_6
REMARK    3  A    between atoms: CA_2  and  C_14
REMARK    4  A    between atoms: C_3  and  C_4
REMARK    5  A    between atoms: C_4  and  O_5
REMARK    6  A    between atoms: C_7  and  C_9
REMARK    7  A    between atoms: C_9  and  C_10
REMARK    8  A    between atoms: C_10  and  C_11
REMARK    9  A    between atoms: C_11  and  C_12
REMARK   10  A    between atoms: C_12  and  C_13
REMARK   11  A    between atoms: C_14  and  O_15
REMARK                            x       y       z     vdW  Elec       q    Type
REMARK                         _______ _______ _______ _____ _____    ______ ____
ROOT
ATOM      1  CA  UNL     1       7.495  -5.005  23.856  0.00  0.00    +0.184 C 
ENDROOT
BRANCH   1   2
ATOM      2  N   UNL     1       8.047  -3.656  23.754  0.00  0.00    -0.302 N 
ATOM      3  H   UNL     1       7.427  -2.923  23.425  0.00  0.00    +0.150 HD
ATOM      4  C   UNL     1       9.326  -3.355  24.144  0.00  0.00    +0.214 C 
ATOM      5  O   UNL     1      10.109  -4.202  24.560  0.00  0.00    -0.276 OA
BRANCH   4   6
ATOM      6  C   UNL     1       9.713  -1.898  23.986  0.00  0.00    +0.096 C 
BRANCH   6   7
ATOM      7  C   UNL     1      10.335  -1.568  22.629  0.00  0.00    +0.009 C 
BRANCH   7   8
ATOM      8  C   UNL     1       9.395  -0.756  21.735  0.00  0.00    +0.000 C 
BRANCH   8   9
ATOM      9  C   UNL     1       9.738   0.732  21.781  0.00  0.00    -0.003 C 
ATOM     10  C   UNL     1       8.507   1.591  21.542  0.00  0.00    +0.004 C 
ENDBRANCH   8   9
ENDBRANCH   7   8
ENDBRANCH   6   7
ENDBRANCH   4   6
ENDBRANCH   1   2
BRANCH   1  11
ATOM     11  C   UNL     1       6.829  -5.268  22.501  0.00  0.00    +0.325 C 
ATOM     12  OXT UNL     1       6.280  -4.390  21.845  0.00  0.00    -0.249 OA
BRANCH  11  13
ATOM     13  O   UNL     1       6.980  -6.528  22.037  0.00  0.00    -0.479 OA
ATOM     14  H   UNL     1       7.296  -7.167  22.704  0.00  0.00    +0.295 HD
ENDBRANCH  11  13
ENDBRANCH   1  11
BRANCH   1  15
ATOM     15  C   UNL     1       6.495  -5.081  25.015  0.00  0.00    +0.061 C 
BRANCH  15  16
ATOM     16  C   UNL     1       7.163  -5.182  26.379  0.00  0.00    +0.158 C 
BRANCH  16  17
ATOM     17  O   UNL     1       8.408  -5.851  26.291  0.00  0.00    -0.395 OA
ATOM     18  H   UNL     1       8.530  -6.392  27.094  0.00  0.00    +0.209 HD
ENDBRANCH  16  17
ENDBRANCH  15  16
ENDBRANCH   1  15
TORSDOF 10
ENDMDL
MODEL 4
REMARK VINA RESULT:      -4.8      5.024      8.149
REMARK  Name = 
REMARK  11 active torsions:
REMARK  status: ('A' for Active; 'I' for Inactive)
REMARK    1  A    between atoms: CA_2  and  C_3
REMARK    2  A    between atoms: CA_2  and  N_6
REMARK    3  A    between atoms: CA_2  and  C_14
REMARK    4  A    between atoms: C_3  and  C_4
REMARK    5  A    between atoms: C_4  and  O_5
REMARK    6  A    between atoms: C_7  and  C_9
REMARK    7  A    between atoms: C_9  and  C_10
REMARK    8  A    between atoms: C_10  and  C_11
REMARK    9  A    between atoms: C_11  and  C_12
REMARK   10  A    between atoms: C_12  and  C_13
REMARK   11  A    between atoms: C_14  and  O_15
REMARK                            x       y       z     vdW  Elec       q    Type
REMARK                         _______ _______ _______ _____ _____    ______ ____
ROOT
ATOM      1  CA  UNL     1       8.295  -4.260  24.640  0.00  0.00    +0.184 C 
ENDROOT
BRANCH   1   2
ATOM      2  N   UNL     1       9.138  -3.201  24.090  0.00  0.00    -0.302 N 
ATOM      3  H   UNL     1       9.735  -3.441  23.305  0.00  0.00    +0.150 HD
ATOM      4  C   UNL     1       9.094  -1.912  24.555  0.00  0.00    +0.214 C 
ATOM      5  O   UNL     1       8.381  -1.569  25.491  0.00  0.00    -0.276 OA
BRANCH   4   6
ATOM      6  C   UNL     1      10.024  -0.948  23.846  0.00  0.00    +0.096 C 
BRANCH   6   7
ATOM      7  C   UNL     1      10.264  -1.289  22.376  0.00  0.00    +0.009 C 
BRANCH   7   8
ATOM      8  C   UNL     1       9.459  -0.398  21.428  0.00  0.00    +0.000 C 
BRANCH   8   9
ATOM      9  C   UNL     1       9.642   1.080  21.771  0.00  0.00    -0.003 C 
ATOM     10  C   UNL     1       8.334   1.844  21.644  0.00  0.00    +0.004 C 
ENDBRANCH   8   9
ENDBRANCH   7   8
ENDBRANCH   6   7
ENDBRANCH   4   6
ENDBRANCH   1   2
BRANCH   1  11
ATOM     11  C   UNL     1       9.138  -4.911  25.741  0.00  0.00    +0.325 C 
ATOM     12  OXT UNL     1       8.930  -4.730  26.936  0.00  0.00    -0.249 OA
BRANCH  11  13
ATOM     13  O   UNL     1      10.069  -5.782  25.294  0.00  0.00    -0.479 OA
ATOM     14  H   UNL     1       9.939  -6.701  25.596  0.00  0.00    +0.295 HD
ENDBRANCH  11  13
ENDBRANCH   1  11
BRANCH   1  15
ATOM     15  C   UNL     1       7.914  -5.257  23.539  0.00  0.00    +0.061 C 
BRANCH  15  16
ATOM     16  C   UNL     1       7.149  -4.616  22.388  0.00  0.00    +0.158 C 
BRANCH  16  17
ATOM     17  O   UNL     1       6.427  -3.479  22.823  0.00  0.00    -0.395 OA
ATOM     18  H   UNL     1       5.646  -3.779  23.328  0.00  0.00    +0.209 HD
ENDBRANCH  16  17
ENDBRANCH  15  16
ENDBRANCH   1  15
TORSDOF 10
ENDMDL
MODEL 5
REMARK VINA RESULT:      -4.8      4.967      8.355
REMARK  Name = 
REMARK  11 active torsions:
REMARK  status: ('A' for Active; 'I' for Inactive)
REMARK    1  A    between atoms: CA_2  and  C_3
REMARK    2  A    between atoms: CA_2  and  N_6
REMARK    3  A    between atoms: CA_2  and  C_14
REMARK    4  A    between atoms: C_3  and  C_4
REMARK    5  A    between atoms: C_4  and  O_5
REMARK    6  A    between atoms: C_7  and  C_9
REMARK    7  A    between atoms: C_9  and  C_10
REMARK    8  A    between atoms: C_10  and  C_11
REMARK    9  A    between atoms: C_11  and  C_12
REMARK   10  A    between atoms: C_12  and  C_13
REMARK   11  A    between atoms: C_14  and  O_15
REMARK                            x       y       z     vdW  Elec       q    Type
REMARK                         _______ _______ _______ _____ _____    ______ ____
ROOT
ATOM      1  CA  UNL     1       7.998  -4.554  23.450  0.00  0.00    +0.184 C 
ENDROOT
BRANCH   1   2
ATOM      2  N   UNL     1       8.049  -3.109  23.242  0.00  0.00    -0.302 N 
ATOM      3  H   UNL     1       7.176  -2.640  23.021  0.00  0.00    +0.150 HD
ATOM      4  C   UNL     1       9.202  -2.385  23.397  0.00  0.00    +0.214 C 
ATOM      5  O   UNL     1      10.278  -2.903  23.676  0.00  0.00    -0.276 OA
BRANCH   4   6
ATOM      6  C   UNL     1       9.054  -0.895  23.161  0.00  0.00    +0.096 C 
BRANCH   6   7
ATOM      7  C   UNL     1       9.614  -0.424  21.819  0.00  0.00    +0.009 C 
BRANCH   7   8
ATOM      8  C   UNL     1       9.302   1.047  21.536  0.00  0.00    +0.000 C 
BRANCH   8   9
ATOM      9  C   UNL     1      10.214   1.970  22.343  0.00  0.00    -0.003 C 
ATOM     10  C   UNL     1       9.410   2.890  23.247  0.00  0.00    +0.004 C 
ENDBRANCH   8   9
ENDBRANCH   7   8
ENDBRANCH   6   7
ENDBRANCH   4   6
ENDBRANCH   1   2
BRANCH   1  11
ATOM     11  C   UNL     1       6.947  -5.065  22.460  0.00  0.00    +0.325 C 
ATOM     12  OXT UNL     1       6.057  -4.355  22.005  0.00  0.00    -0.249 OA
BRANCH  11  13
ATOM     13  O   UNL     1       7.136  -6.339  22.049  0.00  0.00    -0.479 OA
ATOM     14  H   UNL     1       6.391  -6.711  21.540  0.00  0.00    +0.295 HD
ENDBRANCH  11  13
ENDBRANCH   1  11
BRANCH   1  15
ATOM     15  C   UNL     1       7.621  -4.865  24.904  0.00  0.00    +0.061 C 
BRANCH  15  16
ATOM     16  C   UNL     1       8.793  -5.373  25.733  0.00  0.00    +0.158 C 
BRANCH  16  17
ATOM     17  O   UNL     1       9.942  -5.568  24.928  0.00  0.00    -0.395 OA
ATOM     18  H   UNL     1       9.867  -5.007  24.134  0.00  0.00    +0.209 HD
ENDBRANCH  16  17
ENDBRANCH  15  16
ENDBRANCH   1  15
TORSDOF 10
ENDMDL
MODEL 6
REMARK VINA RESULT:      -4.7      4.976      7.764
REMARK  Name = 
REMARK  11 active torsions:
REMARK  status: ('A' for Active; 'I' for Inactive)
REMARK    1  A    between atoms: CA_2  and  C_3
REMARK    2  A    between atoms: CA_2  and  N_6
REMARK    3  A    between atoms: CA_2  and  C_14
REMARK    4  A    between atoms: C_3  and  C_4
REMARK    5  A    between atoms: C_4  and  O_5
REMARK    6  A    between atoms: C_7  and  C_9
REMARK    7  A    between atoms: C_9  and  C_10
REMARK    8  A    between atoms: C_10  and  C_11
REMARK    9  A    between atoms: C_11  and  C_12
REMARK   10  A    between atoms: C_12  and  C_13
REMARK   11  A    between atoms: C_14  and  O_15
REMARK                            x       y       z     vdW  Elec       q    Type
REMARK                         _______ _______ _______ _____ _____    ______ ____
ROOT
ATOM      1  CA  UNL     1       7.721  -3.452  22.677  0.00  0.00    +0.184 C 
ENDROOT
BRANCH   1   2
ATOM      2  N   UNL     1       8.066  -2.363  23.587  0.00  0.00    -0.302 N 
ATOM      3  H   UNL     1       7.301  -1.896  24.065  0.00  0.00    +0.150 HD
ATOM      4  C   UNL     1       9.363  -2.010  23.853  0.00  0.00    +0.214 C 
ATOM      5  O   UNL     1      10.321  -2.553  23.312  0.00  0.00    -0.276 OA
BRANCH   4   6
ATOM      6  C   UNL     1       9.524  -0.872  24.840  0.00  0.00    +0.096 C 
BRANCH   6   7
ATOM      7  C   UNL     1      10.513   0.202  24.388  0.00  0.00    +0.009 C 
BRANCH   7   8
ATOM      8  C   UNL     1       9.821   1.398  23.731  0.00  0.00    +0.000 C 
BRANCH   8   9
ATOM      9  C   UNL     1      10.118   1.454  22.233  0.00  0.00    -0.003 C 
ATOM     10  C   UNL     1       9.026   0.769  21.426  0.00  0.00    +0.004 C 
ENDBRANCH   8   9
ENDBRANCH   7   8
ENDBRANCH   6   7
ENDBRANCH   4   6
ENDBRANCH   1   2
BRANCH   1  11
ATOM     11  C   UNL     1       6.337  -3.092  22.128  0.00  0.00    +0.325 C 
ATOM     12  OXT UNL     1       5.721  -3.810  21.347  0.00  0.00    -0.249 OA
BRANCH  11  13
ATOM     13  O   UNL     1       5.803  -1.965  22.647  0.00  0.00    -0.479 OA
ATOM     14  H   UNL     1       6.267  -1.626  23.436  0.00  0.00    +0.295 HD
ENDBRANCH  11  13
ENDBRANCH   1  11
BRANCH   1  15
ATOM     15  C   UNL     1       7.713  -4.788  23.430  0.00  0.00    +0.061 C 
BRANCH  15  16
ATOM     16  C   UNL     1       6.752  -4.805  24.612  0.00  0.00    +0.158 C 
BRANCH  16  17
ATOM     17  O   UNL     1       7.361  -4.272  25.774  0.00  0.00    -0.395 OA
ATOM     18  H   UNL     1       8.256  -4.651  25.860  0.00  0.00    +0.209 HD
ENDBRANCH  16  17
ENDBRANCH  15  16
ENDBRANCH   1  15
TORSDOF 10
ENDMDL
MODEL 7
REMARK VINA RESULT:      -4.6      3.718      5.514
REMARK  Name = 
REMARK  11 active torsions:
REMARK  status: ('A' for Active; 'I' for Inactive)
REMARK    1  A    between atoms: CA_2  and  C_3
REMARK    2  A    between atoms: CA_2  and  N_6
REMARK    3  A    between atoms: CA_2  and  C_14
REMARK    4  A    between atoms: C_3  and  C_4
REMARK    5  A    between atoms: C_4  and  O_5
REMARK    6  A    between atoms: C_7  and  C_9
REMARK    7  A    between atoms: C_9  and  C_10
REMARK    8  A    between atoms: C_10  and  C_11
REMARK    9  A    between atoms: C_11  and  C_12
REMARK   10  A    between atoms: C_12  and  C_13
REMARK   11  A    between atoms: C_14  and  O_15
REMARK                            x       y       z     vdW  Elec       q    Type
REMARK                         _______ _______ _______ _____ _____    ______ ____
ROOT
ATOM      1  CA  UNL     1       9.971   0.092  23.457  0.00  0.00    +0.184 C 
ENDROOT
BRANCH   1   2
ATOM      2  N   UNL     1       8.918  -0.887  23.194  0.00  0.00    -0.302 N 
ATOM      3  H   UNL     1       8.017  -0.530  22.892  0.00  0.00    +0.150 HD
ATOM      4  C   UNL     1       9.133  -2.237  23.281  0.00  0.00    +0.214 C 
ATOM      5  O   UNL     1      10.206  -2.717  23.629  0.00  0.00    -0.276 OA
BRANCH   4   6
ATOM      6  C   UNL     1       7.928  -3.096  22.950  0.00  0.00    +0.096 C 
BRANCH   6   7
ATOM      7  C   UNL     1       7.823  -4.364  23.796  0.00  0.00    +0.009 C 
BRANCH   7   8
ATOM      8  C   UNL     1       7.630  -5.622  22.947  0.00  0.00    +0.000 C 
BRANCH   8   9
ATOM      9  C   UNL     1       6.205  -5.706  22.400  0.00  0.00    -0.003 C 
ATOM     10  C   UNL     1       6.197  -5.742  20.880  0.00  0.00    +0.004 C 
ENDBRANCH   8   9
ENDBRANCH   7   8
ENDBRANCH   6   7
ENDBRANCH   4   6
ENDBRANCH   1   2
BRANCH   1  11
ATOM     11  C   UNL     1       9.547   0.799  24.748  0.00  0.00    +0.325 C 
ATOM     12  OXT UNL     1       8.855   1.811  24.759  0.00  0.00    -0.249 OA
BRANCH  11  13
ATOM     13  O   UNL     1       9.914   0.164  25.883  0.00  0.00    -0.479 OA
ATOM     14  H   UNL     1       9.218   0.126  26.566  0.00  0.00    +0.295 HD
ENDBRANCH  11  13
ENDBRANCH   1  11
BRANCH   1  15
ATOM     15  C   UNL     1      10.093   1.066  22.279  0.00  0.00    +0.061 C 
BRANCH  15  16
ATOM     16  C   UNL     1       8.920   0.988  21.311  0.00  0.00    +0.158 C 
BRANCH  16  17
ATOM     17  O   UNL     1       7.776   1.633  21.842  0.00  0.00    -0.395 OA
ATOM     18  H   UNL     1       7.081   0.965  21.991  0.00  0.00    +0.209 HD
ENDBRANCH  16  17
ENDBRANCH  15  16
ENDBRANCH   1  15
TORSDOF 10
ENDMDL
MODEL 8
REMARK VINA RESULT:      -4.6      4.354      7.274
REMARK  Name = 
REMARK  11 active torsions:
REMARK  status: ('A' for Active; 'I' for Inactive)
REMARK    1  A    between atoms: CA_2  and  C_3
REMARK    2  A    between atoms: CA_2  and  N_6
REMARK    3  A    between atoms: CA_2  and  C_14
REMARK    4  A    between atoms: C_3  and  C_4
REMARK    5  A    between atoms: C_4  and  O_5
REMARK    6  A    between atoms: C_7  and  C_9
REMARK    7  A    between atoms: C_9  and  C_10
REMARK    8  A    between atoms: C_10  and  C_11
REMARK    9  A    between atoms: C_11  and  C_12
REMARK   10  A    between atoms: C_12  and  C_13
REMARK   11  A    between atoms: C_14  and  O_15
REMARK                            x       y       z     vdW  Elec       q    Type
REMARK                         _______ _______ _______ _____ _____    ______ ____
ROOT
ATOM      1  CA  UNL     1       8.200  -2.780  23.938  0.00  0.00    +0.184 C 
ENDROOT
BRANCH   1   2
ATOM      2  N   UNL     1       8.279  -1.848  22.816  0.00  0.00    -0.302 N 
ATOM      3  H   UNL     1       7.410  -1.433  22.493  0.00  0.00    +0.150 HD
ATOM      4  C   UNL     1       9.471  -1.481  22.247  0.00  0.00    +0.214 C 
ATOM      5  O   UNL     1      10.547  -1.944  22.609  0.00  0.00    -0.276 OA
BRANCH   4   6
ATOM      6  C   UNL     1       9.355  -0.487  21.110  0.00  0.00    +0.096 C 
BRANCH   6   7
ATOM      7  C   UNL     1       8.948   0.917  21.556  0.00  0.00    +0.009 C 
BRANCH   7   8
ATOM      8  C   UNL     1      10.118   1.708  22.145  0.00  0.00    +0.000 C 
BRANCH   8   9
ATOM      9  C   UNL     1       9.957   1.890  23.654  0.00  0.00    -0.003 C 
ATOM     10  C   UNL     1      10.960   1.045  24.423  0.00  0.00    +0.004 C 
ENDBRANCH   8   9
ENDBRANCH   7   8
ENDBRANCH   6   7
ENDBRANCH   4   6
ENDBRANCH   1   2
BRANCH   1  11
ATOM     11  C   UNL     1       7.947  -4.151  23.302  0.00  0.00    +0.325 C 
ATOM     12  OXT UNL     1       7.323  -4.298  22.257  0.00  0.00    -0.249 OA
BRANCH  11  13
ATOM     13  O   UNL     1       8.552  -5.182  23.933  0.00  0.00    -0.479 OA
ATOM     14  H   UNL     1       8.359  -6.058  23.547  0.00  0.00    +0.295 HD
ENDBRANCH  11  13
ENDBRANCH   1  11
BRANCH   1  15
ATOM     15  C   UNL     1       7.071  -2.368  24.889  0.00  0.00    +0.061 C 
BRANCH  15  16
ATOM     16  C   UNL     1       5.854  -1.803  24.168  0.00  0.00    +0.158 C 
BRANCH  16  17
ATOM     17  O   UNL     1       6.027  -0.429  23.872  0.00  0.00    -0.395 OA
ATOM     18  H   UNL     1       5.167   0.022  23.968  0.00  0.00    +0.209 HD
ENDBRANCH  16  17
ENDBRANCH  15  16
ENDBRANCH   1  15
TORSDOF 10
ENDMDL
MODEL 9
REMARK VINA RESULT:      -4.5      6.434      9.807
REMARK  Name = 
REMARK  11 active torsions:
REMARK  status: ('A' for Active; 'I' for Inactive)
REMARK    1  A    between atoms: CA_2  and  C_3
REMARK    2  A    between atoms: CA_2  and  N_6
REMARK    3  A    between atoms: CA_2  and  C_14
REMARK    4  A    between atoms: C_3  and  C_4
REMARK    5  A    between atoms: C_4  and  O_5
REMARK    6  A    between atoms: C_7  and  C_9
REMARK    7  A    between atoms: C_9  and  C_10
REMARK    8  A    between atoms: C_10  and  C_11
REMARK    9  A    between atoms: C_11  and  C_12
REMARK   10  A    between atoms: C_12  and  C_13
REMARK   11  A    between atoms: C_14  and  O_15
REMARK                            x       y       z     vdW  Elec       q    Type
REMARK                         _______ _______ _______ _____ _____    ______ ____
ROOT
ATOM      1  CA  UNL     1       6.097  -5.462  24.067  0.00  0.00    +0.184 C 
ENDROOT
BRANCH   1   2
ATOM      2  N   UNL     1       6.871  -4.230  23.938  0.00  0.00    -0.302 N 
ATOM      3  H   UNL     1       6.353  -3.365  23.823  0.00  0.00    +0.150 HD
ATOM      4  C   UNL     1       8.238  -4.209  24.032  0.00  0.00    +0.214 C 
ATOM      5  O   UNL     1       8.908  -5.226  24.184  0.00  0.00    -0.276 OA
BRANCH   4   6
ATOM      6  C   UNL     1       8.865  -2.836  23.896  0.00  0.00    +0.096 C 
BRANCH   6   7
ATOM      7  C   UNL     1       8.639  -2.187  22.530  0.00  0.00    +0.009 C 
BRANCH   7   8
ATOM      8  C   UNL     1       9.840  -1.359  22.068  0.00  0.00    +0.000 C 
BRANCH   8   9
ATOM      9  C   UNL     1       9.390  -0.088  21.349  0.00  0.00    -0.003 C 
ATOM     10  C   UNL     1       9.924   1.157  22.039  0.00  0.00    +0.004 C 
ENDBRANCH   8   9
ENDBRANCH   7   8
ENDBRANCH   6   7
ENDBRANCH   4   6
ENDBRANCH   1   2
BRANCH   1  11
ATOM     11  C   UNL     1       5.227  -5.522  22.807  0.00  0.00    +0.325 C 
ATOM     12  OXT UNL     1       4.280  -4.768  22.612  0.00  0.00    -0.249 OA
BRANCH  11  13
ATOM     13  O   UNL     1       5.646  -6.410  21.878  0.00  0.00    -0.479 OA
ATOM     14  H   UNL     1       6.024  -6.003  21.075  0.00  0.00    +0.295 HD
ENDBRANCH  11  13
ENDBRANCH   1  11
BRANCH   1  15
ATOM     15  C   UNL     1       5.255  -5.426  25.348  0.00  0.00    +0.061 C 
BRANCH  15  16
ATOM     16  C   UNL     1       4.651  -6.776  25.708  0.00  0.00    +0.158 C 
BRANCH  16  17
ATOM     17  O   UNL     1       5.094  -7.212  26.981  0.00  0.00    -0.395 OA
ATOM     18  H   UNL     1       5.690  -7.975  26.860  0.00  0.00    +0.209 HD
ENDBRANCH  16  17
ENDBRANCH  15  16
ENDBRANCH   1  15
TORSDOF 10
ENDMDL
