MODEL 1
REMARK VINA RESULT:      -7.2      0.000      0.000
REMARK  Name = 
REMARK  8 active torsions:
REMARK  status: ('A' for Active; 'I' for Inactive)
REMARK    1  A    between atoms: C_1  and  C_2
REMARK    2  A    between atoms: C_2  and  C_3
REMARK    3  A    between atoms: C_2  and  N_12
REMARK    4  A    between atoms: C_3  and  O_4
REMARK    5  A    between atoms: C_3  and  C_5
REMARK    6  A    between atoms: C_8  and  O_9
REMARK    7  A    between atoms: C_15  and  C_16
REMARK    8  A    between atoms: C_16  and  C_17
REMARK                            x       y       z     vdW  Elec       q    Type
REMARK                         _______ _______ _______ _____ _____    ______ ____
ROOT
ATOM      1  C   UNL     1       8.366  -3.058  26.474  0.00  0.00    +0.027 C 
ATOM      2  C   UNL     1       8.915  -3.227  25.045  0.00  0.00    +0.087 C 
ENDROOT
BRANCH   2   3
ATOM      3  N   UNL     1       8.483  -2.228  24.030  0.00  0.00    -0.297 NA
ATOM      4  C   UNL     1       9.126  -2.329  22.720  0.00  0.00    +0.085 C 
ATOM      5  C   UNL     1      10.445  -1.564  22.596  0.00  0.00    +0.019 C 
ATOM      6  C   UNL     1      10.351  -0.112  23.090  0.00  0.00    -0.004 C 
ATOM      7  C   UNL     1       9.611  -0.034  24.438  0.00  0.00    +0.019 C 
ATOM      8  C   UNL     1       8.313  -0.833  24.433  0.00  0.00    +0.085 C 
BRANCH   6   9
ATOM      9  C   UNL     1       9.715   0.788  22.006  0.00  0.00    +0.038 C 
BRANCH   9  10
ATOM     10  C   UNL     1       9.489   2.196  22.505  0.00  0.00    -0.047 A 
ATOM     11  C   UNL     1       8.214   2.770  22.435  0.00  0.00    +0.003 A 
ATOM     12  C   UNL     1       7.966   4.003  23.038  0.00  0.00    +0.000 A 
ATOM     13  C   UNL     1       8.989   4.671  23.708  0.00  0.00    +0.000 A 
ATOM     14  C   UNL     1      10.268   4.122  23.754  0.00  0.00    +0.000 A 
ATOM     15  C   UNL     1      10.522   2.895  23.144  0.00  0.00    +0.003 A 
ENDBRANCH   9  10
ENDBRANCH   6   9
ENDBRANCH   2   3
BRANCH   2  16
ATOM     16  C   UNL     1       8.750  -4.742  24.640  0.00  0.00    +0.161 C 
BRANCH  16  17
ATOM     17  C   UNL     1       7.442  -5.193  24.008  0.00  0.00    -0.017 A 
ATOM     18  C   UNL     1       6.311  -5.328  24.839  0.00  0.00    +0.010 A 
ATOM     19  C   UNL     1       5.071  -5.683  24.312  0.00  0.00    +0.046 A 
ATOM     20  C   UNL     1       4.950  -5.922  22.952  0.00  0.00    +0.117 A 
ATOM     21  C   UNL     1       6.057  -5.854  22.116  0.00  0.00    +0.046 A 
ATOM     22  C   UNL     1       7.300  -5.500  22.652  0.00  0.00    +0.010 A 
BRANCH  20  23
ATOM     23  O   UNL     1       3.713  -6.218  22.460  0.00  0.00    -0.507 OA
ATOM     24  H   UNL     1       3.198  -5.396  22.425  0.00  0.00    +0.292 HD
ENDBRANCH  20  23
ENDBRANCH  16  17
BRANCH  16  25
ATOM     25  O   UNL     1       9.067  -5.587  25.758  0.00  0.00    -0.386 OA
ATOM     26  H   UNL     1       8.260  -6.090  25.963  0.00  0.00    +0.210 HD
ENDBRANCH  16  25
ENDBRANCH   2  16
TORSDOF 7
ENDMDL
MODEL 2
REMARK VINA RESULT:      -7.1      1.379      2.406
REMARK  Name = 
REMARK  8 active torsions:
REMARK  status: ('A' for Active; 'I' for Inactive)
REMARK    1  A    between atoms: C_1  and  C_2
REMARK    2  A    between atoms: C_2  and  C_3
REMARK    3  A    between atoms: C_2  and  N_12
REMARK    4  A    between atoms: C_3  and  O_4
REMARK    5  A    between atoms: C_3  and  C_5
REMARK    6  A    between atoms: C_8  and  O_9
REMARK    7  A    between atoms: C_15  and  C_16
REMARK    8  A    between atoms: C_16  and  C_17
REMARK                            x       y       z     vdW  Elec       q    Type
REMARK                         _______ _______ _______ _____ _____    ______ ____
ROOT
ATOM      1  C   UNL     1       7.164  -1.868  22.600  0.00  0.00    +0.027 C 
ATOM      2  C   UNL     1       8.430  -2.126  23.440  0.00  0.00    +0.087 C 
ENDROOT
BRANCH   2   3
ATOM      3  N   UNL     1       9.623  -1.287  23.143  0.00  0.00    -0.297 NA
ATOM      4  C   UNL     1      10.179  -0.545  24.274  0.00  0.00    +0.085 C 
ATOM      5  C   UNL     1       9.544   0.826  24.512  0.00  0.00    +0.019 C 
ATOM      6  C   UNL     1       9.455   1.682  23.240  0.00  0.00    -0.004 C 
ATOM      7  C   UNL     1       8.929   0.854  22.053  0.00  0.00    +0.019 C 
ATOM      8  C   UNL     1       9.642  -0.487  21.920  0.00  0.00    +0.085 C 
BRANCH   6   9
ATOM      9  C   UNL     1      10.815   2.353  22.943  0.00  0.00    +0.038 C 
BRANCH   9  10
ATOM     10  C   UNL     1      10.831   3.804  23.362  0.00  0.00    -0.047 A 
ATOM     11  C   UNL     1       9.669   4.402  23.865  0.00  0.00    +0.003 A 
ATOM     12  C   UNL     1       9.718   5.688  24.402  0.00  0.00    +0.000 A 
ATOM     13  C   UNL     1      10.924   6.385  24.435  0.00  0.00    +0.000 A 
ATOM     14  C   UNL     1      12.078   5.810  23.907  0.00  0.00    +0.000 A 
ATOM     15  C   UNL     1      12.030   4.529  23.361  0.00  0.00    +0.003 A 
ENDBRANCH   9  10
ENDBRANCH   6   9
ENDBRANCH   2   3
BRANCH   2  16
ATOM     16  C   UNL     1       8.671  -3.683  23.484  0.00  0.00    +0.161 C 
BRANCH  16  17
ATOM     17  C   UNL     1       7.470  -4.608  23.603  0.00  0.00    -0.017 A 
ATOM     18  C   UNL     1       7.073  -5.337  22.464  0.00  0.00    +0.010 A 
ATOM     19  C   UNL     1       6.015  -6.243  22.524  0.00  0.00    +0.046 A 
ATOM     20  C   UNL     1       5.333  -6.419  23.717  0.00  0.00    +0.117 A 
ATOM     21  C   UNL     1       5.663  -5.673  24.842  0.00  0.00    +0.046 A 
ATOM     22  C   UNL     1       6.723  -4.764  24.775  0.00  0.00    +0.010 A 
BRANCH  20  23
ATOM     23  O   UNL     1       4.336  -7.348  23.755  0.00  0.00    -0.507 OA
ATOM     24  H   UNL     1       4.493  -7.987  23.041  0.00  0.00    +0.292 HD
ENDBRANCH  20  23
ENDBRANCH  16  17
BRANCH  16  25
ATOM     25  O   UNL     1       9.634  -4.003  24.500  0.00  0.00    -0.386 OA
ATOM     26  H   UNL     1       9.168  -4.537  25.166  0.00  0.00    +0.210 HD
ENDBRANCH  16  25
ENDBRANCH   2  16
TORSDOF 7
ENDMDL
MODEL 3
REMARK VINA RESULT:      -7.0      3.345      8.729
REMARK  Name = 
REMARK  8 active torsions:
REMARK  status: ('A' for Active; 'I' for Inactive)
REMARK    1  A    between atoms: C_1  and  C_2
REMARK    2  A    between atoms: C_2  and  C_3
REMARK    3  A    between atoms: C_2  and  N_12
REMARK    4  A    between atoms: C_3  and  O_4
REMARK    5  A    between atoms: C_3  and  C_5
REMARK    6  A    between atoms: C_8  and  O_9
REMARK    7  A    between atoms: C_15  and  C_16
REMARK    8  A    between atoms: C_16  and  C_17
REMARK                            x       y       z     vdW  Elec       q    Type
REMARK                         _______ _______ _______ _____ _____    ______ ____
ROOT
ATOM      1  C   UNL     1       7.298   1.649  22.271  0.00  0.00    +0.027 C 
ATOM      2  C   UNL     1       8.462   1.528  23.273  0.00  0.00    +0.087 C 
ENDROOT
BRANCH   2   3
ATOM      3  N   UNL     1       8.545   0.273  24.067  0.00  0.00    -0.297 NA
ATOM      4  C   UNL     1       9.769  -0.511  23.896  0.00  0.00    +0.085 C 
ATOM      5  C   UNL     1       9.733  -1.505  22.733  0.00  0.00    +0.019 C 
ATOM      6  C   UNL     1       8.472  -2.382  22.724  0.00  0.00    -0.004 C 
ATOM      7  C   UNL     1       7.209  -1.536  22.973  0.00  0.00    +0.019 C 
ATOM      8  C   UNL     1       7.369  -0.591  24.157  0.00  0.00    +0.085 C 
BRANCH   6   9
ATOM      9  C   UNL     1       8.617  -3.548  23.729  0.00  0.00    +0.038 C 
BRANCH   9  10
ATOM     10  C   UNL     1       7.515  -4.568  23.570  0.00  0.00    -0.047 A 
ATOM     11  C   UNL     1       6.630  -4.818  24.627  0.00  0.00    +0.003 A 
ATOM     12  C   UNL     1       5.519  -5.636  24.433  0.00  0.00    +0.000 A 
ATOM     13  C   UNL     1       5.286  -6.214  23.186  0.00  0.00    +0.000 A 
ATOM     14  C   UNL     1       6.178  -5.997  22.139  0.00  0.00    +0.000 A 
ATOM     15  C   UNL     1       7.295  -5.188  22.332  0.00  0.00    +0.003 A 
ENDBRANCH   9  10
ENDBRANCH   6   9
ENDBRANCH   2   3
BRANCH   2  16
ATOM     16  C   UNL     1       8.535   2.873  24.093  0.00  0.00    +0.161 C 
BRANCH  16  17
ATOM     17  C   UNL     1       9.736   3.786  23.898  0.00  0.00    -0.017 A 
ATOM     18  C   UNL     1       9.599   5.148  24.234  0.00  0.00    +0.010 A 
ATOM     19  C   UNL     1      10.679   6.024  24.131  0.00  0.00    +0.046 A 
ATOM     20  C   UNL     1      11.900   5.553  23.678  0.00  0.00    +0.117 A 
ATOM     21  C   UNL     1      12.051   4.229  23.284  0.00  0.00    +0.046 A 
ATOM     22  C   UNL     1      10.964   3.355  23.387  0.00  0.00    +0.010 A 
BRANCH  20  23
ATOM     23  O   UNL     1      12.948   6.424  23.637  0.00  0.00    -0.507 OA
ATOM     24  H   UNL     1      12.590   7.323  23.561  0.00  0.00    +0.292 HD
ENDBRANCH  20  23
ENDBRANCH  16  17
BRANCH  16  25
ATOM     25  O   UNL     1       8.348   2.607  25.491  0.00  0.00    -0.386 OA
ATOM     26  H   UNL     1       8.257   1.642  25.581  0.00  0.00    +0.210 HD
ENDBRANCH  16  25
ENDBRANCH   2  16
TORSDOF 7
ENDMDL
MODEL 4
REMARK VINA RESULT:      -6.9      3.353      8.685
REMARK  Name = 
REMARK  8 active torsions:
REMARK  status: ('A' for Active; 'I' for Inactive)
REMARK    1  A    between atoms: C_1  and  C_2
REMARK    2  A    between atoms: C_2  and  C_3
REMARK    3  A    between atoms: C_2  and  N_12
REMARK    4  A    between atoms: C_3  and  O_4
REMARK    5  A    between atoms: C_3  and  C_5
REMARK    6  A    between atoms: C_8  and  O_9
REMARK    7  A    between atoms: C_15  and  C_16
REMARK    8  A    between atoms: C_16  and  C_17
REMARK                            x       y       z     vdW  Elec       q    Type
REMARK                         _______ _______ _______ _____ _____    ______ ____
ROOT
ATOM      1  C   UNL     1      10.646   0.349  24.807  0.00  0.00    +0.027 C 
ATOM      2  C   UNL     1       9.700   0.599  23.616  0.00  0.00    +0.087 C 
ENDROOT
BRANCH   2   3
ATOM      3  N   UNL     1       9.274  -0.589  22.828  0.00  0.00    -0.297 NA
ATOM      4  C   UNL     1       7.840  -0.881  22.838  0.00  0.00    +0.085 C 
ATOM      5  C   UNL     1       7.375  -1.757  24.002  0.00  0.00    +0.019 C 
ATOM      6  C   UNL     1       8.229  -3.020  24.189  0.00  0.00    -0.004 C 
ATOM      7  C   UNL     1       9.731  -2.689  24.107  0.00  0.00    +0.019 C 
ATOM      8  C   UNL     1      10.067  -1.815  22.905  0.00  0.00    +0.085 C 
BRANCH   6   9
ATOM      9  C   UNL     1       7.804  -4.114  23.183  0.00  0.00    +0.038 C 
BRANCH   9  10
ATOM     10  C   UNL     1       6.524  -4.797  23.601  0.00  0.00    -0.047 A 
ATOM     11  C   UNL     1       5.565  -5.142  22.641  0.00  0.00    +0.003 A 
ATOM     12  C   UNL     1       4.460  -5.913  22.998  0.00  0.00    +0.000 A 
ATOM     13  C   UNL     1       4.302  -6.340  24.316  0.00  0.00    +0.000 A 
ATOM     14  C   UNL     1       5.234  -5.974  25.284  0.00  0.00    +0.000 A 
ATOM     15  C   UNL     1       6.335  -5.195  24.932  0.00  0.00    +0.003 A 
ENDBRANCH   9  10
ENDBRANCH   6   9
ENDBRANCH   2   3
BRANCH   2  16
ATOM     16  C   UNL     1      10.277   1.810  22.788  0.00  0.00    +0.161 C 
BRANCH  16  17
ATOM     17  C   UNL     1      10.248   3.200  23.405  0.00  0.00    -0.017 A 
ATOM     18  C   UNL     1      11.411   3.991  23.322  0.00  0.00    +0.010 A 
ATOM     19  C   UNL     1      11.431   5.294  23.818  0.00  0.00    +0.046 A 
ATOM     20  C   UNL     1      10.294   5.814  24.416  0.00  0.00    +0.117 A 
ATOM     21  C   UNL     1       9.150   5.040  24.564  0.00  0.00    +0.046 A 
ATOM     22  C   UNL     1       9.137   3.733  24.067  0.00  0.00    +0.010 A 
BRANCH  20  23
ATOM     23  O   UNL     1      10.330   7.108  24.845  0.00  0.00    -0.507 OA
ATOM     24  H   UNL     1      11.261   7.369  24.937  0.00  0.00    +0.292 HD
ENDBRANCH  20  23
ENDBRANCH  16  17
BRANCH  16  25
ATOM     25  O   UNL     1       9.677   1.844  21.484  0.00  0.00    -0.386 OA
ATOM     26  H   UNL     1       8.715   1.886  21.622  0.00  0.00    +0.210 HD
ENDBRANCH  16  25
ENDBRANCH   2  16
TORSDOF 7
ENDMDL
MODEL 5
REMARK VINA RESULT:      -6.7      2.940      8.430
REMARK  Name = 
REMARK  8 active torsions:
REMARK  status: ('A' for Active; 'I' for Inactive)
REMARK    1  A    between atoms: C_1  and  C_2
REMARK    2  A    between atoms: C_2  and  C_3
REMARK    3  A    between atoms: C_2  and  N_12
REMARK    4  A    between atoms: C_3  and  O_4
REMARK    5  A    between atoms: C_3  and  C_5
REMARK    6  A    between atoms: C_8  and  O_9
REMARK    7  A    between atoms: C_15  and  C_16
REMARK    8  A    between atoms: C_16  and  C_17
REMARK                            x       y       z     vdW  Elec       q    Type
REMARK                         _______ _______ _______ _____ _____    ______ ____
ROOT
ATOM      1  C   UNL     1       7.497  -2.538  26.377  0.00  0.00    +0.027 C 
ATOM      2  C   UNL     1       7.794  -2.686  24.873  0.00  0.00    +0.087 C 
ENDROOT
BRANCH   2   3
ATOM      3  N   UNL     1       7.320  -3.929  24.207  0.00  0.00    -0.297 NA
ATOM      4  C   UNL     1       6.726  -3.757  22.881  0.00  0.00    +0.085 C 
ATOM      5  C   UNL     1       5.228  -3.447  22.887  0.00  0.00    +0.019 C 
ATOM      6  C   UNL     1       4.415  -4.405  23.770  0.00  0.00    -0.004 C 
ATOM      7  C   UNL     1       5.101  -4.617  25.133  0.00  0.00    +0.019 C 
ATOM      8  C   UNL     1       6.587  -4.921  24.993  0.00  0.00    +0.085 C 
BRANCH   6   9
ATOM      9  C   UNL     1       4.147  -5.733  23.025  0.00  0.00    +0.038 C 
BRANCH   9  10
ATOM     10  C   UNL     1       2.842  -6.363  23.448  0.00  0.00    -0.047 A 
ATOM     11  C   UNL     1       1.633  -5.904  22.909  0.00  0.00    +0.003 A 
ATOM     12  C   UNL     1       0.445  -6.584  23.172  0.00  0.00    +0.000 A 
ATOM     13  C   UNL     1       0.455  -7.722  23.977  0.00  0.00    +0.000 A 
ATOM     14  C   UNL     1       1.647  -8.166  24.543  0.00  0.00    +0.000 A 
ATOM     15  C   UNL     1       2.835  -7.483  24.291  0.00  0.00    +0.003 A 
ENDBRANCH   9  10
ENDBRANCH   6   9
ENDBRANCH   2   3
BRANCH   2  16
ATOM     16  C   UNL     1       9.308  -2.310  24.640  0.00  0.00    +0.161 C 
BRANCH  16  17
ATOM     17  C   UNL     1       9.637  -1.041  23.868  0.00  0.00    -0.017 A 
ATOM     18  C   UNL     1       9.376  -1.017  22.483  0.00  0.00    +0.010 A 
ATOM     19  C   UNL     1       9.604   0.134  21.730  0.00  0.00    +0.046 A 
ATOM     20  C   UNL     1      10.108   1.267  22.349  0.00  0.00    +0.117 A 
ATOM     21  C   UNL     1      10.429   1.256  23.700  0.00  0.00    +0.046 A 
ATOM     22  C   UNL     1      10.201   0.098  24.450  0.00  0.00    +0.010 A 
BRANCH  20  23
ATOM     23  O   UNL     1      10.271   2.391  21.595  0.00  0.00    -0.507 OA
ATOM     24  H   UNL     1       9.666   3.071  21.932  0.00  0.00    +0.292 HD
ENDBRANCH  20  23
ENDBRANCH  16  17
BRANCH  16  25
ATOM     25  O   UNL     1      10.009  -3.424  24.067  0.00  0.00    -0.386 OA
ATOM     26  H   UNL     1       9.909  -3.348  23.102  0.00  0.00    +0.210 HD
ENDBRANCH  16  25
ENDBRANCH   2  16
TORSDOF 7
ENDMDL
MODEL 6
REMARK VINA RESULT:      -6.6      1.871      2.993
REMARK  Name = 
REMARK  8 active torsions:
REMARK  status: ('A' for Active; 'I' for Inactive)
REMARK    1  A    between atoms: C_1  and  C_2
REMARK    2  A    between atoms: C_2  and  C_3
REMARK    3  A    between atoms: C_2  and  N_12
REMARK    4  A    between atoms: C_3  and  O_4
REMARK    5  A    between atoms: C_3  and  C_5
REMARK    6  A    between atoms: C_8  and  O_9
REMARK    7  A    between atoms: C_15  and  C_16
REMARK    8  A    between atoms: C_16  and  C_17
REMARK                            x       y       z     vdW  Elec       q    Type
REMARK                         _______ _______ _______ _____ _____    ______ ____
ROOT
ATOM      1  C   UNL     1       7.545  -5.687  22.465  0.00  0.00    +0.027 C 
ATOM      2  C   UNL     1       7.397  -4.157  22.565  0.00  0.00    +0.087 C 
ENDROOT
BRANCH   2   3
ATOM      3  N   UNL     1       8.600  -3.385  22.979  0.00  0.00    -0.297 NA
ATOM      4  C   UNL     1       8.850  -3.315  24.419  0.00  0.00    +0.085 C 
ATOM      5  C   UNL     1       8.135  -2.169  25.137  0.00  0.00    +0.019 C 
ATOM      6  C   UNL     1       8.324  -0.810  24.445  0.00  0.00    -0.004 C 
ATOM      7  C   UNL     1       8.119  -0.932  22.923  0.00  0.00    +0.019 C 
ATOM      8  C   UNL     1       8.884  -2.108  22.327  0.00  0.00    +0.085 C 
BRANCH   6   9
ATOM      9  C   UNL     1       9.696  -0.200  24.815  0.00  0.00    +0.038 C 
BRANCH   9  10
ATOM     10  C   UNL     1       9.739   1.287  24.557  0.00  0.00    -0.047 A 
ATOM     11  C   UNL     1      10.781   1.839  23.803  0.00  0.00    +0.003 A 
ATOM     12  C   UNL     1      10.740   3.181  23.427  0.00  0.00    +0.000 A 
ATOM     13  C   UNL     1       9.663   3.980  23.805  0.00  0.00    +0.000 A 
ATOM     14  C   UNL     1       8.638   3.447  24.583  0.00  0.00    +0.000 A 
ATOM     15  C   UNL     1       8.680   2.109  24.969  0.00  0.00    +0.003 A 
ENDBRANCH   9  10
ENDBRANCH   6   9
ENDBRANCH   2   3
BRANCH   2  16
ATOM     16  C   UNL     1       6.070  -3.852  23.361  0.00  0.00    +0.161 C 
BRANCH  16  17
ATOM     17  C   UNL     1       5.313  -5.009  23.994  0.00  0.00    -0.017 A 
ATOM     18  C   UNL     1       4.213  -5.547  23.296  0.00  0.00    +0.010 A 
ATOM     19  C   UNL     1       3.513  -6.645  23.795  0.00  0.00    +0.046 A 
ATOM     20  C   UNL     1       3.894  -7.205  25.004  0.00  0.00    +0.117 A 
ATOM     21  C   UNL     1       4.937  -6.662  25.743  0.00  0.00    +0.046 A 
ATOM     22  C   UNL     1       5.634  -5.559  25.239  0.00  0.00    +0.010 A 
BRANCH  20  23
ATOM     23  O   UNL     1       3.220  -8.308  25.440  0.00  0.00    -0.507 OA
ATOM     24  H   UNL     1       2.366  -8.017  25.797  0.00  0.00    +0.292 HD
ENDBRANCH  20  23
ENDBRANCH  16  17
BRANCH  16  25
ATOM     25  O   UNL     1       5.178  -3.072  22.549  0.00  0.00    -0.386 OA
ATOM     26  H   UNL     1       4.477  -3.676  22.248  0.00  0.00    +0.210 HD
ENDBRANCH  16  25
ENDBRANCH   2  16
TORSDOF 7
ENDMDL
MODEL 7
REMARK VINA RESULT:      -6.5      3.205      8.093
REMARK  Name = 
REMARK  8 active torsions:
REMARK  status: ('A' for Active; 'I' for Inactive)
REMARK    1  A    between atoms: C_1  and  C_2
REMARK    2  A    between atoms: C_2  and  C_3
REMARK    3  A    between atoms: C_2  and  N_12
REMARK    4  A    between atoms: C_3  and  O_4
REMARK    5  A    between atoms: C_3  and  C_5
REMARK    6  A    between atoms: C_8  and  O_9
REMARK    7  A    between atoms: C_15  and  C_16
REMARK    8  A    between atoms: C_16  and  C_17
REMARK                            x       y       z     vdW  Elec       q    Type
REMARK                         _______ _______ _______ _____ _____    ______ ____
ROOT
ATOM      1  C   UNL     1      10.622   0.636  24.276  0.00  0.00    +0.027 C 
ATOM      2  C   UNL     1       9.325   0.600  23.445  0.00  0.00    +0.087 C 
ENDROOT
BRANCH   2   3
ATOM      3  N   UNL     1       8.984  -0.684  22.776  0.00  0.00    -0.297 NA
ATOM      4  C   UNL     1       7.579  -1.088  22.847  0.00  0.00    +0.085 C 
ATOM      5  C   UNL     1       7.208  -1.890  24.096  0.00  0.00    +0.019 C 
ATOM      6  C   UNL     1       8.166  -3.058  24.372  0.00  0.00    -0.004 C 
ATOM      7  C   UNL     1       9.634  -2.616  24.224  0.00  0.00    +0.019 C 
ATOM      8  C   UNL     1       9.876  -1.831  22.941  0.00  0.00    +0.085 C 
BRANCH   6   9
ATOM      9  C   UNL     1       7.815  -4.270  23.478  0.00  0.00    +0.038 C 
BRANCH   9  10
ATOM     10  C   UNL     1       6.792  -5.171  24.127  0.00  0.00    -0.047 A 
ATOM     11  C   UNL     1       6.754  -5.301  25.522  0.00  0.00    +0.003 A 
ATOM     12  C   UNL     1       5.715  -6.001  26.132  0.00  0.00    +0.000 A 
ATOM     13  C   UNL     1       4.711  -6.580  25.357  0.00  0.00    +0.000 A 
ATOM     14  C   UNL     1       4.759  -6.484  23.969  0.00  0.00    +0.000 A 
ATOM     15  C   UNL     1       5.802  -5.793  23.354  0.00  0.00    +0.003 A 
ENDBRANCH   9  10
ENDBRANCH   6   9
ENDBRANCH   2   3
BRANCH   2  16
ATOM     16  C   UNL     1       9.301   1.885  22.531  0.00  0.00    +0.161 C 
BRANCH  16  17
ATOM     17  C   UNL     1       8.167   2.885  22.703  0.00  0.00    -0.017 A 
ATOM     18  C   UNL     1       6.897   2.547  22.194  0.00  0.00    +0.010 A 
ATOM     19  C   UNL     1       5.804   3.395  22.368  0.00  0.00    +0.046 A 
ATOM     20  C   UNL     1       5.973   4.596  23.039  0.00  0.00    +0.117 A 
ATOM     21  C   UNL     1       7.224   4.984  23.501  0.00  0.00    +0.046 A 
ATOM     22  C   UNL     1       8.317   4.130  23.321  0.00  0.00    +0.010 A 
BRANCH  20  23
ATOM     23  O   UNL     1       4.874   5.379  23.236  0.00  0.00    -0.507 OA
ATOM     24  H   UNL     1       4.294   4.930  23.872  0.00  0.00    +0.292 HD
ENDBRANCH  20  23
ENDBRANCH  16  17
BRANCH  16  25
ATOM     25  O   UNL     1       9.413   1.509  21.150  0.00  0.00    -0.386 OA
ATOM     26  H   UNL     1       9.716   2.299  20.671  0.00  0.00    +0.210 HD
ENDBRANCH  16  25
ENDBRANCH   2  16
TORSDOF 7
ENDMDL
MODEL 8
REMARK VINA RESULT:      -6.5      2.358      3.983
REMARK  Name = 
REMARK  8 active torsions:
REMARK  status: ('A' for Active; 'I' for Inactive)
REMARK    1  A    between atoms: C_1  and  C_2
REMARK    2  A    between atoms: C_2  and  C_3
REMARK    3  A    between atoms: C_2  and  N_12
REMARK    4  A    between atoms: C_3  and  O_4
REMARK    5  A    between atoms: C_3  and  C_5
REMARK    6  A    between atoms: C_8  and  O_9
REMARK    7  A    between atoms: C_15  and  C_16
REMARK    8  A    between atoms: C_16  and  C_17
REMARK                            x       y       z     vdW  Elec       q    Type
REMARK                         _______ _______ _______ _____ _____    ______ ____
ROOT
ATOM      1  C   UNL     1       4.637  -5.285  23.201  0.00  0.00    +0.027 C 
ATOM      2  C   UNL     1       4.941  -3.783  23.359  0.00  0.00    +0.087 C 
ENDROOT
BRANCH   2   3
ATOM      3  N   UNL     1       6.107  -3.245  22.607  0.00  0.00    -0.297 NA
ATOM      4  C   UNL     1       7.281  -4.117  22.540  0.00  0.00    +0.085 C 
ATOM      5  C   UNL     1       8.249  -3.975  23.716  0.00  0.00    +0.019 C 
ATOM      6  C   UNL     1       8.622  -2.517  24.022  0.00  0.00    -0.004 C 
ATOM      7  C   UNL     1       7.373  -1.615  24.020  0.00  0.00    +0.019 C 
ATOM      8  C   UNL     1       6.493  -1.848  22.797  0.00  0.00    +0.085 C 
BRANCH   6   9
ATOM      9  C   UNL     1       9.717  -2.023  23.049  0.00  0.00    +0.038 C 
BRANCH   9  10
ATOM     10  C   UNL     1       9.875  -0.522  23.095  0.00  0.00    -0.047 A 
ATOM     11  C   UNL     1      10.401   0.095  24.237  0.00  0.00    +0.003 A 
ATOM     12  C   UNL     1      10.698   1.457  24.224  0.00  0.00    +0.000 A 
ATOM     13  C   UNL     1      10.468   2.212  23.076  0.00  0.00    +0.000 A 
ATOM     14  C   UNL     1       9.914   1.614  21.947  0.00  0.00    +0.000 A 
ATOM     15  C   UNL     1       9.607   0.255  21.958  0.00  0.00    +0.003 A 
ENDBRANCH   9  10
ENDBRANCH   6   9
ENDBRANCH   2   3
BRANCH   2  16
ATOM     16  C   UNL     1       4.888  -3.438  24.896  0.00  0.00    +0.161 C 
BRANCH  16  17
ATOM     17  C   UNL     1       4.858  -4.579  25.902  0.00  0.00    -0.017 A 
ATOM     18  C   UNL     1       6.086  -5.087  26.371  0.00  0.00    +0.010 A 
ATOM     19  C   UNL     1       6.125  -6.094  27.335  0.00  0.00    +0.046 A 
ATOM     20  C   UNL     1       4.939  -6.613  27.829  0.00  0.00    +0.117 A 
ATOM     21  C   UNL     1       3.713  -6.173  27.345  0.00  0.00    +0.046 A 
ATOM     22  C   UNL     1       3.680  -5.165  26.376  0.00  0.00    +0.010 A 
BRANCH  20  23
ATOM     23  O   UNL     1       5.012  -7.560  28.807  0.00  0.00    -0.507 OA
ATOM     24  H   UNL     1       5.916  -7.912  28.819  0.00  0.00    +0.292 HD
ENDBRANCH  20  23
ENDBRANCH  16  17
BRANCH  16  25
ATOM     25  O   UNL     1       3.808  -2.529  25.159  0.00  0.00    -0.386 OA
ATOM     26  H   UNL     1       4.207  -1.728  25.543  0.00  0.00    +0.210 HD
ENDBRANCH  16  25
ENDBRANCH   2  16
TORSDOF 7
ENDMDL
MODEL 9
REMARK VINA RESULT:      -6.5      3.052      7.654
REMARK  Name = 
REMARK  8 active torsions:
REMARK  status: ('A' for Active; 'I' for Inactive)
REMARK    1  A    between atoms: C_1  and  C_2
REMARK    2  A    between atoms: C_2  and  C_3
REMARK    3  A    between atoms: C_2  and  N_12
REMARK    4  A    between atoms: C_3  and  O_4
REMARK    5  A    between atoms: C_3  and  C_5
REMARK    6  A    between atoms: C_8  and  O_9
REMARK    7  A    between atoms: C_15  and  C_16
REMARK    8  A    between atoms: C_16  and  C_17
REMARK                            x       y       z     vdW  Elec       q    Type
REMARK                         _______ _______ _______ _____ _____    ______ ____
ROOT
ATOM      1  C   UNL     1      10.714   0.823  23.924  0.00  0.00    +0.027 C 
ATOM      2  C   UNL     1       9.778   0.030  24.855  0.00  0.00    +0.087 C 
ENDROOT
BRANCH   2   3
ATOM      3  N   UNL     1       9.603  -1.419  24.566  0.00  0.00    -0.297 NA
ATOM      4  C   UNL     1       9.863  -1.831  23.186  0.00  0.00    +0.085 C 
ATOM      5  C   UNL     1       8.658  -1.721  22.250  0.00  0.00    +0.019 C 
ATOM      6  C   UNL     1       7.386  -2.365  22.822  0.00  0.00    -0.004 C 
ATOM      7  C   UNL     1       7.178  -1.965  24.295  0.00  0.00    +0.019 C 
ATOM      8  C   UNL     1       8.448  -2.121  25.122  0.00  0.00    +0.085 C 
BRANCH   6   9
ATOM      9  C   UNL     1       7.416  -3.897  22.619  0.00  0.00    +0.038 C 
BRANCH   9  10
ATOM     10  C   UNL     1       6.199  -4.568  23.210  0.00  0.00    -0.047 A 
ATOM     11  C   UNL     1       6.342  -5.484  24.260  0.00  0.00    +0.003 A 
ATOM     12  C   UNL     1       5.217  -5.982  24.914  0.00  0.00    +0.000 A 
ATOM     13  C   UNL     1       3.943  -5.575  24.522  0.00  0.00    +0.000 A 
ATOM     14  C   UNL     1       3.790  -4.690  23.457  0.00  0.00    +0.000 A 
ATOM     15  C   UNL     1       4.913  -4.197  22.795  0.00  0.00    +0.003 A 
ENDBRANCH   9  10
ENDBRANCH   6   9
ENDBRANCH   2   3
BRANCH   2  16
ATOM     16  C   UNL     1       8.453   0.866  25.033  0.00  0.00    +0.161 C 
BRANCH  16  17
ATOM     17  C   UNL     1       8.232   2.086  24.152  0.00  0.00    -0.017 A 
ATOM     18  C   UNL     1       7.580   1.907  22.916  0.00  0.00    +0.010 A 
ATOM     19  C   UNL     1       7.298   2.993  22.088  0.00  0.00    +0.046 A 
ATOM     20  C   UNL     1       7.677   4.267  22.480  0.00  0.00    +0.117 A 
ATOM     21  C   UNL     1       8.372   4.469  23.666  0.00  0.00    +0.046 A 
ATOM     22  C   UNL     1       8.655   3.375  24.491  0.00  0.00    +0.010 A 
BRANCH  20  23
ATOM     23  O   UNL     1       7.342   5.313  21.673  0.00  0.00    -0.507 OA
ATOM     24  H   UNL     1       8.091   5.488  21.080  0.00  0.00    +0.292 HD
ENDBRANCH  20  23
ENDBRANCH  16  17
BRANCH  16  25
ATOM     25  O   UNL     1       8.279   1.224  26.413  0.00  0.00    -0.386 OA
ATOM     26  H   UNL     1       8.876   0.652  26.925  0.00  0.00    +0.210 HD
ENDBRANCH  16  25
ENDBRANCH   2  16
TORSDOF 7
ENDMDL
