MODEL 1
REMARK VINA RESULT:      -6.1      0.000      0.000
REMARK  Name = 
REMARK  13 active torsions:
REMARK  status: ('A' for Active; 'I' for Inactive)
REMARK    1  A    between atoms: C_2  and  C_3
REMARK    2  A    between atoms: C_2  and  N_7
REMARK    3  A    between atoms: C_2  and  C_15
REMARK    4  A    between atoms: C_3  and  C_4
REMARK    5  A    between atoms: C_4  and  C_5
REMARK    6  A    between atoms: C_4  and  C_6
REMARK    7  A    between atoms: C_8  and  C_10
REMARK    8  A    between atoms: N_17  and  C_18
REMARK    9  A    between atoms: C_18  and  C_20
REMARK   10  A    between atoms: C_18  and  P_30
REMARK   11  A    between atoms: C_20  and  C_21
REMARK   12  A    between atoms: P_30  and  O_31
REMARK   13  A    between atoms: P_30  and  O_32
REMARK                            x       y       z     vdW  Elec       q    Type
REMARK                         _______ _______ _______ _____ _____    ______ ____
ROOT
ATOM      1  C   UNL     1       8.501  -1.504  25.579  0.00  0.00    +0.234 C 
ATOM      2  N   UNL     1       7.134  -1.408  25.437  0.00  0.00    -0.300 N 
ATOM      3  H   UNL     1       6.715  -1.852  24.627  0.00  0.00    +0.150 HD
ATOM      4  O   UNL     1       9.064  -1.052  26.573  0.00  0.00    -0.274 OA
ENDROOT
BRANCH   1   5
ATOM      5  C   UNL     1       9.257  -2.260  24.447  0.00  0.00    +0.159 C 
BRANCH   5   6
ATOM      6  N   UNL     1       8.319  -3.036  23.630  0.00  0.00    -0.298 N 
ATOM      7  H   UNL     1       7.637  -2.572  23.034  0.00  0.00    +0.150 HD
ATOM      8  C   UNL     1       8.244  -4.412  23.741  0.00  0.00    +0.280 C 
ATOM      9  O   UNL     1       8.956  -5.038  24.518  0.00  0.00    -0.267 OA
BRANCH   8  10
ATOM     10  C   UNL     1       7.220  -5.025  22.929  0.00  0.00    +0.189 A 
ATOM     11  O   UNL     1       5.929  -5.078  23.383  0.00  0.00    -0.458 OA
ATOM     12  C   UNL     1       5.195  -5.699  22.418  0.00  0.00    +0.196 A 
ATOM     13  C   UNL     1       5.993  -6.054  21.358  0.00  0.00    +0.042 A 
ATOM     14  C   UNL     1       7.298  -5.626  21.687  0.00  0.00    +0.054 A 
ENDBRANCH   8  10
ENDBRANCH   5   6
BRANCH   5  15
ATOM     15  C   UNL     1      10.118  -1.369  23.534  0.00  0.00    +0.034 C 
BRANCH  15  16
ATOM     16  C   UNL     1       9.648   0.088  23.328  0.00  0.00    -0.015 C 
ATOM     17  C   UNL     1       9.642   0.434  21.835  0.00  0.00    +0.007 C 
ATOM     18  C   UNL     1      10.509   1.110  24.074  0.00  0.00    +0.007 C 
ENDBRANCH  15  16
ENDBRANCH   5  15
ENDBRANCH   1   5
BRANCH   2  19
ATOM     19  C   UNL     1       6.233  -0.903  26.497  0.00  0.00    +0.191 C 
BRANCH  19  20
ATOM     20  P   UNL     1       5.073  -2.215  27.029  0.00  0.00    +0.348 P 
ATOM     21  O   UNL     1       4.090  -3.325  27.479  0.00  0.00    -0.257 OA
BRANCH  20  22
ATOM     22  O   UNL     1       5.678  -3.174  25.837  0.00  0.00    -0.323 OA
ATOM     23  H   UNL     1       5.998  -3.976  26.304  0.00  0.00    +0.220 HD
ENDBRANCH  20  22
BRANCH  20  24
ATOM     24  O   UNL     1       3.915  -1.490  26.093  0.00  0.00    -0.323 OA
ATOM     25  H   UNL     1       4.034  -0.556  25.829  0.00  0.00    +0.220 HD
ENDBRANCH  20  24
ENDBRANCH  19  20
BRANCH  19  26
ATOM     26  C   UNL     1       5.521   0.380  26.025  0.00  0.00    +0.072 C 
BRANCH  26  27
ATOM     27  C   UNL     1       6.431   1.540  25.740  0.00  0.00    -0.020 A 
ATOM     28  C   UNL     1       6.707   2.143  24.465  0.00  0.00    +0.003 A 
ATOM     29  C   UNL     1       6.292   1.890  23.140  0.00  0.00    +0.010 A 
ATOM     30  C   UNL     1       6.788   2.680  22.094  0.00  0.00    +0.001 A 
ATOM     31  C   UNL     1       7.671   3.725  22.351  0.00  0.00    +0.002 A 
ATOM     32  C   UNL     1       8.100   3.998  23.651  0.00  0.00    +0.026 A 
ATOM     33  C   UNL     1       7.615   3.183  24.683  0.00  0.00    +0.047 A 
ATOM     34  N   UNL     1       7.916   3.184  26.023  0.00  0.00    -0.360 N 
ATOM     35  H   UNL     1       8.584   3.805  26.457  0.00  0.00    +0.165 HD
ATOM     36  C   UNL     1       7.239   2.179  26.662  0.00  0.00    +0.087 A 
ENDBRANCH  26  27
ENDBRANCH  19  26
ENDBRANCH   2  19
TORSDOF 11
ENDMDL
MODEL 2
REMARK VINA RESULT:      -5.9      2.170      6.012
REMARK  Name = 
REMARK  13 active torsions:
REMARK  status: ('A' for Active; 'I' for Inactive)
REMARK    1  A    between atoms: C_2  and  C_3
REMARK    2  A    between atoms: C_2  and  N_7
REMARK    3  A    between atoms: C_2  and  C_15
REMARK    4  A    between atoms: C_3  and  C_4
REMARK    5  A    between atoms: C_4  and  C_5
REMARK    6  A    between atoms: C_4  and  C_6
REMARK    7  A    between atoms: C_8  and  C_10
REMARK    8  A    between atoms: N_17  and  C_18
REMARK    9  A    between atoms: C_18  and  C_20
REMARK   10  A    between atoms: C_18  and  P_30
REMARK   11  A    between atoms: C_20  and  C_21
REMARK   12  A    between atoms: P_30  and  O_31
REMARK   13  A    between atoms: P_30  and  O_32
REMARK                            x       y       z     vdW  Elec       q    Type
REMARK                         _______ _______ _______ _____ _____    ______ ____
ROOT
ATOM      1  C   UNL     1       5.812  -1.933  26.497  0.00  0.00    +0.234 C 
ATOM      2  N   UNL     1       6.662  -2.996  26.711  0.00  0.00    -0.300 N 
ATOM      3  H   UNL     1       7.493  -2.827  27.266  0.00  0.00    +0.150 HD
ATOM      4  O   UNL     1       4.752  -2.086  25.895  0.00  0.00    -0.274 OA
ENDROOT
BRANCH   1   5
ATOM      5  C   UNL     1       6.250  -0.571  27.110  0.00  0.00    +0.159 C 
BRANCH   5   6
ATOM      6  N   UNL     1       6.966   0.236  26.116  0.00  0.00    -0.298 N 
ATOM      7  H   UNL     1       6.460   0.830  25.463  0.00  0.00    +0.150 HD
ATOM      8  C   UNL     1       8.333   0.114  25.948  0.00  0.00    +0.280 C 
ATOM      9  O   UNL     1       9.001  -0.662  26.622  0.00  0.00    -0.267 OA
BRANCH   8  10
ATOM     10  C   UNL     1       8.881   0.915  24.880  0.00  0.00    +0.189 A 
ATOM     11  O   UNL     1      10.222   1.186  24.849  0.00  0.00    -0.458 OA
ATOM     12  C   UNL     1      10.447   1.948  23.742  0.00  0.00    +0.196 A 
ATOM     13  C   UNL     1       9.272   2.178  23.067  0.00  0.00    +0.042 A 
ATOM     14  C   UNL     1       8.261   1.519  23.801  0.00  0.00    +0.054 A 
ENDBRANCH   8  10
ENDBRANCH   5   6
BRANCH   5  15
ATOM     15  C   UNL     1       5.110   0.263  27.722  0.00  0.00    +0.034 C 
BRANCH  15  16
ATOM     16  C   UNL     1       4.884   1.677  27.142  0.00  0.00    -0.015 C 
ATOM     17  C   UNL     1       5.170   2.737  28.211  0.00  0.00    +0.007 C 
ATOM     18  C   UNL     1       3.469   1.886  26.597  0.00  0.00    +0.007 C 
ENDBRANCH  15  16
ENDBRANCH   5  15
ENDBRANCH   1   5
BRANCH   2  19
ATOM     19  C   UNL     1       6.322  -4.397  26.378  0.00  0.00    +0.191 C 
BRANCH  19  20
ATOM     20  P   UNL     1       6.410  -5.450  27.872  0.00  0.00    +0.348 P 
ATOM     21  O   UNL     1       6.484  -6.341  29.136  0.00  0.00    -0.257 OA
BRANCH  20  22
ATOM     22  O   UNL     1       7.956  -5.830  27.460  0.00  0.00    -0.323 OA
ATOM     23  H   UNL     1       7.916  -6.018  26.497  0.00  0.00    +0.220 HD
ENDBRANCH  20  22
BRANCH  20  24
ATOM     24  O   UNL     1       5.697  -6.659  26.992  0.00  0.00    -0.323 OA
ATOM     25  H   UNL     1       6.264  -7.318  26.545  0.00  0.00    +0.220 HD
ENDBRANCH  20  24
ENDBRANCH  19  20
BRANCH  19  26
ATOM     26  C   UNL     1       7.216  -4.903  25.227  0.00  0.00    +0.072 C 
BRANCH  26  27
ATOM     27  C   UNL     1       7.271  -4.003  24.026  0.00  0.00    -0.020 A 
ATOM     28  C   UNL     1       8.370  -3.185  23.595  0.00  0.00    +0.003 A 
ATOM     29  C   UNL     1       9.665  -2.926  24.092  0.00  0.00    +0.010 A 
ATOM     30  C   UNL     1      10.501  -2.026  23.417  0.00  0.00    +0.001 A 
ATOM     31  C   UNL     1      10.074  -1.399  22.250  0.00  0.00    +0.002 A 
ATOM     32  C   UNL     1       8.797  -1.635  21.736  0.00  0.00    +0.026 A 
ATOM     33  C   UNL     1       7.964  -2.518  22.436  0.00  0.00    +0.047 A 
ATOM     34  N   UNL     1       6.660  -2.876  22.198  0.00  0.00    -0.360 N 
ATOM     35  H   UNL     1       6.096  -2.508  21.445  0.00  0.00    +0.165 HD
ATOM     36  C   UNL     1       6.221  -3.739  23.166  0.00  0.00    +0.087 A 
ENDBRANCH  26  27
ENDBRANCH  19  26
ENDBRANCH   2  19
TORSDOF 11
ENDMDL
MODEL 3
REMARK VINA RESULT:      -5.9      2.648      4.302
REMARK  Name = 
REMARK  13 active torsions:
REMARK  status: ('A' for Active; 'I' for Inactive)
REMARK    1  A    between atoms: C_2  and  C_3
REMARK    2  A    between atoms: C_2  and  N_7
REMARK    3  A    between atoms: C_2  and  C_15
REMARK    4  A    between atoms: C_3  and  C_4
REMARK    5  A    between atoms: C_4  and  C_5
REMARK    6  A    between atoms: C_4  and  C_6
REMARK    7  A    between atoms: C_8  and  C_10
REMARK    8  A    between atoms: N_17  and  C_18
REMARK    9  A    between atoms: C_18  and  C_20
REMARK   10  A    between atoms: C_18  and  P_30
REMARK   11  A    between atoms: C_20  and  C_21
REMARK   12  A    between atoms: P_30  and  O_31
REMARK   13  A    between atoms: P_30  and  O_32
REMARK                            x       y       z     vdW  Elec       q    Type
REMARK                         _______ _______ _______ _____ _____    ______ ____
ROOT
ATOM      1  C   UNL     1       8.903  -2.363  24.266  0.00  0.00    +0.234 C 
ATOM      2  N   UNL     1       7.990  -1.450  24.747  0.00  0.00    -0.300 N 
ATOM      3  H   UNL     1       7.052  -1.781  24.939  0.00  0.00    +0.150 HD
ATOM      4  O   UNL     1      10.075  -2.044  24.080  0.00  0.00    -0.274 OA
ENDROOT
BRANCH   1   5
ATOM      5  C   UNL     1       8.371  -3.807  24.037  0.00  0.00    +0.159 C 
BRANCH   5   6
ATOM      6  N   UNL     1       7.483  -4.211  25.132  0.00  0.00    -0.298 N 
ATOM      7  H   UNL     1       6.501  -3.947  25.132  0.00  0.00    +0.150 HD
ATOM      8  C   UNL     1       7.978  -4.845  26.257  0.00  0.00    +0.280 C 
ATOM      9  O   UNL     1       9.170  -5.102  26.382  0.00  0.00    -0.267 OA
BRANCH   8  10
ATOM     10  C   UNL     1       6.994  -5.108  27.279  0.00  0.00    +0.189 A 
ATOM     11  O   UNL     1       7.209  -6.105  28.192  0.00  0.00    -0.458 OA
ATOM     12  C   UNL     1       6.131  -6.119  29.025  0.00  0.00    +0.196 A 
ATOM     13  C   UNL     1       5.224  -5.156  28.656  0.00  0.00    +0.042 A 
ATOM     14  C   UNL     1       5.775  -4.507  27.529  0.00  0.00    +0.054 A 
ENDBRANCH   8  10
ENDBRANCH   5   6
BRANCH   5  15
ATOM     15  C   UNL     1       7.660  -4.032  22.690  0.00  0.00    +0.034 C 
BRANCH  15  16
ATOM     16  C   UNL     1       6.270  -4.705  22.733  0.00  0.00    -0.015 C 
ATOM     17  C   UNL     1       6.177  -5.792  21.656  0.00  0.00    +0.007 C 
ATOM     18  C   UNL     1       5.117  -3.717  22.548  0.00  0.00    +0.007 C 
ENDBRANCH  15  16
ENDBRANCH   5  15
ENDBRANCH   1   5
BRANCH   2  19
ATOM     19  C   UNL     1       8.355  -0.091  25.208  0.00  0.00    +0.191 C 
BRANCH  19  20
ATOM     20  P   UNL     1       7.761   0.186  26.917  0.00  0.00    +0.348 P 
ATOM     21  O   UNL     1       7.259   0.419  28.363  0.00  0.00    -0.257 OA
BRANCH  20  22
ATOM     22  O   UNL     1       9.200  -0.395  27.464  0.00  0.00    -0.323 OA
ATOM     23  H   UNL     1       8.957  -1.034  28.169  0.00  0.00    +0.220 HD
ENDBRANCH  20  22
BRANCH  20  24
ATOM     24  O   UNL     1       7.006  -1.286  26.831  0.00  0.00    -0.323 OA
ATOM     25  H   UNL     1       6.976  -1.851  27.629  0.00  0.00    +0.220 HD
ENDBRANCH  20  24
ENDBRANCH  19  20
BRANCH  19  26
ATOM     26  C   UNL     1       7.841   0.966  24.209  0.00  0.00    +0.072 C 
BRANCH  26  27
ATOM     27  C   UNL     1       8.848   2.009  23.819  0.00  0.00    -0.020 A 
ATOM     28  C   UNL     1       8.960   3.350  24.324  0.00  0.00    +0.003 A 
ATOM     29  C   UNL     1       8.235   4.118  25.259  0.00  0.00    +0.010 A 
ATOM     30  C   UNL     1       8.611   5.446  25.507  0.00  0.00    +0.001 A 
ATOM     31  C   UNL     1       9.704   6.008  24.855  0.00  0.00    +0.002 A 
ATOM     32  C   UNL     1      10.439   5.272  23.924  0.00  0.00    +0.026 A 
ATOM     33  C   UNL     1      10.035   3.955  23.668  0.00  0.00    +0.047 A 
ATOM     34  N   UNL     1      10.527   3.041  22.768  0.00  0.00    -0.360 N 
ATOM     35  H   UNL     1      11.283   3.225  22.123  0.00  0.00    +0.165 HD
ATOM     36  C   UNL     1       9.799   1.882  22.824  0.00  0.00    +0.087 A 
ENDBRANCH  26  27
ENDBRANCH  19  26
ENDBRANCH   2  19
TORSDOF 11
ENDMDL
MODEL 4
REMARK VINA RESULT:      -5.8      3.329      6.996
REMARK  Name = 
REMARK  13 active torsions:
REMARK  status: ('A' for Active; 'I' for Inactive)
REMARK    1  A    between atoms: C_2  and  C_3
REMARK    2  A    between atoms: C_2  and  N_7
REMARK    3  A    between atoms: C_2  and  C_15
REMARK    4  A    between atoms: C_3  and  C_4
REMARK    5  A    between atoms: C_4  and  C_5
REMARK    6  A    between atoms: C_4  and  C_6
REMARK    7  A    between atoms: C_8  and  C_10
REMARK    8  A    between atoms: N_17  and  C_18
REMARK    9  A    between atoms: C_18  and  C_20
REMARK   10  A    between atoms: C_18  and  P_30
REMARK   11  A    between atoms: C_20  and  C_21
REMARK   12  A    between atoms: P_30  and  O_31
REMARK   13  A    between atoms: P_30  and  O_32
REMARK                            x       y       z     vdW  Elec       q    Type
REMARK                         _______ _______ _______ _____ _____    ______ ____
ROOT
ATOM      1  C   UNL     1       8.301  -2.866  23.790  0.00  0.00    +0.234 C 
ATOM      2  N   UNL     1       7.045  -3.399  23.595  0.00  0.00    -0.300 N 
ATOM      3  H   UNL     1       6.282  -2.752  23.434  0.00  0.00    +0.150 HD
ATOM      4  O   UNL     1       9.282  -3.596  23.918  0.00  0.00    -0.274 OA
ENDROOT
BRANCH   1   5
ATOM      5  C   UNL     1       8.396  -1.313  23.778  0.00  0.00    +0.159 C 
BRANCH   5   6
ATOM      6  N   UNL     1       7.397  -0.727  24.677  0.00  0.00    -0.298 N 
ATOM      7  H   UNL     1       7.235  -1.118  25.603  0.00  0.00    +0.150 HD
ATOM      8  C   UNL     1       6.556   0.284  24.250  0.00  0.00    +0.280 C 
ATOM      9  O   UNL     1       6.614   0.735  23.112  0.00  0.00    -0.267 OA
BRANCH   8  10
ATOM     10  C   UNL     1       5.576   0.701  25.224  0.00  0.00    +0.189 A 
ATOM     11  O   UNL     1       4.673   1.680  24.907  0.00  0.00    -0.458 OA
ATOM     12  C   UNL     1       3.882   1.859  26.001  0.00  0.00    +0.196 A 
ATOM     13  C   UNL     1       4.268   1.020  27.019  0.00  0.00    +0.042 A 
ATOM     14  C   UNL     1       5.362   0.277  26.522  0.00  0.00    +0.054 A 
ENDBRANCH   8  10
ENDBRANCH   5   6
BRANCH   5  15
ATOM     15  C   UNL     1       9.786  -0.745  24.115  0.00  0.00    +0.034 C 
BRANCH  15  16
ATOM     16  C   UNL     1      10.356   0.331  23.164  0.00  0.00    -0.015 C 
ATOM     17  C   UNL     1      10.159   1.726  23.766  0.00  0.00    +0.007 C 
ATOM     18  C   UNL     1       9.726   0.295  21.769  0.00  0.00    +0.007 C 
ENDBRANCH  15  16
ENDBRANCH   5  15
ENDBRANCH   1   5
BRANCH   2  19
ATOM     19  C   UNL     1       6.791  -4.841  23.380  0.00  0.00    +0.191 C 
BRANCH  19  20
ATOM     20  P   UNL     1       6.355  -5.161  21.631  0.00  0.00    +0.348 P 
ATOM     21  O   UNL     1       5.986  -5.432  20.152  0.00  0.00    -0.257 OA
BRANCH  20  22
ATOM     22  O   UNL     1       5.419  -3.808  21.662  0.00  0.00    -0.323 OA
ATOM     23  H   UNL     1       5.865  -3.215  22.305  0.00  0.00    +0.220 HD
ENDBRANCH  20  22
BRANCH  20  24
ATOM     24  O   UNL     1       5.180  -6.194  22.173  0.00  0.00    -0.323 OA
ATOM     25  H   UNL     1       4.849  -6.893  21.575  0.00  0.00    +0.220 HD
ENDBRANCH  20  24
ENDBRANCH  19  20
BRANCH  19  26
ATOM     26  C   UNL     1       5.724  -5.347  24.372  0.00  0.00    +0.072 C 
BRANCH  26  27
ATOM     27  C   UNL     1       6.222  -5.588  25.768  0.00  0.00    -0.020 A 
ATOM     28  C   UNL     1       5.437  -5.799  26.953  0.00  0.00    +0.003 A 
ATOM     29  C   UNL     1       4.054  -5.837  27.229  0.00  0.00    +0.010 A 
ATOM     30  C   UNL     1       3.613  -6.050  28.543  0.00  0.00    +0.001 A 
ATOM     31  C   UNL     1       4.527  -6.245  29.575  0.00  0.00    +0.002 A 
ATOM     32  C   UNL     1       5.902  -6.212  29.331  0.00  0.00    +0.026 A 
ATOM     33  C   UNL     1       6.326  -5.972  28.018  0.00  0.00    +0.047 A 
ATOM     34  N   UNL     1       7.595  -5.824  27.514  0.00  0.00    -0.360 N 
ATOM     35  H   UNL     1       8.437  -5.855  28.071  0.00  0.00    +0.165 HD
ATOM     36  C   UNL     1       7.544  -5.557  26.171  0.00  0.00    +0.087 A 
ENDBRANCH  26  27
ENDBRANCH  19  26
ENDBRANCH   2  19
TORSDOF 11
ENDMDL
MODEL 5
REMARK VINA RESULT:      -5.8      2.278      6.068
REMARK  Name = 
REMARK  13 active torsions:
REMARK  status: ('A' for Active; 'I' for Inactive)
REMARK    1  A    between atoms: C_2  and  C_3
REMARK    2  A    between atoms: C_2  and  N_7
REMARK    3  A    between atoms: C_2  and  C_15
REMARK    4  A    between atoms: C_3  and  C_4
REMARK    5  A    between atoms: C_4  and  C_5
REMARK    6  A    between atoms: C_4  and  C_6
REMARK    7  A    between atoms: C_8  and  C_10
REMARK    8  A    between atoms: N_17  and  C_18
REMARK    9  A    between atoms: C_18  and  C_20
REMARK   10  A    between atoms: C_18  and  P_30
REMARK   11  A    between atoms: C_20  and  C_21
REMARK   12  A    between atoms: P_30  and  O_31
REMARK   13  A    between atoms: P_30  and  O_32
REMARK                            x       y       z     vdW  Elec       q    Type
REMARK                         _______ _______ _______ _____ _____    ______ ____
ROOT
ATOM      1  C   UNL     1       6.410  -1.929  25.045  0.00  0.00    +0.234 C 
ATOM      2  N   UNL     1       7.785  -1.979  24.990  0.00  0.00    -0.300 N 
ATOM      3  H   UNL     1       8.300  -1.220  25.423  0.00  0.00    +0.150 HD
ATOM      4  O   UNL     1       5.728  -2.851  24.603  0.00  0.00    -0.274 OA
ENDROOT
BRANCH   1   5
ATOM      5  C   UNL     1       5.796  -0.680  25.741  0.00  0.00    +0.159 C 
BRANCH   5   6
ATOM      6  N   UNL     1       5.909   0.500  24.878  0.00  0.00    -0.298 N 
ATOM      7  H   UNL     1       5.301   0.617  24.071  0.00  0.00    +0.150 HD
ATOM      8  C   UNL     1       6.927   1.420  25.054  0.00  0.00    +0.280 C 
ATOM      9  O   UNL     1       7.767   1.293  25.936  0.00  0.00    -0.267 OA
BRANCH   8  10
ATOM     10  C   UNL     1       6.950   2.483  24.078  0.00  0.00    +0.189 A 
ATOM     11  O   UNL     1       7.428   3.718  24.426  0.00  0.00    -0.458 OA
ATOM     12  C   UNL     1       7.334   4.507  23.319  0.00  0.00    +0.196 A 
ATOM     13  C   UNL     1       6.794   3.802  22.270  0.00  0.00    +0.042 A 
ATOM     14  C   UNL     1       6.541   2.501  22.758  0.00  0.00    +0.054 A 
ENDBRANCH   8  10
ENDBRANCH   5   6
BRANCH   5  15
ATOM     15  C   UNL     1       4.336  -0.843  26.199  0.00  0.00    +0.034 C 
BRANCH  15  16
ATOM     16  C   UNL     1       4.064  -0.774  27.718  0.00  0.00    -0.015 C 
ATOM     17  C   UNL     1       5.148   0.057  28.411  0.00  0.00    +0.007 C 
ATOM     18  C   UNL     1       3.992  -2.153  28.379  0.00  0.00    +0.007 C 
ENDBRANCH  15  16
ENDBRANCH   5  15
ENDBRANCH   1   5
BRANCH   2  19
ATOM     19  C   UNL     1       8.545  -3.169  24.546  0.00  0.00    +0.191 C 
BRANCH  19  20
ATOM     20  P   UNL     1       8.753  -4.348  25.931  0.00  0.00    +0.348 P 
ATOM     21  O   UNL     1       8.929  -5.346  27.102  0.00  0.00    -0.257 OA
BRANCH  20  22
ATOM     22  O   UNL     1       9.948  -5.081  25.069  0.00  0.00    -0.323 OA
ATOM     23  H   UNL     1       9.766  -4.836  24.136  0.00  0.00    +0.220 HD
ENDBRANCH  20  22
BRANCH  20  24
ATOM     24  O   UNL     1       7.511  -5.234  25.287  0.00  0.00    -0.323 OA
ATOM     25  H   UNL     1       7.635  -5.664  24.417  0.00  0.00    +0.220 HD
ENDBRANCH  20  24
ENDBRANCH  19  20
BRANCH  19  26
ATOM     26  C   UNL     1       9.883  -2.740  23.910  0.00  0.00    +0.072 C 
BRANCH  26  27
ATOM     27  C   UNL     1       9.786  -1.595  22.944  0.00  0.00    -0.020 A 
ATOM     28  C   UNL     1      10.107  -0.215  23.187  0.00  0.00    +0.003 A 
ATOM     29  C   UNL     1      10.566   0.511  24.306  0.00  0.00    +0.010 A 
ATOM     30  C   UNL     1      10.761   1.896  24.204  0.00  0.00    +0.001 A 
ATOM     31  C   UNL     1      10.525   2.558  23.003  0.00  0.00    +0.002 A 
ATOM     32  C   UNL     1      10.070   1.866  21.879  0.00  0.00    +0.026 A 
ATOM     33  C   UNL     1       9.856   0.487  22.005  0.00  0.00    +0.047 A 
ATOM     34  N   UNL     1       9.357  -0.415  21.097  0.00  0.00    -0.360 N 
ATOM     35  H   UNL     1       9.046  -0.174  20.166  0.00  0.00    +0.165 HD
ATOM     36  C   UNL     1       9.277  -1.661  21.661  0.00  0.00    +0.087 A 
ENDBRANCH  26  27
ENDBRANCH  19  26
ENDBRANCH   2  19
TORSDOF 11
ENDMDL
MODEL 6
REMARK VINA RESULT:      -5.6      3.027      4.844
REMARK  Name = 
REMARK  13 active torsions:
REMARK  status: ('A' for Active; 'I' for Inactive)
REMARK    1  A    between atoms: C_2  and  C_3
REMARK    2  A    between atoms: C_2  and  N_7
REMARK    3  A    between atoms: C_2  and  C_15
REMARK    4  A    between atoms: C_3  and  C_4
REMARK    5  A    between atoms: C_4  and  C_5
REMARK    6  A    between atoms: C_4  and  C_6
REMARK    7  A    between atoms: C_8  and  C_10
REMARK    8  A    between atoms: N_17  and  C_18
REMARK    9  A    between atoms: C_18  and  C_20
REMARK   10  A    between atoms: C_18  and  P_30
REMARK   11  A    between atoms: C_20  and  C_21
REMARK   12  A    between atoms: P_30  and  O_31
REMARK   13  A    between atoms: P_30  and  O_32
REMARK                            x       y       z     vdW  Elec       q    Type
REMARK                         _______ _______ _______ _____ _____    ______ ____
ROOT
ATOM      1  C   UNL     1       6.412  -1.805  23.732  0.00  0.00    +0.234 C 
ATOM      2  N   UNL     1       7.352  -0.870  24.106  0.00  0.00    -0.300 N 
ATOM      3  H   UNL     1       7.590  -0.811  25.089  0.00  0.00    +0.150 HD
ATOM      4  O   UNL     1       6.131  -1.978  22.548  0.00  0.00    -0.274 OA
ENDROOT
BRANCH   1   5
ATOM      5  C   UNL     1       5.788  -2.648  24.882  0.00  0.00    +0.159 C 
BRANCH   5   6
ATOM      6  N   UNL     1       4.950  -3.722  24.340  0.00  0.00    -0.298 N 
ATOM      7  H   UNL     1       5.335  -4.411  23.698  0.00  0.00    +0.150 HD
ATOM      8  C   UNL     1       3.588  -3.754  24.576  0.00  0.00    +0.280 C 
ATOM      9  O   UNL     1       3.029  -2.897  25.250  0.00  0.00    -0.267 OA
BRANCH   8  10
ATOM     10  C   UNL     1       2.888  -4.827  23.912  0.00  0.00    +0.189 A 
ATOM     11  O   UNL     1       1.534  -4.749  23.729  0.00  0.00    -0.458 OA
ATOM     12  C   UNL     1       1.155  -5.885  23.080  0.00  0.00    +0.196 A 
ATOM     13  C   UNL     1       2.241  -6.696  22.852  0.00  0.00    +0.042 A 
ATOM     14  C   UNL     1       3.357  -6.019  23.392  0.00  0.00    +0.054 A 
ENDBRANCH   8  10
ENDBRANCH   5   6
BRANCH   5  15
ATOM     15  C   UNL     1       6.803  -3.241  25.877  0.00  0.00    +0.034 C 
BRANCH  15  16
ATOM     16  C   UNL     1       7.356  -4.648  25.560  0.00  0.00    -0.015 C 
ATOM     17  C   UNL     1       7.866  -5.315  26.843  0.00  0.00    +0.007 C 
ATOM     18  C   UNL     1       8.481  -4.634  24.523  0.00  0.00    +0.007 C 
ENDBRANCH  15  16
ENDBRANCH   5  15
ENDBRANCH   1   5
BRANCH   2  19
ATOM     19  C   UNL     1       8.188  -0.119  23.143  0.00  0.00    +0.191 C 
BRANCH  19  20
ATOM     20  P   UNL     1       9.665  -1.096  22.679  0.00  0.00    +0.348 P 
ATOM     21  O   UNL     1      10.914  -1.923  22.285  0.00  0.00    -0.257 OA
BRANCH  20  22
ATOM     22  O   UNL     1      10.601   0.102  23.306  0.00  0.00    -0.323 OA
ATOM     23  H   UNL     1      11.384  -0.363  23.672  0.00  0.00    +0.220 HD
ENDBRANCH  20  22
BRANCH  20  24
ATOM     24  O   UNL     1       9.548  -0.444  21.161  0.00  0.00    -0.323 OA
ATOM     25  H   UNL     1       8.953   0.319  21.016  0.00  0.00    +0.220 HD
ENDBRANCH  20  24
ENDBRANCH  19  20
BRANCH  19  26
ATOM     26  C   UNL     1       8.537   1.272  23.711  0.00  0.00    +0.072 C 
BRANCH  26  27
ATOM     27  C   UNL     1       7.858   2.423  23.027  0.00  0.00    -0.020 A 
ATOM     28  C   UNL     1       8.202   3.816  23.110  0.00  0.00    +0.003 A 
ATOM     29  C   UNL     1       9.185   4.553  23.805  0.00  0.00    +0.010 A 
ATOM     30  C   UNL     1       9.227   5.948  23.676  0.00  0.00    +0.001 A 
ATOM     31  C   UNL     1       8.321   6.613  22.854  0.00  0.00    +0.002 A 
ATOM     32  C   UNL     1       7.338   5.910  22.156  0.00  0.00    +0.026 A 
ATOM     33  C   UNL     1       7.293   4.519  22.315  0.00  0.00    +0.047 A 
ATOM     34  N   UNL     1       6.405   3.602  21.808  0.00  0.00    -0.360 N 
ATOM     35  H   UNL     1       5.609   3.836  21.231  0.00  0.00    +0.165 HD
ATOM     36  C   UNL     1       6.713   2.345  22.258  0.00  0.00    +0.087 A 
ENDBRANCH  26  27
ENDBRANCH  19  26
ENDBRANCH   2  19
TORSDOF 11
ENDMDL
MODEL 7
REMARK VINA RESULT:      -5.5      2.424      4.852
REMARK  Name = 
REMARK  13 active torsions:
REMARK  status: ('A' for Active; 'I' for Inactive)
REMARK    1  A    between atoms: C_2  and  C_3
REMARK    2  A    between atoms: C_2  and  N_7
REMARK    3  A    between atoms: C_2  and  C_15
REMARK    4  A    between atoms: C_3  and  C_4
REMARK    5  A    between atoms: C_4  and  C_5
REMARK    6  A    between atoms: C_4  and  C_6
REMARK    7  A    between atoms: C_8  and  C_10
REMARK    8  A    between atoms: N_17  and  C_18
REMARK    9  A    between atoms: C_18  and  C_20
REMARK   10  A    between atoms: C_18  and  P_30
REMARK   11  A    between atoms: C_20  and  C_21
REMARK   12  A    between atoms: P_30  and  O_31
REMARK   13  A    between atoms: P_30  and  O_32
REMARK                            x       y       z     vdW  Elec       q    Type
REMARK                         _______ _______ _______ _____ _____    ______ ____
ROOT
ATOM      1  C   UNL     1       6.887  -0.024  23.872  0.00  0.00    +0.234 C 
ATOM      2  N   UNL     1       6.379  -0.724  24.944  0.00  0.00    -0.300 N 
ATOM      3  H   UNL     1       6.818  -1.608  25.178  0.00  0.00    +0.150 HD
ATOM      4  O   UNL     1       6.448   1.086  23.580  0.00  0.00    -0.274 OA
ENDROOT
BRANCH   1   5
ATOM      5  C   UNL     1       8.066  -0.697  23.110  0.00  0.00    +0.159 C 
BRANCH   5   6
ATOM      6  N   UNL     1       7.634  -1.959  22.502  0.00  0.00    -0.298 N 
ATOM      7  H   UNL     1       7.172  -1.971  21.595  0.00  0.00    +0.150 HD
ATOM      8  C   UNL     1       7.721  -3.153  23.195  0.00  0.00    +0.280 C 
ATOM      9  O   UNL     1       8.165  -3.208  24.335  0.00  0.00    -0.267 OA
BRANCH   8  10
ATOM     10  C   UNL     1       7.185  -4.295  22.492  0.00  0.00    +0.189 A 
ATOM     11  O   UNL     1       7.703  -5.541  22.721  0.00  0.00    -0.458 OA
ATOM     12  C   UNL     1       7.008  -6.410  21.935  0.00  0.00    +0.196 A 
ATOM     13  C   UNL     1       6.061  -5.741  21.197  0.00  0.00    +0.042 A 
ATOM     14  C   UNL     1       6.176  -4.379  21.551  0.00  0.00    +0.054 A 
ENDBRANCH   8  10
ENDBRANCH   5   6
BRANCH   5  15
ATOM     15  C   UNL     1       8.737   0.185  22.042  0.00  0.00    +0.034 C 
BRANCH  15  16
ATOM     16  C   UNL     1      10.112   0.794  22.396  0.00  0.00    -0.015 C 
ATOM     17  C   UNL     1      10.644   0.176  23.693  0.00  0.00    +0.007 C 
ATOM     18  C   UNL     1      10.075   2.317  22.546  0.00  0.00    +0.007 C 
ENDBRANCH  15  16
ENDBRANCH   5  15
ENDBRANCH   1   5
BRANCH   2  19
ATOM     19  C   UNL     1       5.398  -0.162  25.899  0.00  0.00    +0.191 C 
BRANCH  19  20
ATOM     20  P   UNL     1       6.256   0.744  27.239  0.00  0.00    +0.348 P 
ATOM     21  O   UNL     1       6.981   1.512  28.372  0.00  0.00    -0.257 OA
BRANCH  20  22
ATOM     22  O   UNL     1       4.868   0.668  28.120  0.00  0.00    -0.323 OA
ATOM     23  H   UNL     1       4.913  -0.200  28.576  0.00  0.00    +0.220 HD
ENDBRANCH  20  22
BRANCH  20  24
ATOM     24  O   UNL     1       5.879   2.151  26.450  0.00  0.00    -0.323 OA
ATOM     25  H   UNL     1       6.119   2.245  25.506  0.00  0.00    +0.220 HD
ENDBRANCH  20  24
ENDBRANCH  19  20
BRANCH  19  26
ATOM     26  C   UNL     1       4.465  -1.274  26.421  0.00  0.00    +0.072 C 
BRANCH  26  27
ATOM     27  C   UNL     1       5.029  -2.663  26.339  0.00  0.00    -0.020 A 
ATOM     28  C   UNL     1       4.558  -3.752  25.529  0.00  0.00    +0.003 A 
ATOM     29  C   UNL     1       3.492  -3.919  24.620  0.00  0.00    +0.010 A 
ATOM     30  C   UNL     1       3.296  -5.162  24.001  0.00  0.00    +0.001 A 
ATOM     31  C   UNL     1       4.154  -6.227  24.258  0.00  0.00    +0.002 A 
ATOM     32  C   UNL     1       5.217  -6.090  25.154  0.00  0.00    +0.026 A 
ATOM     33  C   UNL     1       5.384  -4.850  25.784  0.00  0.00    +0.047 A 
ATOM     34  N   UNL     1       6.288  -4.463  26.743  0.00  0.00    -0.360 N 
ATOM     35  H   UNL     1       6.982  -5.072  27.152  0.00  0.00    +0.165 HD
ATOM     36  C   UNL     1       6.062  -3.162  27.110  0.00  0.00    +0.087 A 
ENDBRANCH  26  27
ENDBRANCH  19  26
ENDBRANCH   2  19
TORSDOF 11
ENDMDL
MODEL 8
REMARK VINA RESULT:      -5.5      2.869      7.231
REMARK  Name = 
REMARK  13 active torsions:
REMARK  status: ('A' for Active; 'I' for Inactive)
REMARK    1  A    between atoms: C_2  and  C_3
REMARK    2  A    between atoms: C_2  and  N_7
REMARK    3  A    between atoms: C_2  and  C_15
REMARK    4  A    between atoms: C_3  and  C_4
REMARK    5  A    between atoms: C_4  and  C_5
REMARK    6  A    between atoms: C_4  and  C_6
REMARK    7  A    between atoms: C_8  and  C_10
REMARK    8  A    between atoms: N_17  and  C_18
REMARK    9  A    between atoms: C_18  and  C_20
REMARK   10  A    between atoms: C_18  and  P_30
REMARK   11  A    between atoms: C_20  and  C_21
REMARK   12  A    between atoms: P_30  and  O_31
REMARK   13  A    between atoms: P_30  and  O_32
REMARK                            x       y       z     vdW  Elec       q    Type
REMARK                         _______ _______ _______ _____ _____    ______ ____
ROOT
ATOM      1  C   UNL     1       9.365  -1.677  24.460  0.00  0.00    +0.234 C 
ATOM      2  N   UNL     1       8.444  -2.680  24.667  0.00  0.00    -0.300 N 
ATOM      3  H   UNL     1       7.778  -2.557  25.421  0.00  0.00    +0.150 HD
ATOM      4  O   UNL     1      10.154  -1.730  23.519  0.00  0.00    -0.274 OA
ENDROOT
BRANCH   1   5
ATOM      5  C   UNL     1       9.298  -0.472  25.442  0.00  0.00    +0.159 C 
BRANCH   5   6
ATOM      6  N   UNL     1       8.682   0.690  24.793  0.00  0.00    -0.298 N 
ATOM      7  H   UNL     1       7.678   0.729  24.635  0.00  0.00    +0.150 HD
ATOM      8  C   UNL     1       9.456   1.704  24.258  0.00  0.00    +0.280 C 
ATOM      9  O   UNL     1      10.680   1.678  24.309  0.00  0.00    -0.267 OA
BRANCH   8  10
ATOM     10  C   UNL     1       8.708   2.738  23.584  0.00  0.00    +0.189 A 
ATOM     11  O   UNL     1       8.900   4.050  23.925  0.00  0.00    -0.458 OA
ATOM     12  C   UNL     1       8.075   4.790  23.133  0.00  0.00    +0.196 A 
ATOM     13  C   UNL     1       7.350   3.975  22.297  0.00  0.00    +0.042 A 
ATOM     14  C   UNL     1       7.752   2.653  22.590  0.00  0.00    +0.054 A 
ENDBRANCH   8  10
ENDBRANCH   5   6
BRANCH   5  15
ATOM     15  C   UNL     1       8.580  -0.757  26.773  0.00  0.00    +0.034 C 
BRANCH  15  16
ATOM     16  C   UNL     1       7.162  -0.167  26.946  0.00  0.00    -0.015 C 
ATOM     17  C   UNL     1       7.104   0.705  28.205  0.00  0.00    +0.007 C 
ATOM     18  C   UNL     1       6.071  -1.237  27.029  0.00  0.00    +0.007 C 
ENDBRANCH  15  16
ENDBRANCH   5  15
ENDBRANCH   1   5
BRANCH   2  19
ATOM     19  C   UNL     1       8.228  -3.802  23.725  0.00  0.00    +0.191 C 
BRANCH  19  20
ATOM     20  P   UNL     1       6.688  -3.546  22.769  0.00  0.00    +0.348 P 
ATOM     21  O   UNL     1       5.385  -3.330  21.960  0.00  0.00    -0.257 OA
BRANCH  20  22
ATOM     22  O   UNL     1       7.105  -4.835  21.836  0.00  0.00    -0.323 OA
ATOM     23  H   UNL     1       6.361  -4.933  21.203  0.00  0.00    +0.220 HD
ENDBRANCH  20  22
BRANCH  20  24
ATOM     24  O   UNL     1       7.501  -2.416  21.872  0.00  0.00    -0.323 OA
ATOM     25  H   UNL     1       8.278  -1.969  22.262  0.00  0.00    +0.220 HD
ENDBRANCH  20  24
ENDBRANCH  19  20
BRANCH  19  26
ATOM     26  C   UNL     1       8.255  -5.146  24.481  0.00  0.00    +0.072 C 
BRANCH  26  27
ATOM     27  C   UNL     1       7.337  -5.223  25.666  0.00  0.00    -0.020 A 
ATOM     28  C   UNL     1       6.011  -5.775  25.711  0.00  0.00    +0.003 A 
ATOM     29  C   UNL     1       5.154  -6.369  24.760  0.00  0.00    +0.010 A 
ATOM     30  C   UNL     1       3.873  -6.790  25.146  0.00  0.00    +0.001 A 
ATOM     31  C   UNL     1       3.446  -6.646  26.463  0.00  0.00    +0.002 A 
ATOM     32  C   UNL     1       4.272  -6.062  27.425  0.00  0.00    +0.026 A 
ATOM     33  C   UNL     1       5.539  -5.623  27.018  0.00  0.00    +0.047 A 
ATOM     34  N   UNL     1       6.513  -4.964  27.726  0.00  0.00    -0.360 N 
ATOM     35  H   UNL     1       6.424  -4.680  28.692  0.00  0.00    +0.165 HD
ATOM     36  C   UNL     1       7.583  -4.687  26.916  0.00  0.00    +0.087 A 
ENDBRANCH  26  27
ENDBRANCH  19  26
ENDBRANCH   2  19
TORSDOF 11
ENDMDL
MODEL 9
REMARK VINA RESULT:      -5.4      3.012      6.932
REMARK  Name = 
REMARK  13 active torsions:
REMARK  status: ('A' for Active; 'I' for Inactive)
REMARK    1  A    between atoms: C_2  and  C_3
REMARK    2  A    between atoms: C_2  and  N_7
REMARK    3  A    between atoms: C_2  and  C_15
REMARK    4  A    between atoms: C_3  and  C_4
REMARK    5  A    between atoms: C_4  and  C_5
REMARK    6  A    between atoms: C_4  and  C_6
REMARK    7  A    between atoms: C_8  and  C_10
REMARK    8  A    between atoms: N_17  and  C_18
REMARK    9  A    between atoms: C_18  and  C_20
REMARK   10  A    between atoms: C_18  and  P_30
REMARK   11  A    between atoms: C_20  and  C_21
REMARK   12  A    between atoms: P_30  and  O_31
REMARK   13  A    between atoms: P_30  and  O_32
REMARK                            x       y       z     vdW  Elec       q    Type
REMARK                         _______ _______ _______ _____ _____    ______ ____
ROOT
ATOM      1  C   UNL     1       8.053  -4.155  24.603  0.00  0.00    +0.234 C 
ATOM      2  N   UNL     1       6.778  -4.436  24.165  0.00  0.00    -0.300 N 
ATOM      3  H   UNL     1       6.070  -3.722  24.292  0.00  0.00    +0.150 HD
ATOM      4  O   UNL     1       8.974  -4.948  24.414  0.00  0.00    -0.274 OA
ENDROOT
BRANCH   1   5
ATOM      5  C   UNL     1       8.254  -2.771  25.286  0.00  0.00    +0.159 C 
BRANCH   5   6
ATOM      6  N   UNL     1       8.290  -1.701  24.283  0.00  0.00    -0.298 N 
ATOM      7  H   UNL     1       7.693  -1.736  23.460  0.00  0.00    +0.150 HD
ATOM      8  C   UNL     1       9.225  -0.685  24.356  0.00  0.00    +0.280 C 
ATOM      9  O   UNL     1      10.053  -0.631  25.258  0.00  0.00    -0.267 OA
BRANCH   8  10
ATOM     10  C   UNL     1       9.184   0.248  23.255  0.00  0.00    +0.189 A 
ATOM     11  O   UNL     1      10.264   1.050  23.000  0.00  0.00    -0.458 OA
ATOM     12  C   UNL     1       9.946   1.812  21.917  0.00  0.00    +0.196 A 
ATOM     13  C   UNL     1       8.676   1.520  21.478  0.00  0.00    +0.042 A 
ATOM     14  C   UNL     1       8.182   0.517  22.341  0.00  0.00    +0.054 A 
ENDBRANCH   8  10
ENDBRANCH   5   6
BRANCH   5  15
ATOM     15  C   UNL     1       7.216  -2.424  26.369  0.00  0.00    +0.034 C 
BRANCH  15  16
ATOM     16  C   UNL     1       6.395  -1.131  26.166  0.00  0.00    -0.015 C 
ATOM     17  C   UNL     1       6.770  -0.095  27.231  0.00  0.00    +0.007 C 
ATOM     18  C   UNL     1       4.883  -1.366  26.208  0.00  0.00    +0.007 C 
ENDBRANCH  15  16
ENDBRANCH   5  15
ENDBRANCH   1   5
BRANCH   2  19
ATOM     19  C   UNL     1       6.440  -5.608  23.326  0.00  0.00    +0.191 C 
BRANCH  19  20
ATOM     20  P   UNL     1       6.150  -5.092  21.594  0.00  0.00    +0.348 P 
ATOM     21  O   UNL     1       5.904  -4.656  20.128  0.00  0.00    -0.257 OA
BRANCH  20  22
ATOM     22  O   UNL     1       5.157  -3.908  22.158  0.00  0.00    -0.323 OA
ATOM     23  H   UNL     1       5.684  -3.454  22.851  0.00  0.00    +0.220 HD
ENDBRANCH  20  22
BRANCH  20  24
ATOM     24  O   UNL     1       4.982  -6.263  21.501  0.00  0.00    -0.323 OA
ATOM     25  H   UNL     1       4.887  -6.774  20.672  0.00  0.00    +0.220 HD
ENDBRANCH  20  24
ENDBRANCH  19  20
BRANCH  19  26
ATOM     26  C   UNL     1       5.249  -6.375  23.936  0.00  0.00    +0.072 C 
BRANCH  26  27
ATOM     27  C   UNL     1       4.494  -5.629  24.999  0.00  0.00    -0.020 A 
ATOM     28  C   UNL     1       4.851  -5.476  26.382  0.00  0.00    +0.003 A 
ATOM     29  C   UNL     1       5.917  -5.934  27.185  0.00  0.00    +0.010 A 
ATOM     30  C   UNL     1       5.949  -5.610  28.549  0.00  0.00    +0.001 A 
ATOM     31  C   UNL     1       4.950  -4.824  29.115  0.00  0.00    +0.002 A 
ATOM     32  C   UNL     1       3.882  -4.358  28.345  0.00  0.00    +0.026 A 
ATOM     33  C   UNL     1       3.852  -4.711  26.989  0.00  0.00    +0.047 A 
ATOM     34  N   UNL     1       2.903  -4.451  26.031  0.00  0.00    -0.360 N 
ATOM     35  H   UNL     1       2.041  -3.951  26.202  0.00  0.00    +0.165 HD
ATOM     36  C   UNL     1       3.260  -5.027  24.841  0.00  0.00    +0.087 A 
ENDBRANCH  26  27
ENDBRANCH  19  26
ENDBRANCH   2  19
TORSDOF 11
ENDMDL
