MODEL 1
REMARK VINA RESULT:      -7.7      0.000      0.000
REMARK  Name = 
REMARK  17 active torsions:
REMARK  status: ('A' for Active; 'I' for Inactive)
REMARK    1  A    between atoms: N_10  and  C_11
REMARK    2  A    between atoms: C_14  and  C_16
REMARK    3  A    between atoms: C_16  and  O_17
REMARK    4  A    between atoms: O_17  and  P_18
REMARK    5  A    between atoms: P_18  and  O_19
REMARK    6  A    between atoms: P_18  and  O_21
REMARK    7  A    between atoms: O_21  and  P_22
REMARK    8  A    between atoms: P_22  and  O_23
REMARK    9  A    between atoms: P_22  and  O_25
REMARK   10  A    between atoms: O_25  and  C_26
REMARK   11  A    between atoms: C_29  and  C_31
REMARK   12  A    between atoms: C_31  and  O_32
REMARK   13  A    between atoms: C_33  and  O_35
REMARK   14  A    between atoms: C_36  and  O_38
REMARK   15  A    between atoms: C_39  and  O_41
REMARK   16  A    between atoms: C_42  and  O_44
REMARK   17  A    between atoms: C_45  and  O_47
REMARK                            x       y       z     vdW  Elec       q    Type
REMARK                         _______ _______ _______ _____ _____    ______ ____
ROOT
ATOM      1  P   UNL     1      10.110  -1.209  22.444  0.00  0.00    +0.483 P 
ATOM      2  O   UNL     1       9.786  -0.008  21.544  0.00  0.00    -0.227 OA
ENDROOT
BRANCH   1   3
ATOM      3  O   UNL     1       9.304  -2.208  21.284  0.00  0.00    -0.302 OA
ATOM      4  H   UNL     1       9.703  -1.933  20.434  0.00  0.00    +0.222 HD
ENDBRANCH   1   3
BRANCH   1   5
ATOM      5  O   UNL     1      10.914  -0.208  23.603  0.00  0.00    -0.186 OA
BRANCH   5   6
ATOM      6  P   UNL     1       9.847   1.052  24.118  0.00  0.00    +0.486 P 
ATOM      7  O   UNL     1      10.932   2.112  23.928  0.00  0.00    -0.227 OA
BRANCH   6   8
ATOM      8  O   UNL     1       9.967   0.527  25.658  0.00  0.00    -0.302 OA
ATOM      9  H   UNL     1      10.818   0.118  25.893  0.00  0.00    +0.222 HD
ENDBRANCH   6   8
BRANCH   6  10
ATOM     10  O   UNL     1       8.782   2.313  24.633  0.00  0.00    -0.254 OA
BRANCH  10  11
ATOM     11  C   UNL     1       7.400   2.218  24.443  0.00  0.00    +0.293 C 
ATOM     12  C   UNL     1       6.980   1.954  22.998  0.00  0.00    +0.202 C 
ATOM     13  C   UNL     1       7.492   3.059  22.079  0.00  0.00    +0.179 C 
ATOM     14  C   UNL     1       7.565   4.472  22.707  0.00  0.00    +0.177 C 
ATOM     15  C   UNL     1       7.334   4.617  24.236  0.00  0.00    +0.178 C 
ATOM     16  O   UNL     1       6.801   3.445  24.880  0.00  0.00    -0.340 OA
BRANCH  14  17
ATOM     17  O   UNL     1       6.552   5.254  22.031  0.00  0.00    -0.386 OA
ATOM     18  H   UNL     1       6.694   5.148  21.071  0.00  0.00    +0.210 HD
ENDBRANCH  14  17
BRANCH  13  19
ATOM     19  O   UNL     1       8.776   2.643  21.590  0.00  0.00    -0.386 OA
ATOM     20  H   UNL     1       8.797   2.856  20.636  0.00  0.00    +0.210 HD
ENDBRANCH  13  19
BRANCH  12  21
ATOM     21  O   UNL     1       5.554   1.850  22.911  0.00  0.00    -0.384 OA
ATOM     22  H   UNL     1       5.298   1.910  21.974  0.00  0.00    +0.210 HD
ENDBRANCH  12  21
BRANCH  15  23
ATOM     23  C   UNL     1       8.565   5.159  25.007  0.00  0.00    +0.190 C 
BRANCH  23  24
ATOM     24  O   UNL     1       9.754   4.903  24.250  0.00  0.00    -0.392 OA
ATOM     25  H   UNL     1      10.480   4.852  24.898  0.00  0.00    +0.210 HD
ENDBRANCH  23  24
ENDBRANCH  15  23
ENDBRANCH  10  11
ENDBRANCH   6  10
ENDBRANCH   5   6
ENDBRANCH   1   5
BRANCH   1  26
ATOM     26  O   UNL     1       8.742  -1.423  23.344  0.00  0.00    -0.284 OA
BRANCH  26  27
ATOM     27  C   UNL     1       7.412  -1.783  23.008  0.00  0.00    +0.206 C 
BRANCH  27  31
ATOM     28  C   UNL     1       6.405  -5.473  23.098  0.00  0.00    +0.253 C 
ATOM     29  C   UNL     1       5.456  -4.826  22.089  0.00  0.00    +0.195 C 
ATOM     30  C   UNL     1       5.332  -3.395  22.617  0.00  0.00    +0.178 C 
ATOM     31  C   UNL     1       6.675  -3.142  23.306  0.00  0.00    +0.178 C 
ATOM     32  O   UNL     1       7.401  -4.402  23.326  0.00  0.00    -0.346 OA
BRANCH  28  40
ATOM     33  N   UNL     1       4.964  -7.313  28.711  0.00  0.00    -0.341 N 
ATOM     34  H   UNL     1       3.998  -7.460  28.440  0.00  0.00    +0.144 HD
ATOM     35  H   UNL     1       5.150  -7.040  29.670  0.00  0.00    +0.144 HD
ATOM     36  C   UNL     1       5.700  -6.596  27.793  0.00  0.00    +0.147 A 
ATOM     37  C   UNL     1       5.363  -6.477  26.428  0.00  0.00    +0.147 A 
ATOM     38  N   UNL     1       4.290  -6.926  25.695  0.00  0.00    -0.231 NA
ATOM     39  C   UNL     1       4.542  -6.555  24.454  0.00  0.00    +0.203 A 
ATOM     40  N   UNL     1       5.751  -5.917  24.334  0.00  0.00    -0.286 N 
ATOM     41  C   UNL     1       6.247  -5.787  25.611  0.00  0.00    +0.167 A 
ATOM     42  N   UNL     1       7.381  -5.170  26.007  0.00  0.00    -0.216 NA
ATOM     43  C   UNL     1       7.581  -5.308  27.336  0.00  0.00    +0.225 A 
ATOM     44  N   UNL     1       6.828  -5.979  28.231  0.00  0.00    -0.219 NA
ENDBRANCH  28  40
BRANCH  30  45
ATOM     45  O   UNL     1       4.310  -3.333  23.629  0.00  0.00    -0.386 OA
ATOM     46  H   UNL     1       3.521  -3.806  23.311  0.00  0.00    +0.210 HD
ENDBRANCH  30  45
BRANCH  29  47
ATOM     47  O   UNL     1       6.046  -4.842  20.782  0.00  0.00    -0.385 OA
ATOM     48  H   UNL     1       5.720  -4.057  20.300  0.00  0.00    +0.210 HD
ENDBRANCH  29  47
ENDBRANCH  27  31
ENDBRANCH  26  27
ENDBRANCH   1  26
TORSDOF 17
ENDMDL
MODEL 2
REMARK VINA RESULT:      -7.5      4.232      8.719
REMARK  Name = 
REMARK  17 active torsions:
REMARK  status: ('A' for Active; 'I' for Inactive)
REMARK    1  A    between atoms: N_10  and  C_11
REMARK    2  A    between atoms: C_14  and  C_16
REMARK    3  A    between atoms: C_16  and  O_17
REMARK    4  A    between atoms: O_17  and  P_18
REMARK    5  A    between atoms: P_18  and  O_19
REMARK    6  A    between atoms: P_18  and  O_21
REMARK    7  A    between atoms: O_21  and  P_22
REMARK    8  A    between atoms: P_22  and  O_23
REMARK    9  A    between atoms: P_22  and  O_25
REMARK   10  A    between atoms: O_25  and  C_26
REMARK   11  A    between atoms: C_29  and  C_31
REMARK   12  A    between atoms: C_31  and  O_32
REMARK   13  A    between atoms: C_33  and  O_35
REMARK   14  A    between atoms: C_36  and  O_38
REMARK   15  A    between atoms: C_39  and  O_41
REMARK   16  A    between atoms: C_42  and  O_44
REMARK   17  A    between atoms: C_45  and  O_47
REMARK                            x       y       z     vdW  Elec       q    Type
REMARK                         _______ _______ _______ _____ _____    ______ ____
ROOT
ATOM      1  P   UNL     1       8.664  -5.177  26.286  0.00  0.00    +0.483 P 
ATOM      2  O   UNL     1       9.120  -3.774  26.712  0.00  0.00    -0.227 OA
ENDROOT
BRANCH   1   3
ATOM      3  O   UNL     1      10.044  -5.236  25.244  0.00  0.00    -0.302 OA
ATOM      4  H   UNL     1       9.822  -4.595  24.539  0.00  0.00    +0.222 HD
ENDBRANCH   1   3
BRANCH   1   5
ATOM      5  O   UNL     1       7.284  -5.116  27.327  0.00  0.00    -0.186 OA
BRANCH   5   6
ATOM      6  P   UNL     1       5.909  -5.764  26.501  0.00  0.00    +0.486 P 
ATOM      7  O   UNL     1       5.027  -4.603  26.962  0.00  0.00    -0.227 OA
BRANCH   6   8
ATOM      8  O   UNL     1       5.778  -6.933  27.631  0.00  0.00    -0.302 OA
ATOM      9  H   UNL     1       6.581  -7.097  28.156  0.00  0.00    +0.222 HD
ENDBRANCH   6   8
BRANCH   6  10
ATOM     10  O   UNL     1       4.533  -6.410  25.676  0.00  0.00    -0.254 OA
BRANCH  10  11
ATOM     11  C   UNL     1       4.619  -6.841  24.349  0.00  0.00    +0.293 C 
ATOM     12  C   UNL     1       4.734  -5.712  23.326  0.00  0.00    +0.202 C 
ATOM     13  C   UNL     1       3.535  -4.774  23.423  0.00  0.00    +0.179 C 
ATOM     14  C   UNL     1       2.194  -5.440  23.820  0.00  0.00    +0.177 C 
ATOM     15  C   UNL     1       2.212  -6.921  24.291  0.00  0.00    +0.178 C 
ATOM     16  O   UNL     1       3.450  -7.616  24.052  0.00  0.00    -0.340 OA
BRANCH  14  17
ATOM     17  O   UNL     1       1.355  -5.361  22.643  0.00  0.00    -0.386 OA
ATOM     18  H   UNL     1       1.024  -4.445  22.583  0.00  0.00    +0.210 HD
ENDBRANCH  14  17
BRANCH  13  19
ATOM     19  O   UNL     1       3.886  -3.731  24.344  0.00  0.00    -0.386 OA
ATOM     20  H   UNL     1       3.295  -3.826  25.117  0.00  0.00    +0.210 HD
ENDBRANCH  13  19
BRANCH  12  21
ATOM     21  O   UNL     1       4.841  -6.255  22.005  0.00  0.00    -0.384 OA
ATOM     22  H   UNL     1       3.946  -6.317  21.625  0.00  0.00    +0.210 HD
ENDBRANCH  12  21
BRANCH  15  23
ATOM     23  C   UNL     1       1.743  -7.116  25.755  0.00  0.00    +0.190 C 
BRANCH  23  24
ATOM     24  O   UNL     1       2.257  -8.355  26.262  0.00  0.00    -0.392 OA
ATOM     25  H   UNL     1       1.479  -8.905  26.468  0.00  0.00    +0.210 HD
ENDBRANCH  23  24
ENDBRANCH  15  23
ENDBRANCH  10  11
ENDBRANCH   6  10
ENDBRANCH   5   6
ENDBRANCH   1   5
BRANCH   1  26
ATOM     26  O   UNL     1       7.819  -4.923  24.890  0.00  0.00    -0.284 OA
BRANCH  26  27
ATOM     27  C   UNL     1       8.083  -4.156  23.727  0.00  0.00    +0.206 C 
BRANCH  27  31
ATOM     28  C   UNL     1       8.269  -0.572  22.400  0.00  0.00    +0.253 C 
ATOM     29  C   UNL     1       9.722  -0.986  22.633  0.00  0.00    +0.195 C 
ATOM     30  C   UNL     1       9.605  -1.975  23.795  0.00  0.00    +0.178 C 
ATOM     31  C   UNL     1       8.217  -2.591  23.612  0.00  0.00    +0.178 C 
ATOM     32  O   UNL     1       7.547  -1.856  22.551  0.00  0.00    -0.346 OA
BRANCH  28  40
ATOM     33  N   UNL     1       7.580   4.109  26.218  0.00  0.00    -0.341 N 
ATOM     34  H   UNL     1       6.612   3.860  26.386  0.00  0.00    +0.144 HD
ATOM     35  H   UNL     1       7.832   5.091  26.269  0.00  0.00    +0.144 HD
ATOM     36  C   UNL     1       8.147   3.461  25.143  0.00  0.00    +0.147 A 
ATOM     37  C   UNL     1       7.667   2.248  24.607  0.00  0.00    +0.147 A 
ATOM     38  N   UNL     1       6.577   1.466  24.912  0.00  0.00    -0.231 NA
ATOM     39  C   UNL     1       6.667   0.422  24.110  0.00  0.00    +0.203 A 
ATOM     40  N   UNL     1       7.788   0.465  23.319  0.00  0.00    -0.286 N 
ATOM     41  C   UNL     1       8.391   1.675  23.572  0.00  0.00    +0.167 A 
ATOM     42  N   UNL     1       9.492   2.197  22.988  0.00  0.00    -0.216 NA
ATOM     43  C   UNL     1       9.835   3.379  23.545  0.00  0.00    +0.225 A 
ATOM     44  N   UNL     1       9.245   4.022  24.573  0.00  0.00    -0.219 NA
ENDBRANCH  28  40
BRANCH  30  45
ATOM     45  O   UNL     1       9.600  -1.263  25.046  0.00  0.00    -0.386 OA
ATOM     46  H   UNL     1       9.654  -1.906  25.776  0.00  0.00    +0.210 HD
ENDBRANCH  30  45
BRANCH  29  47
ATOM     47  O   UNL     1      10.241  -1.628  21.461  0.00  0.00    -0.385 OA
ATOM     48  H   UNL     1       9.482  -1.896  20.908  0.00  0.00    +0.210 HD
ENDBRANCH  29  47
ENDBRANCH  27  31
ENDBRANCH  26  27
ENDBRANCH   1  26
TORSDOF 17
ENDMDL
MODEL 3
REMARK VINA RESULT:      -7.4      2.993      4.036
REMARK  Name = 
REMARK  17 active torsions:
REMARK  status: ('A' for Active; 'I' for Inactive)
REMARK    1  A    between atoms: N_10  and  C_11
REMARK    2  A    between atoms: C_14  and  C_16
REMARK    3  A    between atoms: C_16  and  O_17
REMARK    4  A    between atoms: O_17  and  P_18
REMARK    5  A    between atoms: P_18  and  O_19
REMARK    6  A    between atoms: P_18  and  O_21
REMARK    7  A    between atoms: O_21  and  P_22
REMARK    8  A    between atoms: P_22  and  O_23
REMARK    9  A    between atoms: P_22  and  O_25
REMARK   10  A    between atoms: O_25  and  C_26
REMARK   11  A    between atoms: C_29  and  C_31
REMARK   12  A    between atoms: C_31  and  O_32
REMARK   13  A    between atoms: C_33  and  O_35
REMARK   14  A    between atoms: C_36  and  O_38
REMARK   15  A    between atoms: C_39  and  O_41
REMARK   16  A    between atoms: C_42  and  O_44
REMARK   17  A    between atoms: C_45  and  O_47
REMARK                            x       y       z     vdW  Elec       q    Type
REMARK                         _______ _______ _______ _____ _____    ______ ____
ROOT
ATOM      1  P   UNL     1       9.248  -4.549  25.072  0.00  0.00    +0.483 P 
ATOM      2  O   UNL     1      10.566  -5.242  25.447  0.00  0.00    -0.227 OA
ENDROOT
BRANCH   1   3
ATOM      3  O   UNL     1       8.436  -5.699  26.077  0.00  0.00    -0.302 OA
ATOM      4  H   UNL     1       7.784  -5.153  26.562  0.00  0.00    +0.222 HD
ENDBRANCH   1   3
BRANCH   1   5
ATOM      5  O   UNL     1      10.062  -3.399  24.068  0.00  0.00    -0.186 OA
BRANCH   5   6
ATOM      6  P   UNL     1       9.118  -1.954  23.962  0.00  0.00    +0.486 P 
ATOM      7  O   UNL     1      10.134  -1.173  24.796  0.00  0.00    -0.227 OA
BRANCH   6   8
ATOM      8  O   UNL     1       8.035  -2.583  25.008  0.00  0.00    -0.302 OA
ATOM      9  H   UNL     1       8.044  -2.193  25.900  0.00  0.00    +0.222 HD
ENDBRANCH   6   8
BRANCH   6  10
ATOM     10  O   UNL     1       8.174  -0.508  23.858  0.00  0.00    -0.254 OA
BRANCH  10  11
ATOM     11  C   UNL     1       8.108   0.230  22.674  0.00  0.00    +0.293 C 
ATOM     12  C   UNL     1       9.290   1.172  22.451  0.00  0.00    +0.202 C 
ATOM     13  C   UNL     1       9.410   2.166  23.601  0.00  0.00    +0.179 C 
ATOM     14  C   UNL     1       8.074   2.605  24.249  0.00  0.00    +0.177 C 
ATOM     15  C   UNL     1       6.773   1.858  23.845  0.00  0.00    +0.178 C 
ATOM     16  O   UNL     1       6.900   1.003  22.694  0.00  0.00    -0.340 OA
BRANCH  14  17
ATOM     17  O   UNL     1       7.910   4.000  23.901  0.00  0.00    -0.386 OA
ATOM     18  H   UNL     1       7.254   4.045  23.179  0.00  0.00    +0.210 HD
ENDBRANCH  14  17
BRANCH  13  19
ATOM     19  O   UNL     1      10.290   1.585  24.574  0.00  0.00    -0.386 OA
ATOM     20  H   UNL     1      10.994   1.122  24.077  0.00  0.00    +0.210 HD
ENDBRANCH  13  19
BRANCH  12  21
ATOM     21  O   UNL     1       9.140   1.862  21.204  0.00  0.00    -0.384 OA
ATOM     22  H   UNL     1       9.991   1.831  20.732  0.00  0.00    +0.210 HD
ENDBRANCH  12  21
BRANCH  15  23
ATOM     23  C   UNL     1       6.093   1.107  25.018  0.00  0.00    +0.190 C 
BRANCH  23  24
ATOM     24  O   UNL     1       5.325   0.012  24.505  0.00  0.00    -0.392 OA
ATOM     25  H   UNL     1       5.751  -0.797  24.841  0.00  0.00    +0.210 HD
ENDBRANCH  23  24
ENDBRANCH  15  23
ENDBRANCH  10  11
ENDBRANCH   6  10
ENDBRANCH   5   6
ENDBRANCH   1   5
BRANCH   1  26
ATOM     26  O   UNL     1       8.653  -5.453  23.825  0.00  0.00    -0.284 OA
BRANCH  26  27
ATOM     27  C   UNL     1       7.383  -5.510  23.195  0.00  0.00    +0.206 C 
BRANCH  27  31
ATOM     28  C   UNL     1       4.238  -5.651  25.370  0.00  0.00    +0.253 C 
ATOM     29  C   UNL     1       3.844  -6.326  24.055  0.00  0.00    +0.195 C 
ATOM     30  C   UNL     1       4.729  -5.609  23.033  0.00  0.00    +0.178 C 
ATOM     31  C   UNL     1       5.974  -5.222  23.835  0.00  0.00    +0.178 C 
ATOM     32  O   UNL     1       5.707  -5.526  25.232  0.00  0.00    -0.346 OA
BRANCH  28  40
ATOM     33  N   UNL     1       2.396  -0.203  27.343  0.00  0.00    -0.341 N 
ATOM     34  H   UNL     1       1.609  -0.211  26.703  0.00  0.00    +0.144 HD
ATOM     35  H   UNL     1       2.803   0.695  27.581  0.00  0.00    +0.144 HD
ATOM     36  C   UNL     1       3.340  -1.171  27.082  0.00  0.00    +0.147 A 
ATOM     37  C   UNL     1       3.082  -2.353  26.355  0.00  0.00    +0.147 A 
ATOM     38  N   UNL     1       1.963  -2.815  25.703  0.00  0.00    -0.231 NA
ATOM     39  C   UNL     1       2.299  -4.006  25.245  0.00  0.00    +0.203 A 
ATOM     40  N   UNL     1       3.575  -4.363  25.602  0.00  0.00    -0.286 N 
ATOM     41  C   UNL     1       4.115  -3.272  26.242  0.00  0.00    +0.167 A 
ATOM     42  N   UNL     1       5.370  -3.121  26.720  0.00  0.00    -0.216 NA
ATOM     43  C   UNL     1       5.519  -1.938  27.356  0.00  0.00    +0.225 A 
ATOM     44  N   UNL     1       4.594  -0.980  27.568  0.00  0.00    -0.219 NA
ENDBRANCH  28  40
BRANCH  30  45
ATOM     45  O   UNL     1       4.096  -4.390  22.605  0.00  0.00    -0.386 OA
ATOM     46  H   UNL     1       4.500  -4.100  21.768  0.00  0.00    +0.210 HD
ENDBRANCH  30  45
BRANCH  29  47
ATOM     47  O   UNL     1       4.153  -7.724  24.112  0.00  0.00    -0.385 OA
ATOM     48  H   UNL     1       4.555  -7.975  23.256  0.00  0.00    +0.210 HD
ENDBRANCH  29  47
ENDBRANCH  27  31
ENDBRANCH  26  27
ENDBRANCH   1  26
TORSDOF 17
ENDMDL
MODEL 4
REMARK VINA RESULT:      -7.4      1.514      2.670
REMARK  Name = 
REMARK  17 active torsions:
REMARK  status: ('A' for Active; 'I' for Inactive)
REMARK    1  A    between atoms: N_10  and  C_11
REMARK    2  A    between atoms: C_14  and  C_16
REMARK    3  A    between atoms: C_16  and  O_17
REMARK    4  A    between atoms: O_17  and  P_18
REMARK    5  A    between atoms: P_18  and  O_19
REMARK    6  A    between atoms: P_18  and  O_21
REMARK    7  A    between atoms: O_21  and  P_22
REMARK    8  A    between atoms: P_22  and  O_23
REMARK    9  A    between atoms: P_22  and  O_25
REMARK   10  A    between atoms: O_25  and  C_26
REMARK   11  A    between atoms: C_29  and  C_31
REMARK   12  A    between atoms: C_31  and  O_32
REMARK   13  A    between atoms: C_33  and  O_35
REMARK   14  A    between atoms: C_36  and  O_38
REMARK   15  A    between atoms: C_39  and  O_41
REMARK   16  A    between atoms: C_42  and  O_44
REMARK   17  A    between atoms: C_45  and  O_47
REMARK                            x       y       z     vdW  Elec       q    Type
REMARK                         _______ _______ _______ _____ _____    ______ ____
ROOT
ATOM      1  P   UNL     1       9.966  -1.129  22.247  0.00  0.00    +0.483 P 
ATOM      2  O   UNL     1       8.900  -2.120  21.760  0.00  0.00    -0.227 OA
ENDROOT
BRANCH   1   3
ATOM      3  O   UNL     1      10.587  -2.394  23.250  0.00  0.00    -0.302 OA
ATOM      4  H   UNL     1       9.942  -3.119  23.123  0.00  0.00    +0.222 HD
ENDBRANCH   1   3
BRANCH   1   5
ATOM      5  O   UNL     1       9.344   0.136  21.245  0.00  0.00    -0.186 OA
BRANCH   5   6
ATOM      6  P   UNL     1       9.111   1.564  22.194  0.00  0.00    +0.486 P 
ATOM      7  O   UNL     1       7.895   1.975  21.362  0.00  0.00    -0.227 OA
BRANCH   6   8
ATOM      8  O   UNL     1      10.415   2.246  21.490  0.00  0.00    -0.302 OA
ATOM      9  H   UNL     1      10.340   2.396  20.531  0.00  0.00    +0.222 HD
ENDBRANCH   6   8
BRANCH   6  10
ATOM     10  O   UNL     1       8.878   2.992  23.141  0.00  0.00    -0.254 OA
BRANCH  10  11
ATOM     11  C   UNL     1       8.845   2.938  24.537  0.00  0.00    +0.293 C 
ATOM     12  C   UNL     1       7.608   2.252  25.113  0.00  0.00    +0.202 C 
ATOM     13  C   UNL     1       6.338   2.962  24.655  0.00  0.00    +0.179 C 
ATOM     14  C   UNL     1       6.459   4.494  24.463  0.00  0.00    +0.177 C 
ATOM     15  C   UNL     1       7.870   5.141  24.530  0.00  0.00    +0.178 C 
ATOM     16  O   UNL     1       8.905   4.280  25.039  0.00  0.00    -0.340 OA
BRANCH  14  17
ATOM     17  O   UNL     1       5.651   5.085  25.509  0.00  0.00    -0.386 OA
ATOM     18  H   UNL     1       5.173   4.359  25.953  0.00  0.00    +0.210 HD
ENDBRANCH  14  17
BRANCH  13  19
ATOM     19  O   UNL     1       5.906   2.321  23.446  0.00  0.00    -0.386 OA
ATOM     20  H   UNL     1       6.382   2.757  22.711  0.00  0.00    +0.210 HD
ENDBRANCH  13  19
BRANCH  12  21
ATOM     21  O   UNL     1       7.681   2.227  26.544  0.00  0.00    -0.384 OA
ATOM     22  H   UNL     1       6.855   1.842  26.887  0.00  0.00    +0.210 HD
ENDBRANCH  12  21
BRANCH  15  23
ATOM     23  C   UNL     1       8.313   5.814  23.207  0.00  0.00    +0.190 C 
BRANCH  23  24
ATOM     24  O   UNL     1       7.665   5.171  22.101  0.00  0.00    -0.392 OA
ATOM     25  H   UNL     1       8.206   5.375  21.317  0.00  0.00    +0.210 HD
ENDBRANCH  23  24
ENDBRANCH  15  23
ENDBRANCH  10  11
ENDBRANCH   6  10
ENDBRANCH   5   6
ENDBRANCH   1   5
BRANCH   1  26
ATOM     26  O   UNL     1       9.349  -0.529  23.657  0.00  0.00    -0.284 OA
BRANCH  26  27
ATOM     27  C   UNL     1       8.973  -1.137  24.882  0.00  0.00    +0.206 C 
BRANCH  27  31
ATOM     28  C   UNL     1       7.365  -4.587  24.487  0.00  0.00    +0.253 C 
ATOM     29  C   UNL     1       6.328  -3.599  23.950  0.00  0.00    +0.195 C 
ATOM     30  C   UNL     1       6.604  -2.342  24.777  0.00  0.00    +0.178 C 
ATOM     31  C   UNL     1       8.099  -2.430  25.089  0.00  0.00    +0.178 C 
ATOM     32  O   UNL     1       8.565  -3.732  24.638  0.00  0.00    -0.346 OA
BRANCH  28  40
ATOM     33  N   UNL     1       4.479  -7.147  29.186  0.00  0.00    -0.341 N 
ATOM     34  H   UNL     1       5.346  -7.228  29.705  0.00  0.00    +0.144 HD
ATOM     35  H   UNL     1       3.764  -7.849  29.346  0.00  0.00    +0.144 HD
ATOM     36  C   UNL     1       4.650  -6.846  27.853  0.00  0.00    +0.147 A 
ATOM     37  C   UNL     1       5.806  -6.236  27.321  0.00  0.00    +0.147 A 
ATOM     38  N   UNL     1       7.002  -5.862  27.888  0.00  0.00    -0.231 NA
ATOM     39  C   UNL     1       7.683  -5.295  26.911  0.00  0.00    +0.203 A 
ATOM     40  N   UNL     1       6.973  -5.244  25.738  0.00  0.00    -0.286 N 
ATOM     41  C   UNL     1       5.798  -5.922  25.970  0.00  0.00    +0.167 A 
ATOM     42  N   UNL     1       4.804  -6.192  25.096  0.00  0.00    -0.216 NA
ATOM     43  C   UNL     1       3.770  -6.816  25.700  0.00  0.00    +0.225 A 
ATOM     44  N   UNL     1       3.634  -7.143  27.002  0.00  0.00    -0.219 NA
ENDBRANCH  28  40
BRANCH  30  45
ATOM     45  O   UNL     1       5.897  -2.414  26.030  0.00  0.00    -0.386 OA
ATOM     46  H   UNL     1       5.201  -1.733  26.040  0.00  0.00    +0.210 HD
ENDBRANCH  30  45
BRANCH  29  47
ATOM     47  O   UNL     1       6.558  -3.358  22.556  0.00  0.00    -0.385 OA
ATOM     48  H   UNL     1       7.524  -3.373  22.408  0.00  0.00    +0.210 HD
ENDBRANCH  29  47
ENDBRANCH  27  31
ENDBRANCH  26  27
ENDBRANCH   1  26
TORSDOF 17
ENDMDL
MODEL 5
REMARK VINA RESULT:      -7.4      4.276      8.820
REMARK  Name = 
REMARK  17 active torsions:
REMARK  status: ('A' for Active; 'I' for Inactive)
REMARK    1  A    between atoms: N_10  and  C_11
REMARK    2  A    between atoms: C_14  and  C_16
REMARK    3  A    between atoms: C_16  and  O_17
REMARK    4  A    between atoms: O_17  and  P_18
REMARK    5  A    between atoms: P_18  and  O_19
REMARK    6  A    between atoms: P_18  and  O_21
REMARK    7  A    between atoms: O_21  and  P_22
REMARK    8  A    between atoms: P_22  and  O_23
REMARK    9  A    between atoms: P_22  and  O_25
REMARK   10  A    between atoms: O_25  and  C_26
REMARK   11  A    between atoms: C_29  and  C_31
REMARK   12  A    between atoms: C_31  and  O_32
REMARK   13  A    between atoms: C_33  and  O_35
REMARK   14  A    between atoms: C_36  and  O_38
REMARK   15  A    between atoms: C_39  and  O_41
REMARK   16  A    between atoms: C_42  and  O_44
REMARK   17  A    between atoms: C_45  and  O_47
REMARK                            x       y       z     vdW  Elec       q    Type
REMARK                         _______ _______ _______ _____ _____    ______ ____
ROOT
ATOM      1  P   UNL     1       8.816  -5.277  26.333  0.00  0.00    +0.483 P 
ATOM      2  O   UNL     1       9.416  -3.924  26.739  0.00  0.00    -0.227 OA
ENDROOT
BRANCH   1   3
ATOM      3  O   UNL     1      10.201  -5.512  25.323  0.00  0.00    -0.302 OA
ATOM      4  H   UNL     1      10.293  -6.485  25.289  0.00  0.00    +0.222 HD
ENDBRANCH   1   3
BRANCH   1   5
ATOM      5  O   UNL     1       7.432  -5.042  27.343  0.00  0.00    -0.186 OA
BRANCH   5   6
ATOM      6  P   UNL     1       6.031  -5.693  26.565  0.00  0.00    +0.486 P 
ATOM      7  O   UNL     1       5.179  -4.499  26.995  0.00  0.00    -0.227 OA
BRANCH   6   8
ATOM      8  O   UNL     1       5.897  -6.815  27.741  0.00  0.00    -0.302 OA
ATOM      9  H   UNL     1       6.727  -7.047  28.192  0.00  0.00    +0.222 HD
ENDBRANCH   6   8
BRANCH   6  10
ATOM     10  O   UNL     1       4.629  -6.343  25.787  0.00  0.00    -0.254 OA
BRANCH  10  11
ATOM     11  C   UNL     1       4.693  -6.856  24.489  0.00  0.00    +0.293 C 
ATOM     12  C   UNL     1       4.865  -5.797  23.401  0.00  0.00    +0.202 C 
ATOM     13  C   UNL     1       3.715  -4.795  23.439  0.00  0.00    +0.179 C 
ATOM     14  C   UNL     1       2.343  -5.367  23.871  0.00  0.00    +0.177 C 
ATOM     15  C   UNL     1       2.285  -6.816  24.429  0.00  0.00    +0.178 C 
ATOM     16  O   UNL     1       3.486  -7.586  24.235  0.00  0.00    -0.340 OA
BRANCH  14  17
ATOM     17  O   UNL     1       1.508  -5.316  22.689  0.00  0.00    -0.386 OA
ATOM     18  H   UNL     1       0.902  -4.558  22.794  0.00  0.00    +0.210 HD
ENDBRANCH  14  17
BRANCH  13  19
ATOM     19  O   UNL     1       4.119  -3.718  24.297  0.00  0.00    -0.386 OA
ATOM     20  H   UNL     1       3.443  -3.649  25.000  0.00  0.00    +0.210 HD
ENDBRANCH  13  19
BRANCH  12  21
ATOM     21  O   UNL     1       4.943  -6.422  22.114  0.00  0.00    -0.384 OA
ATOM     22  H   UNL     1       4.495  -7.285  22.164  0.00  0.00    +0.210 HD
ENDBRANCH  12  21
BRANCH  15  23
ATOM     23  C   UNL     1       1.808  -6.901  25.901  0.00  0.00    +0.190 C 
BRANCH  23  24
ATOM     24  O   UNL     1       2.131  -5.681  26.581  0.00  0.00    -0.392 OA
ATOM     25  H   UNL     1       1.406  -5.525  27.214  0.00  0.00    +0.210 HD
ENDBRANCH  23  24
ENDBRANCH  15  23
ENDBRANCH  10  11
ENDBRANCH   6  10
ENDBRANCH   5   6
ENDBRANCH   1   5
BRANCH   1  26
ATOM     26  O   UNL     1       8.030  -4.966  24.915  0.00  0.00    -0.284 OA
BRANCH  26  27
ATOM     27  C   UNL     1       8.270  -4.049  23.860  0.00  0.00    +0.206 C 
BRANCH  27  31
ATOM     28  C   UNL     1       7.628  -0.405  24.839  0.00  0.00    +0.253 C 
ATOM     29  C   UNL     1       6.781  -0.637  23.587  0.00  0.00    +0.195 C 
ATOM     30  C   UNL     1       7.587  -1.693  22.828  0.00  0.00    +0.178 C 
ATOM     31  C   UNL     1       8.297  -2.476  23.935  0.00  0.00    +0.178 C 
ATOM     32  O   UNL     1       8.055  -1.779  25.189  0.00  0.00    -0.346 OA
BRANCH  28  40
ATOM     33  N   UNL     1      11.412   4.079  23.246  0.00  0.00    -0.341 N 
ATOM     34  H   UNL     1      12.196   3.603  23.679  0.00  0.00    +0.144 HD
ATOM     35  H   UNL     1      11.423   5.094  23.233  0.00  0.00    +0.144 HD
ATOM     36  C   UNL     1      10.183   3.558  23.586  0.00  0.00    +0.147 A 
ATOM     37  C   UNL     1       9.985   2.246  24.067  0.00  0.00    +0.147 A 
ATOM     38  N   UNL     1      10.859   1.229  24.372  0.00  0.00    -0.231 NA
ATOM     39  C   UNL     1      10.094   0.215  24.730  0.00  0.00    +0.203 A 
ATOM     40  N   UNL     1       8.757   0.509  24.636  0.00  0.00    -0.286 N 
ATOM     41  C   UNL     1       8.679   1.838  24.291  0.00  0.00    +0.167 A 
ATOM     42  N   UNL     1       7.572   2.598  24.143  0.00  0.00    -0.216 NA
ATOM     43  C   UNL     1       7.879   3.845  23.725  0.00  0.00    +0.225 A 
ATOM     44  N   UNL     1       9.094   4.355  23.435  0.00  0.00    -0.219 NA
ENDBRANCH  28  40
BRANCH  30  45
ATOM     45  O   UNL     1       8.603  -1.056  22.031  0.00  0.00    -0.386 OA
ATOM     46  H   UNL     1       8.190  -0.686  21.231  0.00  0.00    +0.210 HD
ENDBRANCH  30  45
BRANCH  29  47
ATOM     47  O   UNL     1       5.491  -1.142  23.956  0.00  0.00    -0.385 OA
ATOM     48  H   UNL     1       5.465  -2.090  23.720  0.00  0.00    +0.210 HD
ENDBRANCH  29  47
ENDBRANCH  27  31
ENDBRANCH  26  27
ENDBRANCH   1  26
TORSDOF 17
ENDMDL
MODEL 6
REMARK VINA RESULT:      -7.3      4.375      8.964
REMARK  Name = 
REMARK  17 active torsions:
REMARK  status: ('A' for Active; 'I' for Inactive)
REMARK    1  A    between atoms: N_10  and  C_11
REMARK    2  A    between atoms: C_14  and  C_16
REMARK    3  A    between atoms: C_16  and  O_17
REMARK    4  A    between atoms: O_17  and  P_18
REMARK    5  A    between atoms: P_18  and  O_19
REMARK    6  A    between atoms: P_18  and  O_21
REMARK    7  A    between atoms: O_21  and  P_22
REMARK    8  A    between atoms: P_22  and  O_23
REMARK    9  A    between atoms: P_22  and  O_25
REMARK   10  A    between atoms: O_25  and  C_26
REMARK   11  A    between atoms: C_29  and  C_31
REMARK   12  A    between atoms: C_31  and  O_32
REMARK   13  A    between atoms: C_33  and  O_35
REMARK   14  A    between atoms: C_36  and  O_38
REMARK   15  A    between atoms: C_39  and  O_41
REMARK   16  A    between atoms: C_42  and  O_44
REMARK   17  A    between atoms: C_45  and  O_47
REMARK                            x       y       z     vdW  Elec       q    Type
REMARK                         _______ _______ _______ _____ _____    ______ ____
ROOT
ATOM      1  P   UNL     1       8.803  -5.146  26.138  0.00  0.00    +0.483 P 
ATOM      2  O   UNL     1       9.371  -3.853  26.739  0.00  0.00    -0.227 OA
ENDROOT
BRANCH   1   3
ATOM      3  O   UNL     1      10.125  -5.129  25.023  0.00  0.00    -0.302 OA
ATOM      4  H   UNL     1      10.122  -4.210  24.684  0.00  0.00    +0.222 HD
ENDBRANCH   1   3
BRANCH   1   5
ATOM      5  O   UNL     1       7.481  -5.162  27.253  0.00  0.00    -0.186 OA
BRANCH   5   6
ATOM      6  P   UNL     1       6.060  -5.744  26.456  0.00  0.00    +0.486 P 
ATOM      7  O   UNL     1       5.279  -4.483  26.826  0.00  0.00    -0.227 OA
BRANCH   6   8
ATOM      8  O   UNL     1       5.820  -6.816  27.663  0.00  0.00    -0.302 OA
ATOM      9  H   UNL     1       5.902  -7.752  27.410  0.00  0.00    +0.222 HD
ENDBRANCH   6   8
BRANCH   6  10
ATOM     10  O   UNL     1       4.639  -6.325  25.661  0.00  0.00    -0.254 OA
BRANCH  10  11
ATOM     11  C   UNL     1       4.686  -6.801  24.347  0.00  0.00    +0.293 C 
ATOM     12  C   UNL     1       4.815  -5.710  23.286  0.00  0.00    +0.202 C 
ATOM     13  C   UNL     1       3.646  -4.733  23.375  0.00  0.00    +0.179 C 
ATOM     14  C   UNL     1       2.294  -5.345  23.817  0.00  0.00    +0.177 C 
ATOM     15  C   UNL     1       2.277  -6.809  24.337  0.00  0.00    +0.178 C 
ATOM     16  O   UNL     1       3.489  -7.549  24.097  0.00  0.00    -0.340 OA
BRANCH  14  17
ATOM     17  O   UNL     1       1.435  -5.278  22.655  0.00  0.00    -0.386 OA
ATOM     18  H   UNL     1       1.324  -4.335  22.428  0.00  0.00    +0.210 HD
ENDBRANCH  14  17
BRANCH  13  19
ATOM     19  O   UNL     1       4.046  -3.672  24.254  0.00  0.00    -0.386 OA
ATOM     20  H   UNL     1       4.000  -2.843  23.736  0.00  0.00    +0.210 HD
ENDBRANCH  13  19
BRANCH  12  21
ATOM     21  O   UNL     1       4.879  -6.298  21.981  0.00  0.00    -0.384 OA
ATOM     22  H   UNL     1       5.207  -7.210  22.072  0.00  0.00    +0.210 HD
ENDBRANCH  12  21
BRANCH  15  23
ATOM     23  C   UNL     1       1.831  -6.943  25.815  0.00  0.00    +0.190 C 
BRANCH  23  24
ATOM     24  O   UNL     1       2.317  -8.180  26.351  0.00  0.00    -0.392 OA
ATOM     25  H   UNL     1       3.093  -7.952  26.895  0.00  0.00    +0.210 HD
ENDBRANCH  23  24
ENDBRANCH  15  23
ENDBRANCH  10  11
ENDBRANCH   6  10
ENDBRANCH   5   6
ENDBRANCH   1   5
BRANCH   1  26
ATOM     26  O   UNL     1       7.911  -4.637  24.845  0.00  0.00    -0.284 OA
BRANCH  26  27
ATOM     27  C   UNL     1       8.155  -3.691  23.817  0.00  0.00    +0.206 C 
BRANCH  27  31
ATOM     28  C   UNL     1       9.386  -0.177  24.700  0.00  0.00    +0.253 C 
ATOM     29  C   UNL     1       8.276  -0.475  25.708  0.00  0.00    +0.195 C 
ATOM     30  C   UNL     1       7.351  -1.407  24.922  0.00  0.00    +0.178 C 
ATOM     31  C   UNL     1       8.295  -2.129  23.956  0.00  0.00    +0.178 C 
ATOM     32  O   UNL     1       9.601  -1.499  24.068  0.00  0.00    -0.346 OA
BRANCH  28  40
ATOM     33  N   UNL     1       7.258   4.673  21.714  0.00  0.00    -0.341 N 
ATOM     34  H   UNL     1       7.660   4.343  20.844  0.00  0.00    +0.144 HD
ATOM     35  H   UNL     1       7.183   5.675  21.851  0.00  0.00    +0.144 HD
ATOM     36  C   UNL     1       7.716   4.009  22.831  0.00  0.00    +0.147 A 
ATOM     37  C   UNL     1       8.288   2.719  22.805  0.00  0.00    +0.147 A 
ATOM     38  N   UNL     1       8.590   1.858  21.776  0.00  0.00    -0.231 NA
ATOM     39  C   UNL     1       9.062   0.775  22.361  0.00  0.00    +0.203 A 
ATOM     40  N   UNL     1       9.047   0.870  23.730  0.00  0.00    -0.286 N 
ATOM     41  C   UNL     1       8.630   2.149  24.022  0.00  0.00    +0.167 A 
ATOM     42  N   UNL     1       8.517   2.733  25.235  0.00  0.00    -0.216 NA
ATOM     43  C   UNL     1       8.004   3.979  25.138  0.00  0.00    +0.225 A 
ATOM     44  N   UNL     1       7.596   4.633  24.031  0.00  0.00    -0.219 NA
ENDBRANCH  28  40
BRANCH  30  45
ATOM     45  O   UNL     1       6.433  -0.633  24.129  0.00  0.00    -0.386 OA
ATOM     46  H   UNL     1       6.542   0.309  24.349  0.00  0.00    +0.210 HD
ENDBRANCH  30  45
BRANCH  29  47
ATOM     47  O   UNL     1       8.822  -1.140  26.855  0.00  0.00    -0.385 OA
ATOM     48  H   UNL     1       8.074  -1.442  27.407  0.00  0.00    +0.210 HD
ENDBRANCH  29  47
ENDBRANCH  27  31
ENDBRANCH  26  27
ENDBRANCH   1  26
TORSDOF 17
ENDMDL
MODEL 7
REMARK VINA RESULT:      -7.3      1.724      2.885
REMARK  Name = 
REMARK  17 active torsions:
REMARK  status: ('A' for Active; 'I' for Inactive)
REMARK    1  A    between atoms: N_10  and  C_11
REMARK    2  A    between atoms: C_14  and  C_16
REMARK    3  A    between atoms: C_16  and  O_17
REMARK    4  A    between atoms: O_17  and  P_18
REMARK    5  A    between atoms: P_18  and  O_19
REMARK    6  A    between atoms: P_18  and  O_21
REMARK    7  A    between atoms: O_21  and  P_22
REMARK    8  A    between atoms: P_22  and  O_23
REMARK    9  A    between atoms: P_22  and  O_25
REMARK   10  A    between atoms: O_25  and  C_26
REMARK   11  A    between atoms: C_29  and  C_31
REMARK   12  A    between atoms: C_31  and  O_32
REMARK   13  A    between atoms: C_33  and  O_35
REMARK   14  A    between atoms: C_36  and  O_38
REMARK   15  A    between atoms: C_39  and  O_41
REMARK   16  A    between atoms: C_42  and  O_44
REMARK   17  A    between atoms: C_45  and  O_47
REMARK                            x       y       z     vdW  Elec       q    Type
REMARK                         _______ _______ _______ _____ _____    ______ ____
ROOT
ATOM      1  P   UNL     1       9.984  -0.326  22.103  0.00  0.00    +0.483 P 
ATOM      2  O   UNL     1       8.571   0.006  22.602  0.00  0.00    -0.227 OA
ENDROOT
BRANCH   1   3
ATOM      3  O   UNL     1       9.250  -1.063  20.721  0.00  0.00    -0.302 OA
ATOM      4  H   UNL     1       8.779  -1.833  21.099  0.00  0.00    +0.222 HD
ENDBRANCH   1   3
BRANCH   1   5
ATOM      5  O   UNL     1      10.717   0.410  23.486  0.00  0.00    -0.186 OA
BRANCH   5   6
ATOM      6  P   UNL     1       9.881   1.874  23.872  0.00  0.00    +0.486 P 
ATOM      7  O   UNL     1      11.192   2.655  23.962  0.00  0.00    -0.227 OA
BRANCH   6   8
ATOM      8  O   UNL     1       9.569   1.304  25.368  0.00  0.00    -0.302 OA
ATOM      9  H   UNL     1       8.635   1.098  25.549  0.00  0.00    +0.222 HD
ENDBRANCH   6   8
BRANCH   6  10
ATOM     10  O   UNL     1       9.046   3.339  24.259  0.00  0.00    -0.254 OA
BRANCH  10  11
ATOM     11  C   UNL     1       7.679   3.339  24.549  0.00  0.00    +0.293 C 
ATOM     12  C   UNL     1       6.796   2.790  23.430  0.00  0.00    +0.202 C 
ATOM     13  C   UNL     1       6.989   3.595  22.149  0.00  0.00    +0.179 C 
ATOM     14  C   UNL     1       7.290   5.102  22.344  0.00  0.00    +0.177 C 
ATOM     15  C   UNL     1       7.586   5.620  23.779  0.00  0.00    +0.178 C 
ATOM     16  O   UNL     1       7.280   4.687  24.832  0.00  0.00    -0.340 OA
BRANCH  14  17
ATOM     17  O   UNL     1       6.122   5.801  21.854  0.00  0.00    -0.386 OA
ATOM     18  H   UNL     1       5.348   5.448  22.332  0.00  0.00    +0.210 HD
ENDBRANCH  14  17
BRANCH  13  19
ATOM     19  O   UNL     1       8.028   2.954  21.397  0.00  0.00    -0.386 OA
ATOM     20  H   UNL     1       7.777   2.012  21.314  0.00  0.00    +0.210 HD
ENDBRANCH  13  19
BRANCH  12  21
ATOM     21  O   UNL     1       5.421   2.810  23.834  0.00  0.00    -0.384 OA
ATOM     22  H   UNL     1       4.898   3.212  23.118  0.00  0.00    +0.210 HD
ENDBRANCH  12  21
BRANCH  15  23
ATOM     23  C   UNL     1       9.011   6.201  23.953  0.00  0.00    +0.190 C 
BRANCH  23  24
ATOM     24  O   UNL     1       9.849   5.745  22.883  0.00  0.00    -0.392 OA
ATOM     25  H   UNL     1       9.293   5.751  22.083  0.00  0.00    +0.210 HD
ENDBRANCH  23  24
ENDBRANCH  15  23
ENDBRANCH  10  11
ENDBRANCH   6  10
ENDBRANCH   5   6
ENDBRANCH   1   5
BRANCH   1  26
ATOM     26  O   UNL     1      10.237  -1.880  22.601  0.00  0.00    -0.284 OA
BRANCH  26  27
ATOM     27  C   UNL     1       9.946  -2.567  23.808  0.00  0.00    +0.206 C 
BRANCH  27  31
ATOM     28  C   UNL     1       6.886  -4.007  25.599  0.00  0.00    +0.253 C 
ATOM     29  C   UNL     1       7.971  -5.076  25.740  0.00  0.00    +0.195 C 
ATOM     30  C   UNL     1       8.804  -4.876  24.472  0.00  0.00    +0.178 C 
ATOM     31  C   UNL     1       8.649  -3.385  24.163  0.00  0.00    +0.178 C 
ATOM     32  O   UNL     1       7.650  -2.851  25.076  0.00  0.00    -0.346 OA
BRANCH  28  40
ATOM     33  N   UNL     1       2.508  -6.863  22.494  0.00  0.00    -0.341 N 
ATOM     34  H   UNL     1       2.306  -6.024  21.961  0.00  0.00    +0.144 HD
ATOM     35  H   UNL     1       1.743  -7.503  22.676  0.00  0.00    +0.144 HD
ATOM     36  C   UNL     1       3.306  -6.648  23.596  0.00  0.00    +0.147 A 
ATOM     37  C   UNL     1       4.163  -5.538  23.748  0.00  0.00    +0.147 A 
ATOM     38  N   UNL     1       4.389  -4.426  22.970  0.00  0.00    -0.231 NA
ATOM     39  C   UNL     1       5.338  -3.756  23.594  0.00  0.00    +0.203 A 
ATOM     40  N   UNL     1       5.773  -4.397  24.727  0.00  0.00    -0.286 N 
ATOM     41  C   UNL     1       4.966  -5.501  24.879  0.00  0.00    +0.167 A 
ATOM     42  N   UNL     1       4.968  -6.405  25.882  0.00  0.00    -0.216 NA
ATOM     43  C   UNL     1       4.081  -7.398  25.657  0.00  0.00    +0.225 A 
ATOM     44  N   UNL     1       3.274  -7.573  24.590  0.00  0.00    -0.219 NA
ENDBRANCH  28  40
BRANCH  30  45
ATOM     45  O   UNL     1       8.217  -5.606  23.379  0.00  0.00    -0.386 OA
ATOM     46  H   UNL     1       8.020  -4.986  22.655  0.00  0.00    +0.210 HD
ENDBRANCH  30  45
BRANCH  29  47
ATOM     47  O   UNL     1       8.754  -4.826  26.915  0.00  0.00    -0.385 OA
ATOM     48  H   UNL     1       9.693  -4.802  26.646  0.00  0.00    +0.210 HD
ENDBRANCH  29  47
ENDBRANCH  27  31
ENDBRANCH  26  27
ENDBRANCH   1  26
TORSDOF 17
ENDMDL
MODEL 8
REMARK VINA RESULT:      -7.3      1.237      2.214
REMARK  Name = 
REMARK  17 active torsions:
REMARK  status: ('A' for Active; 'I' for Inactive)
REMARK    1  A    between atoms: N_10  and  C_11
REMARK    2  A    between atoms: C_14  and  C_16
REMARK    3  A    between atoms: C_16  and  O_17
REMARK    4  A    between atoms: O_17  and  P_18
REMARK    5  A    between atoms: P_18  and  O_19
REMARK    6  A    between atoms: P_18  and  O_21
REMARK    7  A    between atoms: O_21  and  P_22
REMARK    8  A    between atoms: P_22  and  O_23
REMARK    9  A    between atoms: P_22  and  O_25
REMARK   10  A    between atoms: O_25  and  C_26
REMARK   11  A    between atoms: C_29  and  C_31
REMARK   12  A    between atoms: C_31  and  O_32
REMARK   13  A    between atoms: C_33  and  O_35
REMARK   14  A    between atoms: C_36  and  O_38
REMARK   15  A    between atoms: C_39  and  O_41
REMARK   16  A    between atoms: C_42  and  O_44
REMARK   17  A    between atoms: C_45  and  O_47
REMARK                            x       y       z     vdW  Elec       q    Type
REMARK                         _______ _______ _______ _____ _____    ______ ____
ROOT
ATOM      1  P   UNL     1       9.789  -1.298  22.645  0.00  0.00    +0.483 P 
ATOM      2  O   UNL     1       9.448  -0.328  21.505  0.00  0.00    -0.227 OA
ENDROOT
BRANCH   1   3
ATOM      3  O   UNL     1       8.779  -2.465  21.862  0.00  0.00    -0.302 OA
ATOM      4  H   UNL     1       9.216  -3.316  22.070  0.00  0.00    +0.222 HD
ENDBRANCH   1   3
BRANCH   1   5
ATOM      5  O   UNL     1      10.798  -0.131  23.426  0.00  0.00    -0.186 OA
BRANCH   5   6
ATOM      6  P   UNL     1       9.824   1.171  24.017  0.00  0.00    +0.486 P 
ATOM      7  O   UNL     1      10.899   2.199  23.662  0.00  0.00    -0.227 OA
BRANCH   6   8
ATOM      8  O   UNL     1      10.115   0.696  25.550  0.00  0.00    -0.302 OA
ATOM      9  H   UNL     1      10.221  -0.263  25.675  0.00  0.00    +0.222 HD
ENDBRANCH   6   8
BRANCH   6  10
ATOM     10  O   UNL     1       8.851   2.473  24.608  0.00  0.00    -0.254 OA
BRANCH  10  11
ATOM     11  C   UNL     1       7.457   2.435  24.520  0.00  0.00    +0.293 C 
ATOM     12  C   UNL     1       6.922   2.093  23.130  0.00  0.00    +0.202 C 
ATOM     13  C   UNL     1       7.416   3.104  22.100  0.00  0.00    +0.179 C 
ATOM     14  C   UNL     1       7.598   4.552  22.618  0.00  0.00    +0.177 C 
ATOM     15  C   UNL     1       7.484   4.814  24.145  0.00  0.00    +0.178 C 
ATOM     16  O   UNL     1       6.947   3.718  24.907  0.00  0.00    -0.340 OA
BRANCH  14  17
ATOM     17  O   UNL     1       6.575   5.335  21.958  0.00  0.00    -0.386 OA
ATOM     18  H   UNL     1       5.800   4.755  21.831  0.00  0.00    +0.210 HD
ENDBRANCH  14  17
BRANCH  13  19
ATOM     19  O   UNL     1       8.641   2.592  21.556  0.00  0.00    -0.386 OA
ATOM     20  H   UNL     1       8.535   2.582  20.584  0.00  0.00    +0.210 HD
ENDBRANCH  13  19
BRANCH  12  21
ATOM     21  O   UNL     1       5.490   2.055  23.150  0.00  0.00    -0.384 OA
ATOM     22  H   UNL     1       5.210   1.141  23.337  0.00  0.00    +0.210 HD
ENDBRANCH  12  21
BRANCH  15  23
ATOM     23  C   UNL     1       8.790   5.346  24.787  0.00  0.00    +0.190 C 
BRANCH  23  24
ATOM     24  O   UNL     1       9.903   5.035  23.939  0.00  0.00    -0.392 OA
ATOM     25  H   UNL     1      10.251   5.890  23.626  0.00  0.00    +0.210 HD
ENDBRANCH  23  24
ENDBRANCH  15  23
ENDBRANCH  10  11
ENDBRANCH   6  10
ENDBRANCH   5   6
ENDBRANCH   1   5
BRANCH   1  26
ATOM     26  O   UNL     1       8.528  -1.147  23.700  0.00  0.00    -0.284 OA
BRANCH  26  27
ATOM     27  C   UNL     1       7.960  -2.025  24.658  0.00  0.00    +0.206 C 
BRANCH  27  31
ATOM     28  C   UNL     1       5.966  -4.959  23.224  0.00  0.00    +0.253 C 
ATOM     29  C   UNL     1       5.209  -3.707  22.779  0.00  0.00    +0.195 C 
ATOM     30  C   UNL     1       5.503  -2.719  23.910  0.00  0.00    +0.178 C 
ATOM     31  C   UNL     1       6.882  -3.147  24.420  0.00  0.00    +0.178 C 
ATOM     32  O   UNL     1       7.228  -4.393  23.754  0.00  0.00    -0.346 OA
BRANCH  28  40
ATOM     33  N   UNL     1       1.887  -7.899  26.643  0.00  0.00    -0.341 N 
ATOM     34  H   UNL     1       2.610  -8.200  27.288  0.00  0.00    +0.144 HD
ATOM     35  H   UNL     1       1.086  -8.507  26.513  0.00  0.00    +0.144 HD
ATOM     36  C   UNL     1       2.371  -7.384  25.460  0.00  0.00    +0.147 A 
ATOM     37  C   UNL     1       3.671  -6.861  25.298  0.00  0.00    +0.147 A 
ATOM     38  N   UNL     1       4.750  -6.776  26.147  0.00  0.00    -0.231 NA
ATOM     39  C   UNL     1       5.680  -6.143  25.459  0.00  0.00    +0.203 A 
ATOM     40  N   UNL     1       5.248  -5.773  24.211  0.00  0.00    -0.286 N 
ATOM     41  C   UNL     1       3.987  -6.305  24.067  0.00  0.00    +0.167 A 
ATOM     42  N   UNL     1       3.181  -6.261  22.984  0.00  0.00    -0.216 NA
ATOM     43  C   UNL     1       1.982  -6.829  23.235  0.00  0.00    +0.225 A 
ATOM     44  N   UNL     1       1.536  -7.368  24.389  0.00  0.00    -0.219 NA
ENDBRANCH  28  40
BRANCH  30  45
ATOM     45  O   UNL     1       4.567  -2.912  24.986  0.00  0.00    -0.386 OA
ATOM     46  H   UNL     1       4.374  -2.050  25.396  0.00  0.00    +0.210 HD
ENDBRANCH  30  45
BRANCH  29  47
ATOM     47  O   UNL     1       5.735  -3.234  21.533  0.00  0.00    -0.385 OA
ATOM     48  H   UNL     1       5.509  -3.891  20.846  0.00  0.00    +0.210 HD
ENDBRANCH  29  47
ENDBRANCH  27  31
ENDBRANCH  26  27
ENDBRANCH   1  26
TORSDOF 17
ENDMDL
MODEL 9
REMARK VINA RESULT:      -7.1      3.883      8.162
REMARK  Name = 
REMARK  17 active torsions:
REMARK  status: ('A' for Active; 'I' for Inactive)
REMARK    1  A    between atoms: N_10  and  C_11
REMARK    2  A    between atoms: C_14  and  C_16
REMARK    3  A    between atoms: C_16  and  O_17
REMARK    4  A    between atoms: O_17  and  P_18
REMARK    5  A    between atoms: P_18  and  O_19
REMARK    6  A    between atoms: P_18  and  O_21
REMARK    7  A    between atoms: O_21  and  P_22
REMARK    8  A    between atoms: P_22  and  O_23
REMARK    9  A    between atoms: P_22  and  O_25
REMARK   10  A    between atoms: O_25  and  C_26
REMARK   11  A    between atoms: C_29  and  C_31
REMARK   12  A    between atoms: C_31  and  O_32
REMARK   13  A    between atoms: C_33  and  O_35
REMARK   14  A    between atoms: C_36  and  O_38
REMARK   15  A    between atoms: C_39  and  O_41
REMARK   16  A    between atoms: C_42  and  O_44
REMARK   17  A    between atoms: C_45  and  O_47
REMARK                            x       y       z     vdW  Elec       q    Type
REMARK                         _______ _______ _______ _____ _____    ______ ____
ROOT
ATOM      1  P   UNL     1       7.154   1.347  28.456  0.00  0.00    +0.483 P 
ATOM      2  O   UNL     1       5.952   0.830  29.259  0.00  0.00    -0.227 OA
ENDROOT
BRANCH   1   3
ATOM      3  O   UNL     1       7.954   1.627  29.965  0.00  0.00    -0.302 OA
ATOM      4  H   UNL     1       8.514   2.408  29.781  0.00  0.00    +0.222 HD
ENDBRANCH   1   3
BRANCH   1   5
ATOM      5  O   UNL     1       6.353   1.068  26.949  0.00  0.00    -0.186 OA
BRANCH   5   6
ATOM      6  P   UNL     1       6.986  -0.364  26.215  0.00  0.00    +0.486 P 
ATOM      7  O   UNL     1       6.525   0.086  24.828  0.00  0.00    -0.227 OA
BRANCH   6   8
ATOM      8  O   UNL     1       5.766  -1.235  26.857  0.00  0.00    -0.302 OA
ATOM      9  H   UNL     1       5.790  -1.336  27.825  0.00  0.00    +0.222 HD
ENDBRANCH   6   8
BRANCH   6  10
ATOM     10  O   UNL     1       7.619  -1.796  25.479  0.00  0.00    -0.254 OA
BRANCH  10  11
ATOM     11  C   UNL     1       7.523  -3.039  26.112  0.00  0.00    +0.293 C 
ATOM     12  C   UNL     1       8.776  -3.905  25.992  0.00  0.00    +0.202 C 
ATOM     13  C   UNL     1       9.112  -4.164  24.527  0.00  0.00    +0.179 C 
ATOM     14  C   UNL     1       7.899  -4.273  23.571  0.00  0.00    +0.177 C 
ATOM     15  C   UNL     1       6.492  -3.900  24.113  0.00  0.00    +0.178 C 
ATOM     16  O   UNL     1       6.415  -3.749  25.542  0.00  0.00    -0.340 OA
BRANCH  14  17
ATOM     17  O   UNL     1       7.857  -5.656  23.147  0.00  0.00    -0.386 OA
ATOM     18  H   UNL     1       8.779  -5.950  23.020  0.00  0.00    +0.210 HD
ENDBRANCH  14  17
BRANCH  13  19
ATOM     19  O   UNL     1      10.010  -3.127  24.108  0.00  0.00    -0.386 OA
ATOM     20  H   UNL     1       9.478  -2.478  23.606  0.00  0.00    +0.210 HD
ENDBRANCH  13  19
BRANCH  12  21
ATOM     21  O   UNL     1       8.587  -5.141  26.691  0.00  0.00    -0.384 OA
ATOM     22  H   UNL     1       8.159  -4.950  27.544  0.00  0.00    +0.210 HD
ENDBRANCH  12  21
BRANCH  15  23
ATOM     23  C   UNL     1       5.846  -2.688  23.394  0.00  0.00    +0.190 C 
BRANCH  23  24
ATOM     24  O   UNL     1       6.853  -1.962  22.679  0.00  0.00    -0.392 OA
ATOM     25  H   UNL     1       7.008  -2.457  21.854  0.00  0.00    +0.210 HD
ENDBRANCH  23  24
ENDBRANCH  15  23
ENDBRANCH  10  11
ENDBRANCH   6  10
ENDBRANCH   5   6
ENDBRANCH   1   5
BRANCH   1  26
ATOM     26  O   UNL     1       6.956   2.987  28.438  0.00  0.00    -0.284 OA
BRANCH  26  27
ATOM     27  C   UNL     1       7.078   3.962  27.415  0.00  0.00    +0.206 C 
BRANCH  27  31
ATOM     28  C   UNL     1       8.275   4.249  23.791  0.00  0.00    +0.253 C 
ATOM     29  C   UNL     1       6.873   4.859  23.797  0.00  0.00    +0.195 C 
ATOM     30  C   UNL     1       6.175   4.081  24.915  0.00  0.00    +0.178 C 
ATOM     31  C   UNL     1       7.311   3.723  25.876  0.00  0.00    +0.178 C 
ATOM     32  O   UNL     1       8.561   4.102  25.237  0.00  0.00    -0.346 OA
BRANCH  28  40
ATOM     33  N   UNL     1       9.859  -1.120  21.421  0.00  0.00    -0.341 N 
ATOM     34  H   UNL     1       9.067  -1.101  20.788  0.00  0.00    +0.144 HD
ATOM     35  H   UNL     1      10.186  -2.025  21.743  0.00  0.00    +0.144 HD
ATOM     36  C   UNL     1       9.797  -0.181  22.426  0.00  0.00    +0.147 A 
ATOM     37  C   UNL     1       9.021   0.996  22.361  0.00  0.00    +0.147 A 
ATOM     38  N   UNL     1       8.143   1.478  21.419  0.00  0.00    -0.231 NA
ATOM     39  C   UNL     1       7.756   2.653  21.878  0.00  0.00    +0.203 A 
ATOM     40  N   UNL     1       8.372   2.982  23.059  0.00  0.00    -0.286 N 
ATOM     41  C   UNL     1       9.123   1.887  23.420  0.00  0.00    +0.167 A 
ATOM     42  N   UNL     1       9.857   1.711  24.540  0.00  0.00    -0.216 NA
ATOM     43  C   UNL     1      10.520   0.534  24.517  0.00  0.00    +0.225 A 
ATOM     44  N   UNL     1      10.540  -0.397  23.542  0.00  0.00    -0.219 NA
ENDBRANCH  28  40
BRANCH  30  45
ATOM     45  O   UNL     1       5.643   2.848  24.396  0.00  0.00    -0.386 OA
ATOM     46  H   UNL     1       5.023   3.050  23.673  0.00  0.00    +0.210 HD
ENDBRANCH  30  45
BRANCH  29  47
ATOM     47  O   UNL     1       6.948   6.256  24.113  0.00  0.00    -0.385 OA
ATOM     48  H   UNL     1       6.635   6.370  25.031  0.00  0.00    +0.210 HD
ENDBRANCH  29  47
ENDBRANCH  27  31
ENDBRANCH  26  27
ENDBRANCH   1  26
TORSDOF 17
ENDMDL
