MODEL 1
REMARK VINA RESULT:      -6.8      0.000      0.000
REMARK  Name = 
REMARK  10 active torsions:
REMARK  status: ('A' for Active; 'I' for Inactive)
REMARK    1  A    between atoms: N_10  and  C_11
REMARK    2  A    between atoms: C_14  and  C_16
REMARK    3  A    between atoms: C_16  and  O_17
REMARK    4  A    between atoms: O_17  and  P_18
REMARK    5  A    between atoms: P_18  and  O_19
REMARK    6  A    between atoms: P_18  and  O_21
REMARK    7  A    between atoms: O_21  and  S_22
REMARK    8  A    between atoms: S_22  and  O_23
REMARK    9  A    between atoms: C_26  and  O_28
REMARK   10  A    between atoms: C_29  and  O_31
REMARK                            x       y       z     vdW  Elec       q    Type
REMARK                         _______ _______ _______ _____ _____    ______ ____
ROOT
ATOM      1  C   UNL     1       7.333  -2.971  23.221  0.00  0.00    +0.253 C 
ATOM      2  C   UNL     1       7.940  -4.382  23.265  0.00  0.00    +0.195 C 
ATOM      3  C   UNL     1       8.472  -4.534  24.693  0.00  0.00    +0.178 C 
ATOM      4  C   UNL     1       7.988  -3.280  25.422  0.00  0.00    +0.178 C 
ATOM      5  O   UNL     1       6.936  -2.728  24.604  0.00  0.00    -0.346 OA
ENDROOT
BRANCH   1  13
ATOM      6  N   UNL     1       9.986   2.246  21.592  0.00  0.00    -0.341 N 
ATOM      7  H   UNL     1      10.889   1.793  21.676  0.00  0.00    +0.144 HD
ATOM      8  H   UNL     1       9.916   3.216  21.869  0.00  0.00    +0.144 HD
ATOM      9  C   UNL     1       8.937   1.489  22.088  0.00  0.00    +0.147 A 
ATOM     10  C   UNL     1       8.996   0.091  22.251  0.00  0.00    +0.147 A 
ATOM     11  N   UNL     1      10.000  -0.826  22.026  0.00  0.00    -0.231 NA
ATOM     12  C   UNL     1       9.476  -1.984  22.369  0.00  0.00    +0.203 A 
ATOM     13  N   UNL     1       8.163  -1.867  22.766  0.00  0.00    -0.286 N 
ATOM     14  C   UNL     1       7.864  -0.532  22.754  0.00  0.00    +0.167 A 
ATOM     15  N   UNL     1       6.725   0.067  23.141  0.00  0.00    -0.216 NA
ATOM     16  C   UNL     1       6.785   1.401  22.943  0.00  0.00    +0.225 A 
ATOM     17  N   UNL     1       7.810   2.136  22.459  0.00  0.00    -0.219 NA
ENDBRANCH   1  13
BRANCH   2  18
ATOM     18  O   UNL     1       6.900  -5.364  23.047  0.00  0.00    -0.385 OA
ATOM     19  H   UNL     1       6.666  -5.366  22.102  0.00  0.00    +0.210 HD
ENDBRANCH   2  18
BRANCH   3  20
ATOM     20  O   UNL     1       9.893  -4.604  24.692  0.00  0.00    -0.386 OA
ATOM     21  H   UNL     1      10.231  -3.702  24.550  0.00  0.00    +0.210 HD
ENDBRANCH   3  20
BRANCH   4  22
ATOM     22  C   UNL     1       7.499  -3.552  26.852  0.00  0.00    +0.206 C 
BRANCH  22  23
ATOM     23  O   UNL     1       6.175  -4.082  26.847  0.00  0.00    -0.283 OA
BRANCH  23  24
ATOM     24  P   UNL     1       5.965  -5.564  27.558  0.00  0.00    +0.498 P 
ATOM     25  O   UNL     1       7.355  -6.036  27.988  0.00  0.00    -0.225 OA
BRANCH  24  26
ATOM     26  O   UNL     1       5.824  -4.790  29.099  0.00  0.00    -0.301 OA
ATOM     27  H   UNL     1       4.855  -4.774  29.248  0.00  0.00    +0.222 HD
ENDBRANCH  24  26
BRANCH  24  28
ATOM     28  O   UNL     1       6.106  -6.339  26.017  0.00  0.00    -0.109 OA
BRANCH  28  29
ATOM     29  S   UNL     1       4.648  -6.312  25.396  0.00  0.00    +0.216 S 
ATOM     30  O   UNL     1       3.700  -6.339  26.483  0.00  0.00    -0.118 OA
ATOM     31  O   UNL     1       4.594  -7.249  24.301  0.00  0.00    -0.118 OA
BRANCH  29  32
ATOM     32  O   UNL     1       4.637  -4.833  24.750  0.00  0.00    -0.231 OA
ATOM     33  H   UNL     1       3.849  -4.344  25.071  0.00  0.00    +0.247 HD
ENDBRANCH  29  32
ENDBRANCH  28  29
ENDBRANCH  24  28
ENDBRANCH  23  24
ENDBRANCH  22  23
ENDBRANCH   4  22
TORSDOF 10
ENDMDL
MODEL 2
REMARK VINA RESULT:      -6.7      1.950      3.352
REMARK  Name = 
REMARK  10 active torsions:
REMARK  status: ('A' for Active; 'I' for Inactive)
REMARK    1  A    between atoms: N_10  and  C_11
REMARK    2  A    between atoms: C_14  and  C_16
REMARK    3  A    between atoms: C_16  and  O_17
REMARK    4  A    between atoms: O_17  and  P_18
REMARK    5  A    between atoms: P_18  and  O_19
REMARK    6  A    between atoms: P_18  and  O_21
REMARK    7  A    between atoms: O_21  and  S_22
REMARK    8  A    between atoms: S_22  and  O_23
REMARK    9  A    between atoms: C_26  and  O_28
REMARK   10  A    between atoms: C_29  and  O_31
REMARK                            x       y       z     vdW  Elec       q    Type
REMARK                         _______ _______ _______ _____ _____    ______ ____
ROOT
ATOM      1  C   UNL     1       9.428  -3.461  24.492  0.00  0.00    +0.253 C 
ATOM      2  C   UNL     1       9.218  -4.553  25.552  0.00  0.00    +0.195 C 
ATOM      3  C   UNL     1       7.766  -5.002  25.370  0.00  0.00    +0.178 C 
ATOM      4  C   UNL     1       7.289  -4.270  24.115  0.00  0.00    +0.178 C 
ATOM      5  O   UNL     1       8.483  -3.823  23.440  0.00  0.00    -0.346 OA
ENDROOT
BRANCH   1  13
ATOM      6  N   UNL     1       8.860   2.559  25.084  0.00  0.00    -0.341 N 
ATOM      7  H   UNL     1       8.196   2.405  25.835  0.00  0.00    +0.144 HD
ATOM      8  H   UNL     1       8.697   3.340  24.462  0.00  0.00    +0.144 HD
ATOM      9  C   UNL     1       9.191   1.405  24.391  0.00  0.00    +0.147 A 
ATOM     10  C   UNL     1       9.034   0.109  24.919  0.00  0.00    +0.147 A 
ATOM     11  N   UNL     1       8.534  -0.348  26.120  0.00  0.00    -0.231 NA
ATOM     12  C   UNL     1       8.630  -1.658  26.043  0.00  0.00    +0.203 A 
ATOM     13  N   UNL     1       9.210  -2.072  24.866  0.00  0.00    -0.286 N 
ATOM     14  C   UNL     1       9.415  -0.950  24.110  0.00  0.00    +0.167 A 
ATOM     15  N   UNL     1       9.885  -0.870  22.854  0.00  0.00    -0.216 NA
ATOM     16  C   UNL     1       9.989   0.415  22.455  0.00  0.00    +0.225 A 
ATOM     17  N   UNL     1       9.664   1.537  23.133  0.00  0.00    -0.219 NA
ENDBRANCH   1  13
BRANCH   2  18
ATOM     18  O   UNL     1      10.092  -5.673  25.275  0.00  0.00    -0.385 OA
ATOM     19  H   UNL     1       9.778  -6.122  24.471  0.00  0.00    +0.210 HD
ENDBRANCH   2  18
BRANCH   3  20
ATOM     20  O   UNL     1       6.983  -4.635  26.500  0.00  0.00    -0.386 OA
ATOM     21  H   UNL     1       6.052  -4.827  26.286  0.00  0.00    +0.210 HD
ENDBRANCH   3  20
BRANCH   4  22
ATOM     22  C   UNL     1       6.418  -5.135  23.193  0.00  0.00    +0.206 C 
BRANCH  22  23
ATOM     23  O   UNL     1       5.680  -6.099  23.943  0.00  0.00    -0.283 OA
BRANCH  23  24
ATOM     24  P   UNL     1       4.044  -5.862  24.054  0.00  0.00    +0.498 P 
ATOM     25  O   UNL     1       3.789  -4.418  23.620  0.00  0.00    -0.225 OA
BRANCH  24  26
ATOM     26  O   UNL     1       3.879  -6.320  22.393  0.00  0.00    -0.301 OA
ATOM     27  H   UNL     1       2.920  -6.199  22.227  0.00  0.00    +0.222 HD
ENDBRANCH  24  26
BRANCH  24  28
ATOM     28  O   UNL     1       4.209  -5.405  25.714  0.00  0.00    -0.109 OA
BRANCH  28  29
ATOM     29  S   UNL     1       4.075  -6.752  26.539  0.00  0.00    +0.216 S 
ATOM     30  O   UNL     1       2.842  -6.696  27.285  0.00  0.00    -0.118 OA
ATOM     31  O   UNL     1       5.343  -7.040  27.163  0.00  0.00    -0.118 OA
BRANCH  29  32
ATOM     32  O   UNL     1       3.892  -7.810  25.334  0.00  0.00    -0.231 OA
ATOM     33  H   UNL     1       4.342  -7.469  24.532  0.00  0.00    +0.247 HD
ENDBRANCH  29  32
ENDBRANCH  28  29
ENDBRANCH  24  28
ENDBRANCH  23  24
ENDBRANCH  22  23
ENDBRANCH   4  22
TORSDOF 10
ENDMDL
MODEL 3
REMARK VINA RESULT:      -6.6      2.303      3.909
REMARK  Name = 
REMARK  10 active torsions:
REMARK  status: ('A' for Active; 'I' for Inactive)
REMARK    1  A    between atoms: N_10  and  C_11
REMARK    2  A    between atoms: C_14  and  C_16
REMARK    3  A    between atoms: C_16  and  O_17
REMARK    4  A    between atoms: O_17  and  P_18
REMARK    5  A    between atoms: P_18  and  O_19
REMARK    6  A    between atoms: P_18  and  O_21
REMARK    7  A    between atoms: O_21  and  S_22
REMARK    8  A    between atoms: S_22  and  O_23
REMARK    9  A    between atoms: C_26  and  O_28
REMARK   10  A    between atoms: C_29  and  O_31
REMARK                            x       y       z     vdW  Elec       q    Type
REMARK                         _______ _______ _______ _____ _____    ______ ____
ROOT
ATOM      1  C   UNL     1       8.470  -0.077  22.130  0.00  0.00    +0.253 C 
ATOM      2  C   UNL     1       9.888  -0.566  22.463  0.00  0.00    +0.195 C 
ATOM      3  C   UNL     1       9.771  -1.186  23.858  0.00  0.00    +0.178 C 
ATOM      4  C   UNL     1       8.272  -1.171  24.164  0.00  0.00    +0.178 C 
ATOM      5  O   UNL     1       7.612  -0.975  22.895  0.00  0.00    -0.346 OA
ENDROOT
BRANCH   1  13
ATOM      6  N   UNL     1       8.007   5.789  23.641  0.00  0.00    -0.341 N 
ATOM      7  H   UNL     1       7.143   5.840  23.112  0.00  0.00    +0.144 HD
ATOM      8  H   UNL     1       8.618   6.595  23.627  0.00  0.00    +0.144 HD
ATOM      9  C   UNL     1       8.705   4.607  23.452  0.00  0.00    +0.147 A 
ATOM     10  C   UNL     1       8.110   3.418  22.987  0.00  0.00    +0.147 A 
ATOM     11  N   UNL     1       6.823   3.118  22.595  0.00  0.00    -0.231 NA
ATOM     12  C   UNL     1       6.867   1.849  22.251  0.00  0.00    +0.203 A 
ATOM     13  N   UNL     1       8.114   1.298  22.442  0.00  0.00    -0.286 N 
ATOM     14  C   UNL     1       8.935   2.312  22.854  0.00  0.00    +0.167 A 
ATOM     15  N   UNL     1      10.258   2.267  23.087  0.00  0.00    -0.216 NA
ATOM     16  C   UNL     1      10.716   3.459  23.523  0.00  0.00    +0.225 A 
ATOM     17  N   UNL     1      10.032   4.610  23.705  0.00  0.00    -0.219 NA
ENDBRANCH   1  13
BRANCH   2  18
ATOM     18  O   UNL     1      10.280  -1.596  21.525  0.00  0.00    -0.385 OA
ATOM     19  H   UNL     1      10.262  -1.222  20.626  0.00  0.00    +0.210 HD
ENDBRANCH   2  18
BRANCH   3  20
ATOM     20  O   UNL     1      10.491  -0.413  24.812  0.00  0.00    -0.386 OA
ATOM     21  H   UNL     1      11.335  -0.153  24.401  0.00  0.00    +0.210 HD
ENDBRANCH   3  20
BRANCH   4  22
ATOM     22  C   UNL     1       7.775  -2.444  24.861  0.00  0.00    +0.206 C 
BRANCH  22  23
ATOM     23  O   UNL     1       8.869  -3.243  25.309  0.00  0.00    -0.283 OA
BRANCH  23  24
ATOM     24  P   UNL     1       8.679  -4.886  25.210  0.00  0.00    +0.498 P 
ATOM     25  O   UNL     1       8.446  -5.204  23.732  0.00  0.00    -0.225 OA
BRANCH  24  26
ATOM     26  O   UNL     1      10.375  -5.050  24.909  0.00  0.00    -0.301 OA
ATOM     27  H   UNL     1      10.778  -4.536  25.641  0.00  0.00    +0.222 HD
ENDBRANCH  24  26
BRANCH  24  28
ATOM     28  O   UNL     1       6.983  -4.722  25.511  0.00  0.00    -0.109 OA
BRANCH  28  29
ATOM     29  S   UNL     1       6.746  -5.345  26.949  0.00  0.00    +0.216 S 
ATOM     30  O   UNL     1       5.963  -6.546  26.791  0.00  0.00    -0.118 OA
ATOM     31  O   UNL     1       6.366  -4.288  27.854  0.00  0.00    -0.118 OA
BRANCH  29  32
ATOM     32  O   UNL     1       8.256  -5.771  27.330  0.00  0.00    -0.231 OA
ATOM     33  H   UNL     1       8.804  -4.964  27.437  0.00  0.00    +0.247 HD
ENDBRANCH  29  32
ENDBRANCH  28  29
ENDBRANCH  24  28
ENDBRANCH  23  24
ENDBRANCH  22  23
ENDBRANCH   4  22
TORSDOF 10
ENDMDL
MODEL 4
REMARK VINA RESULT:      -6.6      1.145      1.994
REMARK  Name = 
REMARK  10 active torsions:
REMARK  status: ('A' for Active; 'I' for Inactive)
REMARK    1  A    between atoms: N_10  and  C_11
REMARK    2  A    between atoms: C_14  and  C_16
REMARK    3  A    between atoms: C_16  and  O_17
REMARK    4  A    between atoms: O_17  and  P_18
REMARK    5  A    between atoms: P_18  and  O_19
REMARK    6  A    between atoms: P_18  and  O_21
REMARK    7  A    between atoms: O_21  and  S_22
REMARK    8  A    between atoms: S_22  and  O_23
REMARK    9  A    between atoms: C_26  and  O_28
REMARK   10  A    between atoms: C_29  and  O_31
REMARK                            x       y       z     vdW  Elec       q    Type
REMARK                         _______ _______ _______ _____ _____    ______ ____
ROOT
ATOM      1  C   UNL     1       7.349  -2.875  23.153  0.00  0.00    +0.253 C 
ATOM      2  C   UNL     1       7.878  -4.317  23.114  0.00  0.00    +0.195 C 
ATOM      3  C   UNL     1       8.382  -4.587  24.534  0.00  0.00    +0.178 C 
ATOM      4  C   UNL     1       7.956  -3.358  25.337  0.00  0.00    +0.178 C 
ATOM      5  O   UNL     1       6.946  -2.698  24.545  0.00  0.00    -0.346 OA
ENDROOT
BRANCH   1  13
ATOM      6  N   UNL     1      10.244   2.267  21.710  0.00  0.00    -0.341 N 
ATOM      7  H   UNL     1      11.123   1.818  21.943  0.00  0.00    +0.144 HD
ATOM      8  H   UNL     1      10.141   3.249  21.934  0.00  0.00    +0.144 HD
ATOM      9  C   UNL     1       9.129   1.533  22.081  0.00  0.00    +0.147 A 
ATOM     10  C   UNL     1       9.154   0.143  22.309  0.00  0.00    +0.147 A 
ATOM     11  N   UNL     1      10.175  -0.784  22.269  0.00  0.00    -0.231 NA
ATOM     12  C   UNL     1       9.599  -1.926  22.580  0.00  0.00    +0.203 A 
ATOM     13  N   UNL     1       8.244  -1.792  22.778  0.00  0.00    -0.286 N 
ATOM     14  C   UNL     1       7.958  -0.458  22.668  0.00  0.00    +0.167 A 
ATOM     15  N   UNL     1       6.779   0.158  22.861  0.00  0.00    -0.216 NA
ATOM     16  C   UNL     1       6.876   1.482  22.619  0.00  0.00    +0.225 A 
ATOM     17  N   UNL     1       7.965   2.195  22.258  0.00  0.00    -0.219 NA
ENDBRANCH   1  13
BRANCH   2  18
ATOM     18  O   UNL     1       6.789  -5.225  22.823  0.00  0.00    -0.385 OA
ATOM     19  H   UNL     1       6.245  -5.327  23.624  0.00  0.00    +0.210 HD
ENDBRANCH   2  18
BRANCH   3  20
ATOM     20  O   UNL     1       9.797  -4.735  24.544  0.00  0.00    -0.386 OA
ATOM     21  H   UNL     1      10.160  -4.118  23.883  0.00  0.00    +0.210 HD
ENDBRANCH   3  20
BRANCH   4  22
ATOM     22  C   UNL     1       7.434  -3.692  26.741  0.00  0.00    +0.206 C 
BRANCH  22  23
ATOM     23  O   UNL     1       6.808  -4.974  26.763  0.00  0.00    -0.283 OA
BRANCH  23  24
ATOM     24  P   UNL     1       5.167  -4.996  26.991  0.00  0.00    +0.498 P 
ATOM     25  O   UNL     1       4.742  -3.542  27.201  0.00  0.00    -0.225 OA
BRANCH  24  26
ATOM     26  O   UNL     1       4.942  -4.748  25.294  0.00  0.00    -0.301 OA
ATOM     27  H   UNL     1       5.779  -4.315  25.022  0.00  0.00    +0.222 HD
ENDBRANCH  24  26
BRANCH  24  28
ATOM     28  O   UNL     1       5.393  -5.245  28.688  0.00  0.00    -0.109 OA
BRANCH  28  29
ATOM     29  S   UNL     1       5.367  -6.817  28.892  0.00  0.00    +0.216 S 
ATOM     30  O   UNL     1       4.212  -7.143  29.692  0.00  0.00    -0.118 OA
ATOM     31  O   UNL     1       6.696  -7.259  29.237  0.00  0.00    -0.118 OA
BRANCH  29  32
ATOM     32  O   UNL     1       5.089  -7.299  27.377  0.00  0.00    -0.231 OA
ATOM     33  H   UNL     1       5.650  -6.779  26.763  0.00  0.00    +0.247 HD
ENDBRANCH  29  32
ENDBRANCH  28  29
ENDBRANCH  24  28
ENDBRANCH  23  24
ENDBRANCH  22  23
ENDBRANCH   4  22
TORSDOF 10
ENDMDL
MODEL 5
REMARK VINA RESULT:      -6.5      4.555      6.730
REMARK  Name = 
REMARK  10 active torsions:
REMARK  status: ('A' for Active; 'I' for Inactive)
REMARK    1  A    between atoms: N_10  and  C_11
REMARK    2  A    between atoms: C_14  and  C_16
REMARK    3  A    between atoms: C_16  and  O_17
REMARK    4  A    between atoms: O_17  and  P_18
REMARK    5  A    between atoms: P_18  and  O_19
REMARK    6  A    between atoms: P_18  and  O_21
REMARK    7  A    between atoms: O_21  and  S_22
REMARK    8  A    between atoms: S_22  and  O_23
REMARK    9  A    between atoms: C_26  and  O_28
REMARK   10  A    between atoms: C_29  and  O_31
REMARK                            x       y       z     vdW  Elec       q    Type
REMARK                         _______ _______ _______ _____ _____    ______ ____
ROOT
ATOM      1  C   UNL     1       7.824  -5.313  26.302  0.00  0.00    +0.253 C 
ATOM      2  C   UNL     1       8.856  -5.233  25.167  0.00  0.00    +0.195 C 
ATOM      3  C   UNL     1       8.925  -3.746  24.806  0.00  0.00    +0.178 C 
ATOM      4  C   UNL     1       8.065  -3.051  25.862  0.00  0.00    +0.178 C 
ATOM      5  O   UNL     1       7.912  -4.002  26.936  0.00  0.00    -0.346 OA
ENDROOT
BRANCH   1  13
ATOM      6  N   UNL     1       2.345  -6.363  23.896  0.00  0.00    -0.341 N 
ATOM      7  H   UNL     1       2.070  -6.816  24.760  0.00  0.00    +0.144 HD
ATOM      8  H   UNL     1       1.992  -6.747  23.029  0.00  0.00    +0.144 HD
ATOM      9  C   UNL     1       3.700  -6.081  23.822  0.00  0.00    +0.147 A 
ATOM     10  C   UNL     1       4.534  -5.974  24.952  0.00  0.00    +0.147 A 
ATOM     11  N   UNL     1       4.292  -6.131  26.301  0.00  0.00    -0.231 NA
ATOM     12  C   UNL     1       5.457  -5.917  26.874  0.00  0.00    +0.203 A 
ATOM     13  N   UNL     1       6.435  -5.584  25.965  0.00  0.00    -0.286 N 
ATOM     14  C   UNL     1       5.869  -5.680  24.723  0.00  0.00    +0.167 A 
ATOM     15  N   UNL     1       6.461  -5.524  23.526  0.00  0.00    -0.216 NA
ATOM     16  C   UNL     1       5.569  -5.652  22.522  0.00  0.00    +0.225 A 
ATOM     17  N   UNL     1       4.248  -5.928  22.597  0.00  0.00    -0.219 NA
ENDBRANCH   1  13
BRANCH   2  18
ATOM     18  O   UNL     1      10.151  -5.655  25.658  0.00  0.00    -0.385 OA
ATOM     19  H   UNL     1      10.056  -5.938  26.584  0.00  0.00    +0.210 HD
ENDBRANCH   2  18
BRANCH   3  20
ATOM     20  O   UNL     1       8.404  -3.524  23.501  0.00  0.00    -0.386 OA
ATOM     21  H   UNL     1       8.134  -2.589  23.448  0.00  0.00    +0.210 HD
ENDBRANCH   3  20
BRANCH   4  22
ATOM     22  C   UNL     1       8.662  -1.730  26.367  0.00  0.00    +0.206 C 
BRANCH  22  23
ATOM     23  O   UNL     1       9.355  -1.048  25.323  0.00  0.00    -0.283 OA
BRANCH  23  24
ATOM     24  P   UNL     1       8.549   0.197  24.586  0.00  0.00    +0.498 P 
ATOM     25  O   UNL     1       7.068   0.008  24.918  0.00  0.00    -0.225 OA
BRANCH  24  26
ATOM     26  O   UNL     1       8.688   1.128  26.037  0.00  0.00    -0.301 OA
ATOM     27  H   UNL     1       8.008   1.825  25.917  0.00  0.00    +0.222 HD
ENDBRANCH  24  26
BRANCH  24  28
ATOM     28  O   UNL     1       8.410  -0.734  23.134  0.00  0.00    -0.109 OA
BRANCH  28  29
ATOM     29  S   UNL     1       9.749  -0.464  22.329  0.00  0.00    +0.216 S 
ATOM     30  O   UNL     1       9.421   0.339  21.177  0.00  0.00    -0.118 OA
ATOM     31  O   UNL     1      10.483  -1.701  22.225  0.00  0.00    -0.118 OA
BRANCH  29  32
ATOM     32  O   UNL     1      10.538   0.464  23.387  0.00  0.00    -0.231 OA
ATOM     33  H   UNL     1      10.282   1.402  23.251  0.00  0.00    +0.247 HD
ENDBRANCH  29  32
ENDBRANCH  28  29
ENDBRANCH  24  28
ENDBRANCH  23  24
ENDBRANCH  22  23
ENDBRANCH   4  22
TORSDOF 10
ENDMDL
MODEL 6
REMARK VINA RESULT:      -6.4      4.833      7.347
REMARK  Name = 
REMARK  10 active torsions:
REMARK  status: ('A' for Active; 'I' for Inactive)
REMARK    1  A    between atoms: N_10  and  C_11
REMARK    2  A    between atoms: C_14  and  C_16
REMARK    3  A    between atoms: C_16  and  O_17
REMARK    4  A    between atoms: O_17  and  P_18
REMARK    5  A    between atoms: P_18  and  O_19
REMARK    6  A    between atoms: P_18  and  O_21
REMARK    7  A    between atoms: O_21  and  S_22
REMARK    8  A    between atoms: S_22  and  O_23
REMARK    9  A    between atoms: C_26  and  O_28
REMARK   10  A    between atoms: C_29  and  O_31
REMARK                            x       y       z     vdW  Elec       q    Type
REMARK                         _______ _______ _______ _____ _____    ______ ____
ROOT
ATOM      1  C   UNL     1       8.550  -3.213  24.649  0.00  0.00    +0.253 C 
ATOM      2  C   UNL     1       7.857  -2.814  23.337  0.00  0.00    +0.195 C 
ATOM      3  C   UNL     1       7.066  -1.549  23.681  0.00  0.00    +0.178 C 
ATOM      4  C   UNL     1       7.488  -1.205  25.110  0.00  0.00    +0.178 C 
ATOM      5  O   UNL     1       8.704  -1.944  25.352  0.00  0.00    -0.346 OA
ENDROOT
BRANCH   1  13
ATOM      6  N   UNL     1       5.076  -7.271  27.544  0.00  0.00    -0.341 N 
ATOM      7  H   UNL     1       5.873  -7.516  28.121  0.00  0.00    +0.144 HD
ATOM      8  H   UNL     1       4.442  -8.011  27.274  0.00  0.00    +0.144 HD
ATOM      9  C   UNL     1       5.396  -6.448  26.476  0.00  0.00    +0.147 A 
ATOM     10  C   UNL     1       6.553  -5.646  26.431  0.00  0.00    +0.147 A 
ATOM     11  N   UNL     1       7.603  -5.484  27.311  0.00  0.00    -0.231 NA
ATOM     12  C   UNL     1       8.394  -4.611  26.727  0.00  0.00    +0.203 A 
ATOM     13  N   UNL     1       7.887  -4.164  25.528  0.00  0.00    -0.286 N 
ATOM     14  C   UNL     1       6.737  -4.869  25.298  0.00  0.00    +0.167 A 
ATOM     15  N   UNL     1       5.942  -4.831  24.216  0.00  0.00    -0.216 NA
ATOM     16  C   UNL     1       4.871  -5.638  24.370  0.00  0.00    +0.225 A 
ATOM     17  N   UNL     1       4.563  -6.439  25.413  0.00  0.00    -0.219 NA
ENDBRANCH   1  13
BRANCH   2  18
ATOM     18  O   UNL     1       8.855  -2.485  22.342  0.00  0.00    -0.385 OA
ATOM     19  H   UNL     1       9.058  -1.535  22.406  0.00  0.00    +0.210 HD
ENDBRANCH   2  18
BRANCH   3  20
ATOM     20  O   UNL     1       5.667  -1.799  23.611  0.00  0.00    -0.386 OA
ATOM     21  H   UNL     1       5.264  -1.437  24.421  0.00  0.00    +0.210 HD
ENDBRANCH   3  20
BRANCH   4  22
ATOM     22  C   UNL     1       7.691   0.297  25.346  0.00  0.00    +0.206 C 
BRANCH  22  23
ATOM     23  O   UNL     1       9.065   0.657  25.201  0.00  0.00    -0.283 OA
BRANCH  23  24
ATOM     24  P   UNL     1       9.554   1.132  23.692  0.00  0.00    +0.498 P 
ATOM     25  O   UNL     1      10.809   1.981  23.894  0.00  0.00    -0.225 OA
BRANCH  24  26
ATOM     26  O   UNL     1      10.586  -0.254  23.605  0.00  0.00    -0.301 OA
ATOM     27  H   UNL     1      10.607  -0.452  22.644  0.00  0.00    +0.222 HD
ENDBRANCH  24  26
BRANCH  24  28
ATOM     28  O   UNL     1       8.522   2.518  23.778  0.00  0.00    -0.109 OA
BRANCH  28  29
ATOM     29  S   UNL     1       7.903   2.675  22.327  0.00  0.00    +0.216 S 
ATOM     30  O   UNL     1       7.585   4.068  22.127  0.00  0.00    -0.118 OA
ATOM     31  O   UNL     1       6.938   1.624  22.118  0.00  0.00    -0.118 OA
BRANCH  29  32
ATOM     32  O   UNL     1       9.193   2.316  21.424  0.00  0.00    -0.231 OA
ATOM     33  H   UNL     1       9.338   1.346  21.438  0.00  0.00    +0.247 HD
ENDBRANCH  29  32
ENDBRANCH  28  29
ENDBRANCH  24  28
ENDBRANCH  23  24
ENDBRANCH  22  23
ENDBRANCH   4  22
TORSDOF 10
ENDMDL
MODEL 7
REMARK VINA RESULT:      -6.4      1.778      2.690
REMARK  Name = 
REMARK  10 active torsions:
REMARK  status: ('A' for Active; 'I' for Inactive)
REMARK    1  A    between atoms: N_10  and  C_11
REMARK    2  A    between atoms: C_14  and  C_16
REMARK    3  A    between atoms: C_16  and  O_17
REMARK    4  A    between atoms: O_17  and  P_18
REMARK    5  A    between atoms: P_18  and  O_19
REMARK    6  A    between atoms: P_18  and  O_21
REMARK    7  A    between atoms: O_21  and  S_22
REMARK    8  A    between atoms: S_22  and  O_23
REMARK    9  A    between atoms: C_26  and  O_28
REMARK   10  A    between atoms: C_29  and  O_31
REMARK                            x       y       z     vdW  Elec       q    Type
REMARK                         _______ _______ _______ _____ _____    ______ ____
ROOT
ATOM      1  C   UNL     1       9.399  -3.682  24.400  0.00  0.00    +0.253 C 
ATOM      2  C   UNL     1       9.509  -4.509  25.690  0.00  0.00    +0.195 C 
ATOM      3  C   UNL     1       8.080  -4.977  25.977  0.00  0.00    +0.178 C 
ATOM      4  C   UNL     1       7.275  -4.539  24.753  0.00  0.00    +0.178 C 
ATOM      5  O   UNL     1       8.246  -4.262  23.721  0.00  0.00    -0.346 OA
ENDROOT
BRANCH   1  13
ATOM      6  N   UNL     1       8.774   2.332  23.803  0.00  0.00    -0.341 N 
ATOM      7  H   UNL     1       8.258   2.348  24.675  0.00  0.00    +0.144 HD
ATOM      8  H   UNL     1       8.482   2.964  23.069  0.00  0.00    +0.144 HD
ATOM      9  C   UNL     1       9.010   1.054  23.320  0.00  0.00    +0.147 A 
ATOM     10  C   UNL     1       8.986  -0.099  24.129  0.00  0.00    +0.147 A 
ATOM     11  N   UNL     1       8.720  -0.285  25.469  0.00  0.00    -0.231 NA
ATOM     12  C   UNL     1       8.839  -1.582  25.655  0.00  0.00    +0.203 A 
ATOM     13  N   UNL     1       9.212  -2.243  24.506  0.00  0.00    -0.286 N 
ATOM     14  C   UNL     1       9.248  -1.309  23.507  0.00  0.00    +0.167 A 
ATOM     15  N   UNL     1       9.485  -1.502  22.198  0.00  0.00    -0.216 NA
ATOM     16  C   UNL     1       9.480  -0.333  21.525  0.00  0.00    +0.225 A 
ATOM     17  N   UNL     1       9.249   0.911  21.999  0.00  0.00    -0.219 NA
ENDBRANCH   1  13
BRANCH   2  18
ATOM     18  O   UNL     1      10.342  -5.668  25.454  0.00  0.00    -0.385 OA
ATOM     19  H   UNL     1      11.037  -5.697  26.136  0.00  0.00    +0.210 HD
ENDBRANCH   2  18
BRANCH   3  20
ATOM     20  O   UNL     1       7.579  -4.363  27.159  0.00  0.00    -0.386 OA
ATOM     21  H   UNL     1       7.473  -5.061  27.830  0.00  0.00    +0.210 HD
ENDBRANCH   3  20
BRANCH   4  22
ATOM     22  C   UNL     1       6.249  -5.582  24.287  0.00  0.00    +0.206 C 
BRANCH  22  23
ATOM     23  O   UNL     1       4.940  -5.254  24.751  0.00  0.00    -0.283 OA
BRANCH  23  24
ATOM     24  P   UNL     1       4.341  -6.173  25.993  0.00  0.00    +0.498 P 
ATOM     25  O   UNL     1       5.551  -6.789  26.696  0.00  0.00    -0.225 OA
BRANCH  24  26
ATOM     26  O   UNL     1       4.499  -4.815  27.055  0.00  0.00    -0.301 OA
ATOM     27  H   UNL     1       4.814  -4.105  26.457  0.00  0.00    +0.222 HD
ENDBRANCH  24  26
BRANCH  24  28
ATOM     28  O   UNL     1       4.183  -7.530  24.932  0.00  0.00    -0.109 OA
BRANCH  28  29
ATOM     29  S   UNL     1       2.725  -7.418  24.318  0.00  0.00    +0.216 S 
ATOM     30  O   UNL     1       1.976  -6.478  25.116  0.00  0.00    -0.118 OA
ATOM     31  O   UNL     1       2.241  -8.746  24.032  0.00  0.00    -0.118 OA
BRANCH  29  32
ATOM     32  O   UNL     1       3.062  -6.725  22.900  0.00  0.00    -0.231 OA
ATOM     33  H   UNL     1       3.160  -5.757  23.027  0.00  0.00    +0.247 HD
ENDBRANCH  29  32
ENDBRANCH  28  29
ENDBRANCH  24  28
ENDBRANCH  23  24
ENDBRANCH  22  23
ENDBRANCH   4  22
TORSDOF 10
ENDMDL
MODEL 8
REMARK VINA RESULT:      -6.3      4.946      7.630
REMARK  Name = 
REMARK  10 active torsions:
REMARK  status: ('A' for Active; 'I' for Inactive)
REMARK    1  A    between atoms: N_10  and  C_11
REMARK    2  A    between atoms: C_14  and  C_16
REMARK    3  A    between atoms: C_16  and  O_17
REMARK    4  A    between atoms: O_17  and  P_18
REMARK    5  A    between atoms: P_18  and  O_19
REMARK    6  A    between atoms: P_18  and  O_21
REMARK    7  A    between atoms: O_21  and  S_22
REMARK    8  A    between atoms: S_22  and  O_23
REMARK    9  A    between atoms: C_26  and  O_28
REMARK   10  A    between atoms: C_29  and  O_31
REMARK                            x       y       z     vdW  Elec       q    Type
REMARK                         _______ _______ _______ _____ _____    ______ ____
ROOT
ATOM      1  C   UNL     1       7.662  -4.873  24.171  0.00  0.00    +0.253 C 
ATOM      2  C   UNL     1       6.657  -4.908  23.010  0.00  0.00    +0.195 C 
ATOM      3  C   UNL     1       6.066  -3.497  22.961  0.00  0.00    +0.178 C 
ATOM      4  C   UNL     1       6.886  -2.698  23.974  0.00  0.00    +0.178 C 
ATOM      5  O   UNL     1       8.078  -3.475  24.219  0.00  0.00    -0.346 OA
ENDROOT
BRANCH   1  13
ATOM      6  N   UNL     1       4.919  -6.879  29.207  0.00  0.00    -0.341 N 
ATOM      7  H   UNL     1       5.828  -6.966  29.648  0.00  0.00    +0.144 HD
ATOM      8  H   UNL     1       4.219  -7.576  29.426  0.00  0.00    +0.144 HD
ATOM      9  C   UNL     1       4.983  -6.621  27.847  0.00  0.00    +0.147 A 
ATOM     10  C   UNL     1       6.113  -6.068  27.213  0.00  0.00    +0.147 A 
ATOM     11  N   UNL     1       7.352  -5.695  27.688  0.00  0.00    -0.231 NA
ATOM     12  C   UNL     1       7.995  -5.252  26.629  0.00  0.00    +0.203 A 
ATOM     13  N   UNL     1       7.216  -5.279  25.495  0.00  0.00    -0.286 N 
ATOM     14  C   UNL     1       6.028  -5.861  25.845  0.00  0.00    +0.167 A 
ATOM     15  N   UNL     1       4.989  -6.170  25.051  0.00  0.00    -0.216 NA
ATOM     16  C   UNL     1       3.970  -6.694  25.765  0.00  0.00    +0.225 A 
ATOM     17  N   UNL     1       3.912  -6.945  27.091  0.00  0.00    -0.219 NA
ENDBRANCH   1  13
BRANCH   2  18
ATOM     18  O   UNL     1       7.357  -5.166  21.770  0.00  0.00    -0.385 OA
ATOM     19  H   UNL     1       7.653  -6.093  21.765  0.00  0.00    +0.210 HD
ENDBRANCH   2  18
BRANCH   3  20
ATOM     20  O   UNL     1       4.691  -3.517  23.324  0.00  0.00    -0.386 OA
ATOM     21  H   UNL     1       4.586  -4.171  24.038  0.00  0.00    +0.210 HD
ENDBRANCH   3  20
BRANCH   4  22
ATOM     22  C   UNL     1       7.233  -1.279  23.502  0.00  0.00    +0.206 C 
BRANCH  22  23
ATOM     23  O   UNL     1       8.046  -1.314  22.330  0.00  0.00    -0.283 OA
BRANCH  23  24
ATOM     24  P   UNL     1       9.317  -0.253  22.275  0.00  0.00    +0.498 P 
ATOM     25  O   UNL     1      10.187  -0.561  23.494  0.00  0.00    -0.225 OA
BRANCH  24  26
ATOM     26  O   UNL     1      10.241  -1.426  21.402  0.00  0.00    -0.301 OA
ATOM     27  H   UNL     1      11.043  -0.925  21.142  0.00  0.00    +0.222 HD
ENDBRANCH  24  26
BRANCH  24  28
ATOM     28  O   UNL     1       8.393   0.921  23.148  0.00  0.00    -0.109 OA
BRANCH  28  29
ATOM     29  S   UNL     1       8.905   2.330  22.634  0.00  0.00    +0.216 S 
ATOM     30  O   UNL     1       9.655   2.947  23.701  0.00  0.00    -0.118 OA
ATOM     31  O   UNL     1       7.818   3.001  21.965  0.00  0.00    -0.118 OA
BRANCH  29  32
ATOM     32  O   UNL     1       9.943   1.859  21.491  0.00  0.00    -0.231 OA
ATOM     33  H   UNL     1       9.517   1.180  20.925  0.00  0.00    +0.247 HD
ENDBRANCH  29  32
ENDBRANCH  28  29
ENDBRANCH  24  28
ENDBRANCH  23  24
ENDBRANCH  22  23
ENDBRANCH   4  22
TORSDOF 10
ENDMDL
MODEL 9
REMARK VINA RESULT:      -6.3      4.834      7.465
REMARK  Name = 
REMARK  10 active torsions:
REMARK  status: ('A' for Active; 'I' for Inactive)
REMARK    1  A    between atoms: N_10  and  C_11
REMARK    2  A    between atoms: C_14  and  C_16
REMARK    3  A    between atoms: C_16  and  O_17
REMARK    4  A    between atoms: O_17  and  P_18
REMARK    5  A    between atoms: P_18  and  O_19
REMARK    6  A    between atoms: P_18  and  O_21
REMARK    7  A    between atoms: O_21  and  S_22
REMARK    8  A    between atoms: S_22  and  O_23
REMARK    9  A    between atoms: C_26  and  O_28
REMARK   10  A    between atoms: C_29  and  O_31
REMARK                            x       y       z     vdW  Elec       q    Type
REMARK                         _______ _______ _______ _____ _____    ______ ____
ROOT
ATOM      1  C   UNL     1       8.336  -5.163  26.247  0.00  0.00    +0.253 C 
ATOM      2  C   UNL     1       8.894  -4.841  24.852  0.00  0.00    +0.195 C 
ATOM      3  C   UNL     1       8.632  -3.345  24.662  0.00  0.00    +0.178 C 
ATOM      4  C   UNL     1       8.103  -2.869  26.016  0.00  0.00    +0.178 C 
ATOM      5  O   UNL     1       8.459  -3.898  26.963  0.00  0.00    -0.346 OA
ENDROOT
BRANCH   1  13
ATOM      6  N   UNL     1       2.828  -7.245  27.742  0.00  0.00    -0.341 N 
ATOM      7  H   UNL     1       2.459  -6.831  26.892  0.00  0.00    +0.144 HD
ATOM      8  H   UNL     1       2.243  -7.229  28.567  0.00  0.00    +0.144 HD
ATOM      9  C   UNL     1       4.131  -6.866  28.024  0.00  0.00    +0.147 A 
ATOM     10  C   UNL     1       5.024  -6.371  27.054  0.00  0.00    +0.147 A 
ATOM     11  N   UNL     1       4.879  -6.113  25.707  0.00  0.00    -0.231 NA
ATOM     12  C   UNL     1       6.053  -5.652  25.330  0.00  0.00    +0.203 A 
ATOM     13  N   UNL     1       6.966  -5.639  26.359  0.00  0.00    -0.286 N 
ATOM     14  C   UNL     1       6.299  -6.038  27.485  0.00  0.00    +0.167 A 
ATOM     15  N   UNL     1       6.761  -6.103  28.745  0.00  0.00    -0.216 NA
ATOM     16  C   UNL     1       5.821  -6.587  29.584  0.00  0.00    +0.225 A 
ATOM     17  N   UNL     1       4.551  -6.954  29.305  0.00  0.00    -0.219 NA
ENDBRANCH   1  13
BRANCH   2  18
ATOM     18  O   UNL     1      10.322  -5.072  24.835  0.00  0.00    -0.385 OA
ATOM     19  H   UNL     1      10.738  -4.411  24.254  0.00  0.00    +0.210 HD
ENDBRANCH   2  18
BRANCH   3  20
ATOM     20  O   UNL     1       7.669  -3.131  23.637  0.00  0.00    -0.386 OA
ATOM     21  H   UNL     1       7.070  -2.424  23.940  0.00  0.00    +0.210 HD
ENDBRANCH   3  20
BRANCH   4  22
ATOM     22  C   UNL     1       8.654  -1.502  26.444  0.00  0.00    +0.206 C 
BRANCH  22  23
ATOM     23  O   UNL     1       8.192  -0.469  25.575  0.00  0.00    -0.283 OA
BRANCH  23  24
ATOM     24  P   UNL     1       9.300   0.164  24.518  0.00  0.00    +0.498 P 
ATOM     25  O   UNL     1       9.077   1.677  24.516  0.00  0.00    -0.225 OA
BRANCH  24  26
ATOM     26  O   UNL     1      10.402   0.394  25.832  0.00  0.00    -0.301 OA
ATOM     27  H   UNL     1      11.183  -0.132  25.558  0.00  0.00    +0.222 HD
ENDBRANCH  24  26
BRANCH  24  28
ATOM     28  O   UNL     1       8.198  -0.067  23.204  0.00  0.00    -0.109 OA
BRANCH  28  29
ATOM     29  S   UNL     1       9.107  -0.268  21.920  0.00  0.00    +0.216 S 
ATOM     30  O   UNL     1       8.874   0.844  21.031  0.00  0.00    -0.118 OA
ATOM     31  O   UNL     1       9.000  -1.639  21.488  0.00  0.00    -0.118 OA
BRANCH  29  32
ATOM     32  O   UNL     1      10.572  -0.094  22.576  0.00  0.00    -0.231 OA
ATOM     33  H   UNL     1      10.520  -0.273  23.539  0.00  0.00    +0.247 HD
ENDBRANCH  29  32
ENDBRANCH  28  29
ENDBRANCH  24  28
ENDBRANCH  23  24
ENDBRANCH  22  23
ENDBRANCH   4  22
TORSDOF 10
ENDMDL
