MODEL 1
REMARK VINA RESULT:      -7.6      0.000      0.000
REMARK  Name = 
REMARK  4 active torsions:
REMARK  status: ('A' for Active; 'I' for Inactive)
REMARK    1  A    between atoms: C_2  and  C_5
REMARK    2  A    between atoms: C_10  and  C_11
REMARK    3  A    between atoms: C_14  and  C_15
REMARK    4  A    between atoms: C_15  and  C_16
REMARK                            x       y       z     vdW  Elec       q    Type
REMARK                         _______ _______ _______ _____ _____    ______ ____
ROOT
ATOM      1  C   UNL     1       7.679  -3.867  24.292  0.00  0.00    +0.136 A 
ATOM      2  O   UNL     1       7.314  -2.566  24.061  0.00  0.00    -0.460 OA
ATOM      3  C   UNL     1       8.457  -1.813  24.039  0.00  0.00    +0.107 A 
ATOM      4  C   UNL     1       9.556  -2.613  24.247  0.00  0.00    +0.045 A 
ATOM      5  C   UNL     1       9.062  -3.924  24.396  0.00  0.00    +0.050 A 
ENDROOT
BRANCH   1   7
ATOM      6  C   UNL     1       5.981  -5.577  23.370  0.00  0.00    +0.065 A 
ATOM      7  C   UNL     1       6.642  -4.907  24.426  0.00  0.00    +0.029 A 
ATOM      8  C   UNL     1       6.260  -5.246  25.747  0.00  0.00    +0.012 A 
ATOM      9  C   UNL     1       5.269  -6.187  26.032  0.00  0.00    +0.001 A 
ATOM     10  C   UNL     1       4.615  -6.824  24.995  0.00  0.00    +0.001 A 
ATOM     11  C   UNL     1       4.967  -6.524  23.681  0.00  0.00    +0.013 A 
BRANCH   6  13
ATOM     12  F   UNL     1       5.539  -6.163  21.086  0.00  0.00    -0.166 F 
ATOM     13  C   UNL     1       6.303  -5.370  21.906  0.00  0.00    +0.418 C 
ATOM     14  F   UNL     1       6.073  -4.106  21.459  0.00  0.00    -0.166 F 
ATOM     15  F   UNL     1       7.588  -5.684  21.580  0.00  0.00    -0.166 F 
ENDBRANCH   6  13
ENDBRANCH   1   7
BRANCH   3  16
ATOM     16  C   UNL     1       8.322  -0.343  23.845  0.00  0.00    +0.096 C 
BRANCH  16  17
ATOM     17  C   UNL     1       9.542   0.288  23.163  0.00  0.00    +0.168 C 
ATOM     18  C   UNL     1      10.298   1.070  24.206  0.00  0.00    +0.231 C 
ATOM     19  O   UNL     1      11.146   0.558  24.933  0.00  0.00    -0.275 OA
ATOM     20  N   UNL     1       9.935   2.382  24.359  0.00  0.00    -0.267 N 
ATOM     21  H   UNL     1      10.376   2.885  25.120  0.00  0.00    +0.157 HD
ATOM     22  C   UNL     1       9.223   3.105  23.453  0.00  0.00    +0.143 C 
ATOM     23  S   UNL     1       8.920   4.721  23.685  0.00  0.00    -0.018 S 
ATOM     24  N   UNL     1       8.807   2.459  22.329  0.00  0.00    -0.267 N 
ATOM     25  H   UNL     1       8.432   3.021  21.574  0.00  0.00    +0.157 HD
ATOM     26  C   UNL     1       9.106   1.162  22.015  0.00  0.00    +0.231 C 
ATOM     27  O   UNL     1       9.008   0.752  20.858  0.00  0.00    -0.275 OA
ENDBRANCH  16  17
ENDBRANCH   3  16
TORSDOF 4
ENDMDL
MODEL 2
REMARK VINA RESULT:      -7.5      4.868      7.667
REMARK  Name = 
REMARK  4 active torsions:
REMARK  status: ('A' for Active; 'I' for Inactive)
REMARK    1  A    between atoms: C_2  and  C_5
REMARK    2  A    between atoms: C_10  and  C_11
REMARK    3  A    between atoms: C_14  and  C_15
REMARK    4  A    between atoms: C_15  and  C_16
REMARK                            x       y       z     vdW  Elec       q    Type
REMARK                         _______ _______ _______ _____ _____    ______ ____
ROOT
ATOM      1  C   UNL     1       8.447   0.456  22.462  0.00  0.00    +0.136 A 
ATOM      2  O   UNL     1       7.998  -0.492  23.344  0.00  0.00    -0.460 OA
ATOM      3  C   UNL     1       8.559  -1.689  22.988  0.00  0.00    +0.107 A 
ATOM      4  C   UNL     1       9.370  -1.523  21.889  0.00  0.00    +0.045 A 
ATOM      5  C   UNL     1       9.308  -0.155  21.562  0.00  0.00    +0.050 A 
ENDROOT
BRANCH   1   7
ATOM      6  C   UNL     1       8.704   2.968  22.990  0.00  0.00    +0.065 A 
ATOM      7  C   UNL     1       7.959   1.843  22.566  0.00  0.00    +0.029 A 
ATOM      8  C   UNL     1       6.601   2.059  22.227  0.00  0.00    +0.012 A 
ATOM      9  C   UNL     1       5.988   3.310  22.308  0.00  0.00    +0.001 A 
ATOM     10  C   UNL     1       6.718   4.400  22.741  0.00  0.00    +0.001 A 
ATOM     11  C   UNL     1       8.060   4.231  23.076  0.00  0.00    +0.013 A 
BRANCH   6  13
ATOM     12  F   UNL     1      10.644   4.132  23.788  0.00  0.00    -0.166 F 
ATOM     13  C   UNL     1      10.177   2.923  23.340  0.00  0.00    +0.418 C 
ATOM     14  F   UNL     1      10.484   2.052  24.340  0.00  0.00    -0.166 F 
ATOM     15  F   UNL     1      10.979   2.619  22.282  0.00  0.00    -0.166 F 
ENDBRANCH   6  13
ENDBRANCH   1   7
BRANCH   3  16
ATOM     16  C   UNL     1       8.190  -2.897  23.776  0.00  0.00    +0.096 C 
BRANCH  16  17
ATOM     17  C   UNL     1       8.955  -3.009  25.100  0.00  0.00    +0.168 C 
ATOM     18  C   UNL     1       9.262  -4.466  25.332  0.00  0.00    +0.231 C 
ATOM     19  O   UNL     1      10.261  -5.014  24.872  0.00  0.00    -0.275 OA
ATOM     20  N   UNL     1       8.321  -5.179  26.027  0.00  0.00    -0.267 N 
ATOM     21  H   UNL     1       8.481  -6.176  26.105  0.00  0.00    +0.157 HD
ATOM     22  C   UNL     1       7.338  -4.634  26.794  0.00  0.00    +0.143 C 
ATOM     23  S   UNL     1       6.308  -5.587  27.681  0.00  0.00    -0.018 S 
ATOM     24  N   UNL     1       7.265  -3.275  26.839  0.00  0.00    -0.267 N 
ATOM     25  H   UNL     1       6.657  -2.859  27.535  0.00  0.00    +0.157 HD
ATOM     26  C   UNL     1       8.140  -2.422  26.224  0.00  0.00    +0.231 C 
ATOM     27  O   UNL     1       8.233  -1.247  26.579  0.00  0.00    -0.275 OA
ENDBRANCH  16  17
ENDBRANCH   3  16
TORSDOF 4
ENDMDL
MODEL 3
REMARK VINA RESULT:      -7.4      2.652      3.657
REMARK  Name = 
REMARK  4 active torsions:
REMARK  status: ('A' for Active; 'I' for Inactive)
REMARK    1  A    between atoms: C_2  and  C_5
REMARK    2  A    between atoms: C_10  and  C_11
REMARK    3  A    between atoms: C_14  and  C_15
REMARK    4  A    between atoms: C_15  and  C_16
REMARK                            x       y       z     vdW  Elec       q    Type
REMARK                         _______ _______ _______ _____ _____    ______ ____
ROOT
ATOM      1  C   UNL     1       8.255  -1.497  22.343  0.00  0.00    +0.136 A 
ATOM      2  O   UNL     1       7.715  -0.390  22.945  0.00  0.00    -0.460 OA
ATOM      3  C   UNL     1       8.426   0.701  22.521  0.00  0.00    +0.107 A 
ATOM      4  C   UNL     1       9.414   0.312  21.647  0.00  0.00    +0.045 A 
ATOM      5  C   UNL     1       9.298  -1.086  21.524  0.00  0.00    +0.050 A 
ENDROOT
BRANCH   1   7
ATOM      6  C   UNL     1       8.225  -3.731  23.631  0.00  0.00    +0.065 A 
ATOM      7  C   UNL     1       7.725  -2.835  22.658  0.00  0.00    +0.029 A 
ATOM      8  C   UNL     1       6.616  -3.269  21.890  0.00  0.00    +0.012 A 
ATOM      9  C   UNL     1       6.027  -4.524  22.049  0.00  0.00    +0.001 A 
ATOM     10  C   UNL     1       6.533  -5.400  22.990  0.00  0.00    +0.001 A 
ATOM     11  C   UNL     1       7.618  -5.008  23.772  0.00  0.00    +0.013 A 
BRANCH   6  13
ATOM     12  F   UNL     1      10.498  -3.011  23.899  0.00  0.00    -0.166 F 
ATOM     13  C   UNL     1       9.368  -3.407  24.570  0.00  0.00    +0.418 C 
ATOM     14  F   UNL     1       9.109  -2.382  25.427  0.00  0.00    -0.166 F 
ATOM     15  F   UNL     1       9.773  -4.468  25.323  0.00  0.00    -0.166 F 
ENDBRANCH   6  13
ENDBRANCH   1   7
BRANCH   3  16
ATOM     16  C   UNL     1       8.056   2.034  23.072  0.00  0.00    +0.096 C 
BRANCH  16  17
ATOM     17  C   UNL     1       8.992   2.500  24.194  0.00  0.00    +0.168 C 
ATOM     18  C   UNL     1       8.156   3.220  25.220  0.00  0.00    +0.231 C 
ATOM     19  O   UNL     1       7.581   2.635  26.135  0.00  0.00    -0.275 OA
ATOM     20  N   UNL     1       8.003   4.569  25.037  0.00  0.00    -0.267 N 
ATOM     21  H   UNL     1       7.368   5.040  25.671  0.00  0.00    +0.157 HD
ATOM     22  C   UNL     1       8.790   5.343  24.241  0.00  0.00    +0.143 C 
ATOM     23  S   UNL     1       8.586   6.989  24.165  0.00  0.00    -0.018 S 
ATOM     24  N   UNL     1       9.778   4.716  23.544  0.00  0.00    -0.267 N 
ATOM     25  H   UNL     1      10.474   5.296  23.090  0.00  0.00    +0.157 HD
ATOM     26  C   UNL     1      10.077   3.384  23.635  0.00  0.00    +0.231 C 
ATOM     27  O   UNL     1      11.171   2.955  23.267  0.00  0.00    -0.275 OA
ENDBRANCH  16  17
ENDBRANCH   3  16
TORSDOF 4
ENDMDL
MODEL 4
REMARK VINA RESULT:      -7.4      1.366      2.112
REMARK  Name = 
REMARK  4 active torsions:
REMARK  status: ('A' for Active; 'I' for Inactive)
REMARK    1  A    between atoms: C_2  and  C_5
REMARK    2  A    between atoms: C_10  and  C_11
REMARK    3  A    between atoms: C_14  and  C_15
REMARK    4  A    between atoms: C_15  and  C_16
REMARK                            x       y       z     vdW  Elec       q    Type
REMARK                         _______ _______ _______ _____ _____    ______ ____
ROOT
ATOM      1  C   UNL     1       7.662  -4.726  24.430  0.00  0.00    +0.136 A 
ATOM      2  O   UNL     1       7.944  -3.442  24.042  0.00  0.00    -0.460 OA
ATOM      3  C   UNL     1       9.245  -3.183  24.379  0.00  0.00    +0.107 A 
ATOM      4  C   UNL     1       9.809  -4.287  24.975  0.00  0.00    +0.045 A 
ATOM      5  C   UNL     1       8.805  -5.275  24.996  0.00  0.00    +0.050 A 
ENDROOT
BRANCH   1   7
ATOM      6  C   UNL     1       5.685  -5.584  23.012  0.00  0.00    +0.065 A 
ATOM      7  C   UNL     1       6.303  -5.267  24.244  0.00  0.00    +0.029 A 
ATOM      8  C   UNL     1       5.539  -5.465  25.420  0.00  0.00    +0.012 A 
ATOM      9  C   UNL     1       4.227  -5.938  25.402  0.00  0.00    +0.001 A 
ATOM     10  C   UNL     1       3.624  -6.229  24.193  0.00  0.00    +0.001 A 
ATOM     11  C   UNL     1       4.345  -6.055  23.013  0.00  0.00    +0.013 A 
BRANCH   6  13
ATOM     12  F   UNL     1       7.607  -6.086  21.667  0.00  0.00    -0.166 F 
ATOM     13  C   UNL     1       6.376  -5.481  21.669  0.00  0.00    +0.418 C 
ATOM     14  F   UNL     1       5.703  -6.083  20.650  0.00  0.00    -0.166 F 
ATOM     15  F   UNL     1       6.627  -4.199  21.282  0.00  0.00    -0.166 F 
ENDBRANCH   6  13
ENDBRANCH   1   7
BRANCH   3  16
ATOM     16  C   UNL     1       9.783  -1.823  24.098  0.00  0.00    +0.096 C 
BRANCH  16  17
ATOM     17  C   UNL     1       8.753  -0.892  23.446  0.00  0.00    +0.168 C 
ATOM     18  C   UNL     1       9.374  -0.325  22.195  0.00  0.00    +0.231 C 
ATOM     19  O   UNL     1       9.329  -0.903  21.112  0.00  0.00    -0.275 OA
ATOM     20  N   UNL     1      10.068   0.847  22.343  0.00  0.00    -0.267 N 
ATOM     21  H   UNL     1      10.563   1.183  21.525  0.00  0.00    +0.157 HD
ATOM     22  C   UNL     1       9.959   1.690  23.406  0.00  0.00    +0.143 C 
ATOM     23  S   UNL     1      10.768   3.140  23.443  0.00  0.00    -0.018 S 
ATOM     24  N   UNL     1       9.126   1.315  24.415  0.00  0.00    -0.267 N 
ATOM     25  H   UNL     1       8.903   2.005  25.122  0.00  0.00    +0.157 HD
ATOM     26  C   UNL     1       8.345   0.191  24.410  0.00  0.00    +0.231 C 
ATOM     27  O   UNL     1       7.378   0.090  25.164  0.00  0.00    -0.275 OA
ENDBRANCH  16  17
ENDBRANCH   3  16
TORSDOF 4
ENDMDL
MODEL 5
REMARK VINA RESULT:      -7.3      4.839      7.811
REMARK  Name = 
REMARK  4 active torsions:
REMARK  status: ('A' for Active; 'I' for Inactive)
REMARK    1  A    between atoms: C_2  and  C_5
REMARK    2  A    between atoms: C_10  and  C_11
REMARK    3  A    between atoms: C_14  and  C_15
REMARK    4  A    between atoms: C_15  and  C_16
REMARK                            x       y       z     vdW  Elec       q    Type
REMARK                         _______ _______ _______ _____ _____    ______ ____
ROOT
ATOM      1  C   UNL     1       8.591   0.334  22.796  0.00  0.00    +0.136 A 
ATOM      2  O   UNL     1       8.543  -0.364  23.974  0.00  0.00    -0.460 OA
ATOM      3  C   UNL     1       9.086  -1.600  23.745  0.00  0.00    +0.107 A 
ATOM      4  C   UNL     1       9.489  -1.705  22.434  0.00  0.00    +0.045 A 
ATOM      5  C   UNL     1       9.185  -0.469  21.832  0.00  0.00    +0.050 A 
ENDROOT
BRANCH   1   7
ATOM      6  C   UNL     1       8.690   2.904  23.004  0.00  0.00    +0.065 A 
ATOM      7  C   UNL     1       8.019   1.691  22.724  0.00  0.00    +0.029 A 
ATOM      8  C   UNL     1       6.652   1.778  22.360  0.00  0.00    +0.012 A 
ATOM      9  C   UNL     1       5.963   2.989  22.283  0.00  0.00    +0.001 A 
ATOM     10  C   UNL     1       6.622   4.168  22.575  0.00  0.00    +0.001 A 
ATOM     11  C   UNL     1       7.969   4.126  22.930  0.00  0.00    +0.013 A 
BRANCH   6  13
ATOM     12  F   UNL     1      10.970   2.599  22.322  0.00  0.00    -0.166 F 
ATOM     13  C   UNL     1      10.160   2.994  23.357  0.00  0.00    +0.418 C 
ATOM     14  F   UNL     1      10.583   4.252  23.656  0.00  0.00    -0.166 F 
ATOM     15  F   UNL     1      10.521   2.191  24.397  0.00  0.00    -0.166 F 
ENDBRANCH   6  13
ENDBRANCH   1   7
BRANCH   3  16
ATOM     16  C   UNL     1       9.110  -2.573  24.872  0.00  0.00    +0.096 C 
BRANCH  16  17
ATOM     17  C   UNL     1       8.757  -4.002  24.440  0.00  0.00    +0.168 C 
ATOM     18  C   UNL     1       7.255  -4.107  24.385  0.00  0.00    +0.231 C 
ATOM     19  O   UNL     1       6.604  -3.797  23.390  0.00  0.00    -0.275 OA
ATOM     20  N   UNL     1       6.633  -4.500  25.541  0.00  0.00    -0.267 N 
ATOM     21  H   UNL     1       5.620  -4.483  25.535  0.00  0.00    +0.157 HD
ATOM     22  C   UNL     1       7.249  -5.112  26.589  0.00  0.00    +0.143 C 
ATOM     23  S   UNL     1       6.388  -5.642  27.906  0.00  0.00    -0.018 S 
ATOM     24  N   UNL     1       8.592  -5.310  26.492  0.00  0.00    -0.267 N 
ATOM     25  H   UNL     1       9.030  -5.913  27.179  0.00  0.00    +0.157 HD
ATOM     26  C   UNL     1       9.354  -5.000  25.398  0.00  0.00    +0.231 C 
ATOM     27  O   UNL     1      10.462  -5.510  25.233  0.00  0.00    -0.275 OA
ENDBRANCH  16  17
ENDBRANCH   3  16
TORSDOF 4
ENDMDL
MODEL 6
REMARK VINA RESULT:      -7.3      2.561      3.628
REMARK  Name = 
REMARK  4 active torsions:
REMARK  status: ('A' for Active; 'I' for Inactive)
REMARK    1  A    between atoms: C_2  and  C_5
REMARK    2  A    between atoms: C_10  and  C_11
REMARK    3  A    between atoms: C_14  and  C_15
REMARK    4  A    between atoms: C_15  and  C_16
REMARK                            x       y       z     vdW  Elec       q    Type
REMARK                         _______ _______ _______ _____ _____    ______ ____
ROOT
ATOM      1  C   UNL     1       7.961  -1.715  22.643  0.00  0.00    +0.136 A 
ATOM      2  O   UNL     1       7.690  -0.383  22.820  0.00  0.00    -0.460 OA
ATOM      3  C   UNL     1       8.643   0.328  22.141  0.00  0.00    +0.107 A 
ATOM      4  C   UNL     1       9.523  -0.530  21.523  0.00  0.00    +0.045 A 
ATOM      5  C   UNL     1       9.082  -1.832  21.833  0.00  0.00    +0.050 A 
ENDROOT
BRANCH   1   7
ATOM      6  C   UNL     1       7.461  -3.461  24.475  0.00  0.00    +0.065 A 
ATOM      7  C   UNL     1       7.126  -2.728  23.313  0.00  0.00    +0.029 A 
ATOM      8  C   UNL     1       5.873  -3.006  22.712  0.00  0.00    +0.012 A 
ATOM      9  C   UNL     1       4.989  -3.964  23.210  0.00  0.00    +0.001 A 
ATOM     10  C   UNL     1       5.331  -4.688  24.336  0.00  0.00    +0.001 A 
ATOM     11  C   UNL     1       6.551  -4.438  24.962  0.00  0.00    +0.013 A 
BRANCH   6  13
ATOM     12  F   UNL     1       8.752  -3.985  26.428  0.00  0.00    -0.166 F 
ATOM     13  C   UNL     1       8.733  -3.252  25.268  0.00  0.00    +0.418 C 
ATOM     14  F   UNL     1       9.864  -3.631  24.613  0.00  0.00    -0.166 F 
ATOM     15  F   UNL     1       8.917  -1.965  25.676  0.00  0.00    -0.166 F 
ENDBRANCH   6  13
ENDBRANCH   1   7
BRANCH   3  16
ATOM     16  C   UNL     1       8.592   1.814  22.214  0.00  0.00    +0.096 C 
BRANCH  16  17
ATOM     17  C   UNL     1       8.847   2.355  23.626  0.00  0.00    +0.168 C 
ATOM     18  C   UNL     1       8.710   3.855  23.574  0.00  0.00    +0.231 C 
ATOM     19  O   UNL     1       7.631   4.428  23.703  0.00  0.00    -0.275 OA
ATOM     20  N   UNL     1       9.854   4.557  23.297  0.00  0.00    -0.267 N 
ATOM     21  H   UNL     1       9.749   5.557  23.171  0.00  0.00    +0.157 HD
ATOM     22  C   UNL     1      11.118   4.063  23.403  0.00  0.00    +0.143 C 
ATOM     23  S   UNL     1      12.445   5.026  23.142  0.00  0.00    -0.018 S 
ATOM     24  N   UNL     1      11.248   2.760  23.773  0.00  0.00    -0.267 N 
ATOM     25  H   UNL     1      12.173   2.431  24.023  0.00  0.00    +0.157 HD
ATOM     26  C   UNL     1      10.210   1.933  24.109  0.00  0.00    +0.231 C 
ATOM     27  O   UNL     1      10.405   0.905  24.758  0.00  0.00    -0.275 OA
ENDBRANCH  16  17
ENDBRANCH   3  16
TORSDOF 4
ENDMDL
MODEL 7
REMARK VINA RESULT:      -7.3      4.918      8.637
REMARK  Name = 
REMARK  4 active torsions:
REMARK  status: ('A' for Active; 'I' for Inactive)
REMARK    1  A    between atoms: C_2  and  C_5
REMARK    2  A    between atoms: C_10  and  C_11
REMARK    3  A    between atoms: C_14  and  C_15
REMARK    4  A    between atoms: C_15  and  C_16
REMARK                            x       y       z     vdW  Elec       q    Type
REMARK                         _______ _______ _______ _____ _____    ______ ____
ROOT
ATOM      1  C   UNL     1       9.936   2.467  23.040  0.00  0.00    +0.136 A 
ATOM      2  O   UNL     1       9.388   1.598  23.949  0.00  0.00    -0.460 OA
ATOM      3  C   UNL     1       8.964   0.493  23.261  0.00  0.00    +0.107 A 
ATOM      4  C   UNL     1       9.236   0.635  21.921  0.00  0.00    +0.045 A 
ATOM      5  C   UNL     1       9.867   1.887  21.781  0.00  0.00    +0.050 A 
ENDROOT
BRANCH   1   7
ATOM      6  C   UNL     1       9.664   4.814  24.075  0.00  0.00    +0.065 A 
ATOM      7  C   UNL     1      10.431   3.781  23.489  0.00  0.00    +0.029 A 
ATOM      8  C   UNL     1      11.811   4.034  23.288  0.00  0.00    +0.012 A 
ATOM      9  C   UNL     1      12.418   5.243  23.629  0.00  0.00    +0.001 A 
ATOM     10  C   UNL     1      11.657   6.255  24.185  0.00  0.00    +0.001 A 
ATOM     11  C   UNL     1      10.298   6.042  24.407  0.00  0.00    +0.013 A 
BRANCH   6  13
ATOM     12  F   UNL     1       7.450   4.269  23.330  0.00  0.00    -0.166 F 
ATOM     13  C   UNL     1       8.192   4.690  24.405  0.00  0.00    +0.418 C 
ATOM     14  F   UNL     1       7.916   3.782  25.381  0.00  0.00    -0.166 F 
ATOM     15  F   UNL     1       7.615   5.867  24.777  0.00  0.00    -0.166 F 
ENDBRANCH   6  13
ENDBRANCH   1   7
BRANCH   3  16
ATOM     16  C   UNL     1       8.286  -0.589  24.027  0.00  0.00    +0.096 C 
BRANCH  16  17
ATOM     17  C   UNL     1       9.252  -1.405  24.897  0.00  0.00    +0.168 C 
ATOM     18  C   UNL     1       9.534  -2.699  24.179  0.00  0.00    +0.231 C 
ATOM     19  O   UNL     1      10.421  -2.811  23.338  0.00  0.00    -0.275 OA
ATOM     20  N   UNL     1       8.690  -3.742  24.460  0.00  0.00    -0.267 N 
ATOM     21  H   UNL     1       8.820  -4.585  23.913  0.00  0.00    +0.157 HD
ATOM     22  C   UNL     1       7.868  -3.812  25.542  0.00  0.00    +0.143 C 
ATOM     23  S   UNL     1       6.958  -5.166  25.848  0.00  0.00    -0.018 S 
ATOM     24  N   UNL     1       7.857  -2.743  26.385  0.00  0.00    -0.267 N 
ATOM     25  H   UNL     1       7.388  -2.851  27.277  0.00  0.00    +0.157 HD
ATOM     26  C   UNL     1       8.655  -1.638  26.261  0.00  0.00    +0.231 C 
ATOM     27  O   UNL     1       8.851  -0.889  27.218  0.00  0.00    -0.275 OA
ENDBRANCH  16  17
ENDBRANCH   3  16
TORSDOF 4
ENDMDL
MODEL 8
REMARK VINA RESULT:      -7.3      4.914      7.836
REMARK  Name = 
REMARK  4 active torsions:
REMARK  status: ('A' for Active; 'I' for Inactive)
REMARK    1  A    between atoms: C_2  and  C_5
REMARK    2  A    between atoms: C_10  and  C_11
REMARK    3  A    between atoms: C_14  and  C_15
REMARK    4  A    between atoms: C_15  and  C_16
REMARK                            x       y       z     vdW  Elec       q    Type
REMARK                         _______ _______ _______ _____ _____    ______ ____
ROOT
ATOM      1  C   UNL     1       6.890  -1.123  24.215  0.00  0.00    +0.136 A 
ATOM      2  O   UNL     1       6.014  -2.079  23.769  0.00  0.00    -0.460 OA
ATOM      3  C   UNL     1       5.551  -2.760  24.863  0.00  0.00    +0.107 A 
ATOM      4  C   UNL     1       6.113  -2.251  26.010  0.00  0.00    +0.045 A 
ATOM      5  C   UNL     1       6.957  -1.200  25.599  0.00  0.00    +0.050 A 
ENDROOT
BRANCH   1   7
ATOM      6  C   UNL     1       8.886  -0.484  22.711  0.00  0.00    +0.065 A 
ATOM      7  C   UNL     1       7.595  -0.266  23.245  0.00  0.00    +0.029 A 
ATOM      8  C   UNL     1       6.913   0.904  22.829  0.00  0.00    +0.012 A 
ATOM      9  C   UNL     1       7.465   1.830  21.942  0.00  0.00    +0.001 A 
ATOM     10  C   UNL     1       8.735   1.618  21.439  0.00  0.00    +0.001 A 
ATOM     11  C   UNL     1       9.436   0.475  21.818  0.00  0.00    +0.013 A 
BRANCH   6  13
ATOM     12  F   UNL     1      10.146  -1.745  24.317  0.00  0.00    -0.166 F 
ATOM     13  C   UNL     1       9.728  -1.706  23.010  0.00  0.00    +0.418 C 
ATOM     14  F   UNL     1       9.077  -2.887  22.831  0.00  0.00    -0.166 F 
ATOM     15  F   UNL     1      10.879  -1.767  22.283  0.00  0.00    -0.166 F 
ENDBRANCH   6  13
ENDBRANCH   1   7
BRANCH   3  16
ATOM     16  C   UNL     1       4.609  -3.890  24.636  0.00  0.00    +0.096 C 
BRANCH  16  17
ATOM     17  C   UNL     1       5.318  -5.203  24.283  0.00  0.00    +0.168 C 
ATOM     18  C   UNL     1       4.737  -5.704  22.986  0.00  0.00    +0.231 C 
ATOM     19  O   UNL     1       5.157  -5.346  21.889  0.00  0.00    -0.275 OA
ATOM     20  N   UNL     1       3.651  -6.533  23.090  0.00  0.00    -0.267 N 
ATOM     21  H   UNL     1       3.202  -6.798  22.221  0.00  0.00    +0.157 HD
ATOM     22  C   UNL     1       3.279  -7.194  24.221  0.00  0.00    +0.143 C 
ATOM     23  S   UNL     1       2.004  -8.257  24.218  0.00  0.00    -0.018 S 
ATOM     24  N   UNL     1       4.023  -6.979  25.340  0.00  0.00    -0.267 N 
ATOM     25  H   UNL     1       3.868  -7.590  26.133  0.00  0.00    +0.157 HD
ATOM     26  C   UNL     1       5.150  -6.204  25.396  0.00  0.00    +0.231 C 
ATOM     27  O   UNL     1       5.958  -6.327  26.317  0.00  0.00    -0.275 OA
ENDBRANCH  16  17
ENDBRANCH   3  16
TORSDOF 4
ENDMDL
MODEL 9
REMARK VINA RESULT:      -7.2      2.557      3.355
REMARK  Name = 
REMARK  4 active torsions:
REMARK  status: ('A' for Active; 'I' for Inactive)
REMARK    1  A    between atoms: C_2  and  C_5
REMARK    2  A    between atoms: C_10  and  C_11
REMARK    3  A    between atoms: C_14  and  C_15
REMARK    4  A    between atoms: C_15  and  C_16
REMARK                            x       y       z     vdW  Elec       q    Type
REMARK                         _______ _______ _______ _____ _____    ______ ____
ROOT
ATOM      1  C   UNL     1       8.115  -2.155  24.696  0.00  0.00    +0.136 A 
ATOM      2  O   UNL     1       8.811  -1.102  24.161  0.00  0.00    -0.460 OA
ATOM      3  C   UNL     1       9.083  -0.226  25.178  0.00  0.00    +0.107 A 
ATOM      4  C   UNL     1       8.576  -0.705  26.364  0.00  0.00    +0.045 A 
ATOM      5  C   UNL     1       7.970  -1.939  26.059  0.00  0.00    +0.050 A 
ENDROOT
BRANCH   1   7
ATOM      6  C   UNL     1       8.041  -4.591  23.848  0.00  0.00    +0.065 A 
ATOM      7  C   UNL     1       7.634  -3.236  23.817  0.00  0.00    +0.029 A 
ATOM      8  C   UNL     1       6.685  -2.869  22.831  0.00  0.00    +0.012 A 
ATOM      9  C   UNL     1       6.163  -3.774  21.906  0.00  0.00    +0.001 A 
ATOM     10  C   UNL     1       6.579  -5.092  21.932  0.00  0.00    +0.001 A 
ATOM     11  C   UNL     1       7.505  -5.495  22.892  0.00  0.00    +0.013 A 
BRANCH   6  13
ATOM     12  F   UNL     1       8.462  -5.216  26.126  0.00  0.00    -0.166 F 
ATOM     13  C   UNL     1       9.005  -5.159  24.867  0.00  0.00    +0.418 C 
ATOM     14  F   UNL     1       9.394  -6.438  24.610  0.00  0.00    -0.166 F 
ATOM     15  F   UNL     1      10.138  -4.418  25.019  0.00  0.00    -0.166 F 
ENDBRANCH   6  13
ENDBRANCH   1   7
BRANCH   3  16
ATOM     16  C   UNL     1       9.801   1.035  24.842  0.00  0.00    +0.096 C 
BRANCH  16  17
ATOM     17  C   UNL     1       9.044   1.906  23.832  0.00  0.00    +0.168 C 
ATOM     18  C   UNL     1       9.983   2.207  22.692  0.00  0.00    +0.231 C 
ATOM     19  O   UNL     1      10.118   1.457  21.729  0.00  0.00    -0.275 OA
ATOM     20  N   UNL     1      10.745   3.338  22.820  0.00  0.00    -0.267 N 
ATOM     21  H   UNL     1      11.441   3.495  22.101  0.00  0.00    +0.157 HD
ATOM     22  C   UNL     1      10.492   4.357  23.686  0.00  0.00    +0.143 C 
ATOM     23  S   UNL     1      11.419   5.734  23.693  0.00  0.00    -0.018 S 
ATOM     24  N   UNL     1       9.421   4.218  24.515  0.00  0.00    -0.267 N 
ATOM     25  H   UNL     1       9.120   5.032  25.036  0.00  0.00    +0.157 HD
ATOM     26  C   UNL     1       8.548   3.165  24.497  0.00  0.00    +0.231 C 
ATOM     27  O   UNL     1       7.432   3.259  25.008  0.00  0.00    -0.275 OA
ENDBRANCH  16  17
ENDBRANCH   3  16
TORSDOF 4
ENDMDL
