MODEL 1
REMARK VINA RESULT:      -7.5      0.000      0.000
REMARK  Name = 
REMARK  4 active torsions:
REMARK  status: ('A' for Active; 'I' for Inactive)
REMARK    1  A    between atoms: N_1  and  S_2
REMARK    2  A    between atoms: S_2  and  C_5
REMARK    3  A    between atoms: C_8  and  C_11
REMARK    4  A    between atoms: C_14  and  C_16
REMARK                            x       y       z     vdW  Elec       q    Type
REMARK                         _______ _______ _______ _____ _____    ______ ____
ROOT
ATOM      1  C   UNL     1       8.263   1.021  23.262  0.00  0.00    +0.136 A 
ATOM      2  O   UNL     1       8.924   1.938  24.023  0.00  0.00    -0.455 OA
ATOM      3  C   UNL     1       8.739   3.191  23.492  0.00  0.00    +0.130 A 
ATOM      4  C   UNL     1       7.978   3.043  22.341  0.00  0.00    +0.050 A 
ATOM      5  C   UNL     1       7.653   1.669  22.210  0.00  0.00    +0.050 A 
ENDROOT
BRANCH   3   6
ATOM      6  C   UNL     1       9.254   4.384  24.069  0.00  0.00    +0.066 C 
ATOM      7  C   UNL     1      10.466   4.871  23.776  0.00  0.00    +0.081 C 
ATOM      8  C   UNL     1      11.031   6.041  24.511  0.00  0.00    +0.257 C 
ATOM      9  O   UNL     1      10.415   6.744  25.297  0.00  0.00    -0.269 OA
ATOM     10  N   UNL     1      12.360   6.164  24.221  0.00  0.00    -0.261 N 
ATOM     11  H   UNL     1      12.946   6.837  24.689  0.00  0.00    +0.157 HD
ATOM     12  C   UNL     1      12.883   5.247  23.390  0.00  0.00    +0.158 C 
ATOM     13  N   UNL     1      14.133   5.147  23.141  0.00  0.00    -0.279 NA
ATOM     14  H   UNL     1      14.253   4.349  22.505  0.00  0.00    +0.189 HD
ATOM     15  S   UNL     1      11.676   4.210  22.729  0.00  0.00    -0.049 S 
ENDBRANCH   3   6
BRANCH   1  19
ATOM     16  C   UNL     1       8.540  -3.090  24.375  0.00  0.00    +0.105 A 
ATOM     17  C   UNL     1       9.699  -2.387  24.043  0.00  0.00    +0.029 A 
ATOM     18  C   UNL     1       9.609  -1.033  23.708  0.00  0.00    +0.013 A 
ATOM     19  C   UNL     1       8.369  -0.369  23.697  0.00  0.00    +0.017 A 
ATOM     20  C   UNL     1       7.224  -1.087  24.078  0.00  0.00    +0.013 A 
ATOM     21  C   UNL     1       7.303  -2.441  24.416  0.00  0.00    +0.029 A 
BRANCH  16  22
ATOM     22  S   UNL     1       8.632  -4.824  24.701  0.00  0.00    +0.056 S 
ATOM     23  O   UNL     1       8.029  -5.105  25.979  0.00  0.00    -0.153 OA
ATOM     24  O   UNL     1       8.288  -5.539  23.494  0.00  0.00    -0.153 OA
BRANCH  22  25
ATOM     25  N   UNL     1      10.284  -5.048  24.929  0.00  0.00    -0.204 NA
ATOM     26  H   UNL     1      10.449  -5.894  25.474  0.00  0.00    +0.144 HD
ATOM     27  H   UNL     1      10.757  -5.042  24.025  0.00  0.00    +0.144 HD
ENDBRANCH  22  25
ENDBRANCH  16  22
ENDBRANCH   1  19
TORSDOF 4
ENDMDL
MODEL 2
REMARK VINA RESULT:      -7.4      2.837      9.006
REMARK  Name = 
REMARK  4 active torsions:
REMARK  status: ('A' for Active; 'I' for Inactive)
REMARK    1  A    between atoms: N_1  and  S_2
REMARK    2  A    between atoms: S_2  and  C_5
REMARK    3  A    between atoms: C_8  and  C_11
REMARK    4  A    between atoms: C_14  and  C_16
REMARK                            x       y       z     vdW  Elec       q    Type
REMARK                         _______ _______ _______ _____ _____    ______ ____
ROOT
ATOM      1  C   UNL     1       9.092   0.042  23.200  0.00  0.00    +0.136 A 
ATOM      2  O   UNL     1       8.038  -0.821  23.189  0.00  0.00    -0.455 OA
ATOM      3  C   UNL     1       8.505  -2.112  23.154  0.00  0.00    +0.130 A 
ATOM      4  C   UNL     1       9.890  -2.048  23.094  0.00  0.00    +0.050 A 
ATOM      5  C   UNL     1      10.263  -0.681  23.150  0.00  0.00    +0.050 A 
ENDROOT
BRANCH   3   6
ATOM      6  C   UNL     1       7.670  -3.262  23.183  0.00  0.00    +0.066 C 
ATOM      7  C   UNL     1       7.381  -3.926  24.309  0.00  0.00    +0.081 C 
ATOM      8  C   UNL     1       6.625  -5.212  24.281  0.00  0.00    +0.257 C 
ATOM      9  O   UNL     1       6.074  -5.684  23.299  0.00  0.00    -0.269 OA
ATOM     10  N   UNL     1       6.701  -5.813  25.506  0.00  0.00    -0.261 N 
ATOM     11  H   UNL     1       6.334  -6.737  25.667  0.00  0.00    +0.157 HD
ATOM     12  C   UNL     1       7.420  -5.176  26.446  0.00  0.00    +0.158 C 
ATOM     13  N   UNL     1       7.700  -5.682  27.587  0.00  0.00    -0.279 NA
ATOM     14  H   UNL     1       8.281  -4.998  28.087  0.00  0.00    +0.189 HD
ATOM     15  S   UNL     1       7.940  -3.621  25.920  0.00  0.00    -0.049 S 
ENDBRANCH   3   6
BRANCH   1  19
ATOM     16  C   UNL     1       8.241   4.224  23.189  0.00  0.00    +0.105 A 
ATOM     17  C   UNL     1       7.573   3.384  22.299  0.00  0.00    +0.029 A 
ATOM     18  C   UNL     1       7.831   2.011  22.325  0.00  0.00    +0.013 A 
ATOM     19  C   UNL     1       8.756   1.464  23.232  0.00  0.00    +0.017 A 
ATOM     20  C   UNL     1       9.382   2.324  24.147  0.00  0.00    +0.013 A 
ATOM     21  C   UNL     1       9.130   3.699  24.131  0.00  0.00    +0.029 A 
BRANCH  16  22
ATOM     22  S   UNL     1       7.995   5.972  23.095  0.00  0.00    +0.056 S 
ATOM     23  O   UNL     1       6.832   6.335  23.864  0.00  0.00    -0.153 OA
ATOM     24  O   UNL     1       9.274   6.625  23.246  0.00  0.00    -0.153 OA
BRANCH  22  25
ATOM     25  N   UNL     1       7.547   6.174  21.486  0.00  0.00    -0.204 NA
ATOM     26  H   UNL     1       8.359   6.054  20.881  0.00  0.00    +0.144 HD
ATOM     27  H   UNL     1       6.772   5.547  21.266  0.00  0.00    +0.144 HD
ENDBRANCH  22  25
ENDBRANCH  16  22
ENDBRANCH   1  19
TORSDOF 4
ENDMDL
MODEL 3
REMARK VINA RESULT:      -7.3      2.375      2.773
REMARK  Name = 
REMARK  4 active torsions:
REMARK  status: ('A' for Active; 'I' for Inactive)
REMARK    1  A    between atoms: N_1  and  S_2
REMARK    2  A    between atoms: S_2  and  C_5
REMARK    3  A    between atoms: C_8  and  C_11
REMARK    4  A    between atoms: C_14  and  C_16
REMARK                            x       y       z     vdW  Elec       q    Type
REMARK                         _______ _______ _______ _____ _____    ______ ____
ROOT
ATOM      1  C   UNL     1       9.516   0.192  23.440  0.00  0.00    +0.136 A 
ATOM      2  O   UNL     1       9.458   1.316  24.207  0.00  0.00    -0.455 OA
ATOM      3  C   UNL     1       9.781   2.410  23.441  0.00  0.00    +0.130 A 
ATOM      4  C   UNL     1      10.094   1.945  22.171  0.00  0.00    +0.050 A 
ATOM      5  C   UNL     1       9.900   0.540  22.163  0.00  0.00    +0.050 A 
ENDROOT
BRANCH   3   6
ATOM      6  C   UNL     1       9.770   3.748  23.919  0.00  0.00    +0.066 C 
ATOM      7  C   UNL     1       8.884   4.663  23.506  0.00  0.00    +0.081 C 
ATOM      8  C   UNL     1       8.996   6.093  23.917  0.00  0.00    +0.257 C 
ATOM      9  O   UNL     1       9.765   6.526  24.761  0.00  0.00    -0.269 OA
ATOM     10  N   UNL     1       8.153   6.854  23.157  0.00  0.00    -0.261 N 
ATOM     11  H   UNL     1       8.147   7.859  23.215  0.00  0.00    +0.157 HD
ATOM     12  C   UNL     1       7.437   6.208  22.221  0.00  0.00    +0.158 C 
ATOM     13  N   UNL     1       6.719   6.799  21.344  0.00  0.00    -0.279 NA
ATOM     14  H   UNL     1       6.313   6.072  20.743  0.00  0.00    +0.189 HD
ATOM     15  S   UNL     1       7.627   4.499  22.327  0.00  0.00    -0.049 S 
ENDBRANCH   3   6
BRANCH   1  19
ATOM     16  C   UNL     1       8.462  -3.489  25.325  0.00  0.00    +0.105 A 
ATOM     17  C   UNL     1       9.338  -3.498  24.240  0.00  0.00    +0.029 A 
ATOM     18  C   UNL     1       9.706  -2.289  23.643  0.00  0.00    +0.013 A 
ATOM     19  C   UNL     1       9.203  -1.064  24.117  0.00  0.00    +0.017 A 
ATOM     20  C   UNL     1       8.358  -1.078  25.238  0.00  0.00    +0.013 A 
ATOM     21  C   UNL     1       7.986  -2.281  25.844  0.00  0.00    +0.029 A 
BRANCH  16  22
ATOM     22  S   UNL     1       7.915  -5.018  26.021  0.00  0.00    +0.056 S 
ATOM     23  O   UNL     1       7.788  -4.879  27.449  0.00  0.00    -0.153 OA
ATOM     24  O   UNL     1       6.864  -5.553  25.187  0.00  0.00    -0.153 OA
BRANCH  22  25
ATOM     25  N   UNL     1       9.255  -6.007  25.786  0.00  0.00    -0.204 NA
ATOM     26  H   UNL     1      10.067  -5.441  25.544  0.00  0.00    +0.144 HD
ATOM     27  H   UNL     1       9.393  -6.596  26.608  0.00  0.00    +0.144 HD
ENDBRANCH  22  25
ENDBRANCH  16  22
ENDBRANCH   1  19
TORSDOF 4
ENDMDL
MODEL 4
REMARK VINA RESULT:      -7.2      4.050      9.856
REMARK  Name = 
REMARK  4 active torsions:
REMARK  status: ('A' for Active; 'I' for Inactive)
REMARK    1  A    between atoms: N_1  and  S_2
REMARK    2  A    between atoms: S_2  and  C_5
REMARK    3  A    between atoms: C_8  and  C_11
REMARK    4  A    between atoms: C_14  and  C_16
REMARK                            x       y       z     vdW  Elec       q    Type
REMARK                         _______ _______ _______ _____ _____    ______ ____
ROOT
ATOM      1  C   UNL     1       6.967  -3.741  22.551  0.00  0.00    +0.136 A 
ATOM      2  O   UNL     1       5.849  -3.946  23.300  0.00  0.00    -0.455 OA
ATOM      3  C   UNL     1       5.435  -5.248  23.156  0.00  0.00    +0.130 A 
ATOM      4  C   UNL     1       6.297  -5.856  22.254  0.00  0.00    +0.050 A 
ATOM      5  C   UNL     1       7.285  -4.907  21.891  0.00  0.00    +0.050 A 
ENDROOT
BRANCH   3   6
ATOM      6  C   UNL     1       4.323  -5.810  23.840  0.00  0.00    +0.066 C 
ATOM      7  C   UNL     1       4.346  -6.112  25.145  0.00  0.00    +0.081 C 
ATOM      8  C   UNL     1       3.214  -6.837  25.794  0.00  0.00    +0.257 C 
ATOM      9  O   UNL     1       2.135  -7.071  25.272  0.00  0.00    -0.269 OA
ATOM     10  N   UNL     1       3.595  -7.257  27.037  0.00  0.00    -0.261 N 
ATOM     11  H   UNL     1       3.005  -7.847  27.601  0.00  0.00    +0.157 HD
ATOM     12  C   UNL     1       4.854  -6.971  27.411  0.00  0.00    +0.158 C 
ATOM     13  N   UNL     1       5.396  -7.421  28.477  0.00  0.00    -0.279 NA
ATOM     14  H   UNL     1       6.362  -7.073  28.497  0.00  0.00    +0.189 HD
ATOM     15  S   UNL     1       5.652  -5.957  26.270  0.00  0.00    -0.049 S 
ENDBRANCH   3   6
BRANCH   1  19
ATOM     16  C   UNL     1       8.652   0.170  22.838  0.00  0.00    +0.105 A 
ATOM     17  C   UNL     1       9.423  -0.875  22.328  0.00  0.00    +0.029 A 
ATOM     18  C   UNL     1       8.859  -2.148  22.207  0.00  0.00    +0.013 A 
ATOM     19  C   UNL     1       7.529  -2.393  22.595  0.00  0.00    +0.017 A 
ATOM     20  C   UNL     1       6.761  -1.315  23.063  0.00  0.00    +0.013 A 
ATOM     21  C   UNL     1       7.314  -0.037  23.186  0.00  0.00    +0.029 A 
BRANCH  16  22
ATOM     22  S   UNL     1       9.388   1.757  23.088  0.00  0.00    +0.056 S 
ATOM     23  O   UNL     1       8.354   2.738  23.304  0.00  0.00    -0.153 OA
ATOM     24  O   UNL     1      10.523   1.606  23.967  0.00  0.00    -0.153 OA
BRANCH  22  25
ATOM     25  N   UNL     1      10.012   2.096  21.563  0.00  0.00    -0.204 NA
ATOM     26  H   UNL     1      10.970   1.756  21.495  0.00  0.00    +0.144 HD
ATOM     27  H   UNL     1       9.389   1.719  20.848  0.00  0.00    +0.144 HD
ENDBRANCH  22  25
ENDBRANCH  16  22
ENDBRANCH   1  19
TORSDOF 4
ENDMDL
MODEL 5
REMARK VINA RESULT:      -7.2      2.953      3.430
REMARK  Name = 
REMARK  4 active torsions:
REMARK  status: ('A' for Active; 'I' for Inactive)
REMARK    1  A    between atoms: N_1  and  S_2
REMARK    2  A    between atoms: S_2  and  C_5
REMARK    3  A    between atoms: C_8  and  C_11
REMARK    4  A    between atoms: C_14  and  C_16
REMARK                            x       y       z     vdW  Elec       q    Type
REMARK                         _______ _______ _______ _____ _____    ______ ____
ROOT
ATOM      1  C   UNL     1       8.516  -0.357  22.549  0.00  0.00    +0.136 A 
ATOM      2  O   UNL     1       8.384   0.657  23.448  0.00  0.00    -0.455 OA
ATOM      3  C   UNL     1       9.192   1.705  23.077  0.00  0.00    +0.130 A 
ATOM      4  C   UNL     1       9.880   1.311  21.938  0.00  0.00    +0.050 A 
ATOM      5  C   UNL     1       9.431   0.013  21.587  0.00  0.00    +0.050 A 
ENDROOT
BRANCH   3   6
ATOM      6  C   UNL     1       9.259   2.943  23.772  0.00  0.00    +0.066 C 
ATOM      7  C   UNL     1       8.531   4.013  23.427  0.00  0.00    +0.081 C 
ATOM      8  C   UNL     1       8.737   5.337  24.085  0.00  0.00    +0.257 C 
ATOM      9  O   UNL     1       9.434   5.535  25.068  0.00  0.00    -0.269 OA
ATOM     10  N   UNL     1       8.081   6.305  23.378  0.00  0.00    -0.261 N 
ATOM     11  H   UNL     1       8.172   7.282  23.606  0.00  0.00    +0.157 HD
ATOM     12  C   UNL     1       7.426   5.906  22.274  0.00  0.00    +0.158 C 
ATOM     13  N   UNL     1       6.891   6.711  21.438  0.00  0.00    -0.279 NA
ATOM     14  H   UNL     1       6.491   6.142  20.682  0.00  0.00    +0.189 HD
ATOM     15  S   UNL     1       7.424   4.191  22.109  0.00  0.00    -0.049 S 
ENDBRANCH   3   6
BRANCH   1  19
ATOM     16  C   UNL     1       6.117  -3.833  23.163  0.00  0.00    +0.105 A 
ATOM     17  C   UNL     1       7.410  -3.970  22.657  0.00  0.00    +0.029 A 
ATOM     18  C   UNL     1       8.204  -2.833  22.485  0.00  0.00    +0.013 A 
ATOM     19  C   UNL     1       7.720  -1.554  22.810  0.00  0.00    +0.017 A 
ATOM     20  C   UNL     1       6.432  -1.447  23.359  0.00  0.00    +0.013 A 
ATOM     21  C   UNL     1       5.630  -2.578  23.538  0.00  0.00    +0.029 A 
BRANCH  16  22
ATOM     22  S   UNL     1       5.073  -5.253  23.288  0.00  0.00    +0.056 S 
ATOM     23  O   UNL     1       5.312  -5.915  24.546  0.00  0.00    -0.153 OA
ATOM     24  O   UNL     1       3.753  -4.896  22.826  0.00  0.00    -0.153 OA
BRANCH  22  25
ATOM     25  N   UNL     1       5.726  -6.270  22.118  0.00  0.00    -0.204 NA
ATOM     26  H   UNL     1       5.002  -6.547  21.455  0.00  0.00    +0.144 HD
ATOM     27  H   UNL     1       6.532  -5.819  21.685  0.00  0.00    +0.144 HD
ENDBRANCH  22  25
ENDBRANCH  16  22
ENDBRANCH   1  19
TORSDOF 4
ENDMDL
MODEL 6
REMARK VINA RESULT:      -7.1      3.604      9.817
REMARK  Name = 
REMARK  4 active torsions:
REMARK  status: ('A' for Active; 'I' for Inactive)
REMARK    1  A    between atoms: N_1  and  S_2
REMARK    2  A    between atoms: S_2  and  C_5
REMARK    3  A    between atoms: C_8  and  C_11
REMARK    4  A    between atoms: C_14  and  C_16
REMARK                            x       y       z     vdW  Elec       q    Type
REMARK                         _______ _______ _______ _____ _____    ______ ____
ROOT
ATOM      1  C   UNL     1       8.586  -2.906  24.399  0.00  0.00    +0.136 A 
ATOM      2  O   UNL     1       7.327  -3.400  24.242  0.00  0.00    -0.455 OA
ATOM      3  C   UNL     1       7.348  -4.764  24.400  0.00  0.00    +0.130 A 
ATOM      4  C   UNL     1       8.669  -5.133  24.616  0.00  0.00    +0.050 A 
ATOM      5  C   UNL     1       9.450  -3.951  24.642  0.00  0.00    +0.050 A 
ENDROOT
BRANCH   3   6
ATOM      6  C   UNL     1       6.192  -5.590  24.348  0.00  0.00    +0.066 C 
ATOM      7  C   UNL     1       5.526  -5.982  25.441  0.00  0.00    +0.081 C 
ATOM      8  C   UNL     1       4.409  -6.968  25.358  0.00  0.00    +0.257 C 
ATOM      9  O   UNL     1       3.901  -7.371  24.324  0.00  0.00    -0.269 OA
ATOM     10  N   UNL     1       4.087  -7.400  26.613  0.00  0.00    -0.261 N 
ATOM     11  H   UNL     1       3.419  -8.139  26.765  0.00  0.00    +0.157 HD
ATOM     12  C   UNL     1       4.811  -6.898  27.628  0.00  0.00    +0.158 C 
ATOM     13  N   UNL     1       4.725  -7.313  28.834  0.00  0.00    -0.279 NA
ATOM     14  H   UNL     1       5.407  -6.782  29.388  0.00  0.00    +0.189 HD
ATOM     15  S   UNL     1       5.886  -5.658  27.104  0.00  0.00    -0.049 S 
ENDBRANCH   3   6
BRANCH   1  19
ATOM     16  C   UNL     1       9.157   1.295  23.901  0.00  0.00    +0.105 A 
ATOM     17  C   UNL     1       8.445   0.579  22.939  0.00  0.00    +0.029 A 
ATOM     18  C   UNL     1       8.233  -0.791  23.120  0.00  0.00    +0.013 A 
ATOM     19  C   UNL     1       8.730  -1.459  24.253  0.00  0.00    +0.017 A 
ATOM     20  C   UNL     1       9.405  -0.708  25.228  0.00  0.00    +0.013 A 
ATOM     21  C   UNL     1       9.621   0.663  25.059  0.00  0.00    +0.029 A 
BRANCH  16  22
ATOM     22  S   UNL     1       9.515   3.004  23.632  0.00  0.00    +0.056 S 
ATOM     23  O   UNL     1       8.938   3.789  24.694  0.00  0.00    -0.153 OA
ATOM     24  O   UNL     1      10.895   3.127  23.224  0.00  0.00    -0.153 OA
BRANCH  22  25
ATOM     25  N   UNL     1       8.586   3.344  22.271  0.00  0.00    -0.204 NA
ATOM     26  H   UNL     1       7.665   2.917  22.362  0.00  0.00    +0.144 HD
ATOM     27  H   UNL     1       8.560   4.353  22.119  0.00  0.00    +0.144 HD
ENDBRANCH  22  25
ENDBRANCH  16  22
ENDBRANCH   1  19
TORSDOF 4
ENDMDL
MODEL 7
REMARK VINA RESULT:      -7.0      3.121      9.265
REMARK  Name = 
REMARK  4 active torsions:
REMARK  status: ('A' for Active; 'I' for Inactive)
REMARK    1  A    between atoms: N_1  and  S_2
REMARK    2  A    between atoms: S_2  and  C_5
REMARK    3  A    between atoms: C_8  and  C_11
REMARK    4  A    between atoms: C_14  and  C_16
REMARK                            x       y       z     vdW  Elec       q    Type
REMARK                         _______ _______ _______ _____ _____    ______ ____
ROOT
ATOM      1  C   UNL     1       8.842  -0.171  23.425  0.00  0.00    +0.136 A 
ATOM      2  O   UNL     1       7.991  -0.953  22.703  0.00  0.00    -0.455 OA
ATOM      3  C   UNL     1       8.364  -2.269  22.826  0.00  0.00    +0.130 A 
ATOM      4  C   UNL     1       9.509  -2.301  23.611  0.00  0.00    +0.050 A 
ATOM      5  C   UNL     1       9.796  -0.972  24.013  0.00  0.00    +0.050 A 
ENDROOT
BRANCH   3   6
ATOM      6  C   UNL     1       7.660  -3.355  22.239  0.00  0.00    +0.066 C 
ATOM      7  C   UNL     1       6.812  -4.132  22.926  0.00  0.00    +0.081 C 
ATOM      8  C   UNL     1       6.206  -5.350  22.314  0.00  0.00    +0.257 C 
ATOM      9  O   UNL     1       6.282  -5.659  21.135  0.00  0.00    -0.269 OA
ATOM     10  N   UNL     1       5.611  -6.102  23.287  0.00  0.00    -0.261 N 
ATOM     11  H   UNL     1       5.225  -7.012  23.093  0.00  0.00    +0.157 HD
ATOM     12  C   UNL     1       5.696  -5.636  24.545  0.00  0.00    +0.158 C 
ATOM     13  N   UNL     1       5.317  -6.296  25.572  0.00  0.00    -0.279 NA
ATOM     14  H   UNL     1       5.526  -5.721  26.397  0.00  0.00    +0.189 HD
ATOM     15  S   UNL     1       6.403  -4.067  24.607  0.00  0.00    -0.049 S 
ENDBRANCH   3   6
BRANCH   1  19
ATOM     16  C   UNL     1       8.217   4.046  23.234  0.00  0.00    +0.105 A 
ATOM     17  C   UNL     1       7.625   3.219  22.280  0.00  0.00    +0.029 A 
ATOM     18  C   UNL     1       7.806   1.836  22.362  0.00  0.00    +0.013 A 
ATOM     19  C   UNL     1       8.579   1.265  23.389  0.00  0.00    +0.017 A 
ATOM     20  C   UNL     1       9.128   2.115  24.362  0.00  0.00    +0.013 A 
ATOM     21  C   UNL     1       8.951   3.500  24.291  0.00  0.00    +0.029 A 
BRANCH  16  22
ATOM     22  S   UNL     1       8.076   5.801  23.080  0.00  0.00    +0.056 S 
ATOM     23  O   UNL     1       6.975   6.267  23.884  0.00  0.00    -0.153 OA
ATOM     24  O   UNL     1       9.398   6.377  23.149  0.00  0.00    -0.153 OA
BRANCH  22  25
ATOM     25  N   UNL     1       7.568   5.970  21.485  0.00  0.00    -0.204 NA
ATOM     26  H   UNL     1       7.006   6.816  21.387  0.00  0.00    +0.144 HD
ATOM     27  H   UNL     1       8.376   5.938  20.864  0.00  0.00    +0.144 HD
ENDBRANCH  22  25
ENDBRANCH  16  22
ENDBRANCH   1  19
TORSDOF 4
ENDMDL
MODEL 8
REMARK VINA RESULT:      -7.0      3.289      4.431
REMARK  Name = 
REMARK  4 active torsions:
REMARK  status: ('A' for Active; 'I' for Inactive)
REMARK    1  A    between atoms: N_1  and  S_2
REMARK    2  A    between atoms: S_2  and  C_5
REMARK    3  A    between atoms: C_8  and  C_11
REMARK    4  A    between atoms: C_14  and  C_16
REMARK                            x       y       z     vdW  Elec       q    Type
REMARK                         _______ _______ _______ _____ _____    ______ ____
ROOT
ATOM      1  C   UNL     1       9.121  -2.218  24.629  0.00  0.00    +0.136 A 
ATOM      2  O   UNL     1       9.223  -0.896  24.942  0.00  0.00    -0.455 OA
ATOM      3  C   UNL     1       9.948  -0.250  23.970  0.00  0.00    +0.130 A 
ATOM      4  C   UNL     1      10.348  -1.209  23.049  0.00  0.00    +0.050 A 
ATOM      5  C   UNL     1       9.801  -2.453  23.453  0.00  0.00    +0.050 A 
ENDROOT
BRANCH   3   6
ATOM      6  C   UNL     1      10.201   1.148  23.962  0.00  0.00    +0.066 C 
ATOM      7  C   UNL     1       9.272   2.056  23.633  0.00  0.00    +0.081 C 
ATOM      8  C   UNL     1       9.614   3.501  23.493  0.00  0.00    +0.257 C 
ATOM      9  O   UNL     1      10.680   4.007  23.807  0.00  0.00    -0.269 OA
ATOM     10  N   UNL     1       8.577   4.159  22.895  0.00  0.00    -0.261 N 
ATOM     11  H   UNL     1       8.648   5.127  22.625  0.00  0.00    +0.157 HD
ATOM     12  C   UNL     1       7.512   3.417  22.548  0.00  0.00    +0.158 C 
ATOM     13  N   UNL     1       6.533   3.862  21.856  0.00  0.00    -0.279 NA
ATOM     14  H   UNL     1       5.882   3.081  21.714  0.00  0.00    +0.189 HD
ATOM     15  S   UNL     1       7.639   1.797  23.119  0.00  0.00    -0.049 S 
ENDBRANCH   3   6
BRANCH   1  19
ATOM     16  C   UNL     1       6.871  -4.707  27.266  0.00  0.00    +0.105 A 
ATOM     17  C   UNL     1       8.141  -5.111  26.854  0.00  0.00    +0.029 A 
ATOM     18  C   UNL     1       8.888  -4.280  26.015  0.00  0.00    +0.013 A 
ATOM     19  C   UNL     1       8.378  -3.046  25.576  0.00  0.00    +0.017 A 
ATOM     20  C   UNL     1       7.117  -2.641  26.040  0.00  0.00    +0.013 A 
ATOM     21  C   UNL     1       6.361  -3.463  26.881  0.00  0.00    +0.029 A 
BRANCH  16  22
ATOM     22  S   UNL     1       5.881  -5.795  28.244  0.00  0.00    +0.056 S 
ATOM     23  O   UNL     1       5.509  -6.944  27.458  0.00  0.00    -0.153 OA
ATOM     24  O   UNL     1       6.472  -5.900  29.558  0.00  0.00    -0.153 OA
BRANCH  22  25
ATOM     25  N   UNL     1       4.466  -4.906  28.431  0.00  0.00    -0.204 NA
ATOM     26  H   UNL     1       4.628  -4.122  29.062  0.00  0.00    +0.144 HD
ATOM     27  H   UNL     1       4.111  -4.631  27.515  0.00  0.00    +0.144 HD
ENDBRANCH  22  25
ENDBRANCH  16  22
ENDBRANCH   1  19
TORSDOF 4
ENDMDL
MODEL 9
REMARK VINA RESULT:      -6.9      2.718      9.094
REMARK  Name = 
REMARK  4 active torsions:
REMARK  status: ('A' for Active; 'I' for Inactive)
REMARK    1  A    between atoms: N_1  and  S_2
REMARK    2  A    between atoms: S_2  and  C_5
REMARK    3  A    between atoms: C_8  and  C_11
REMARK    4  A    between atoms: C_14  and  C_16
REMARK                            x       y       z     vdW  Elec       q    Type
REMARK                         _______ _______ _______ _____ _____    ______ ____
ROOT
ATOM      1  C   UNL     1       9.670  -0.445  24.072  0.00  0.00    +0.136 A 
ATOM      2  O   UNL     1       9.059  -1.099  25.098  0.00  0.00    -0.455 OA
ATOM      3  C   UNL     1       9.176  -2.455  24.910  0.00  0.00    +0.130 A 
ATOM      4  C   UNL     1       9.840  -2.648  23.706  0.00  0.00    +0.050 A 
ATOM      5  C   UNL     1      10.177  -1.372  23.187  0.00  0.00    +0.050 A 
ENDROOT
BRANCH   3   6
ATOM      6  C   UNL     1       8.691  -3.430  25.823  0.00  0.00    +0.066 C 
ATOM      7  C   UNL     1       7.795  -4.366  25.484  0.00  0.00    +0.081 C 
ATOM      8  C   UNL     1       7.199  -5.277  26.504  0.00  0.00    +0.257 C 
ATOM      9  O   UNL     1       7.568  -5.374  27.664  0.00  0.00    -0.269 OA
ATOM     10  N   UNL     1       6.133  -5.936  25.960  0.00  0.00    -0.261 N 
ATOM     11  H   UNL     1       5.537  -6.529  26.514  0.00  0.00    +0.157 HD
ATOM     12  C   UNL     1       5.829  -5.641  24.685  0.00  0.00    +0.158 C 
ATOM     13  N   UNL     1       4.780  -6.066  24.090  0.00  0.00    -0.279 NA
ATOM     14  H   UNL     1       4.783  -5.664  23.145  0.00  0.00    +0.189 HD
ATOM     15  S   UNL     1       6.999  -4.602  23.965  0.00  0.00    -0.049 S 
ENDBRANCH   3   6
BRANCH   1  19
ATOM     16  C   UNL     1       9.445   3.817  24.088  0.00  0.00    +0.105 A 
ATOM     17  C   UNL     1       8.547   3.078  24.858  0.00  0.00    +0.029 A 
ATOM     18  C   UNL     1       8.642   1.684  24.875  0.00  0.00    +0.013 A 
ATOM     19  C   UNL     1       9.626   1.014  24.125  0.00  0.00    +0.017 A 
ATOM     20  C   UNL     1      10.545   1.783  23.393  0.00  0.00    +0.013 A 
ATOM     21  C   UNL     1      10.461   3.178  23.371  0.00  0.00    +0.029 A 
BRANCH  16  22
ATOM     22  S   UNL     1       9.268   5.572  23.982  0.00  0.00    +0.056 S 
ATOM     23  O   UNL     1       8.388   6.030  25.028  0.00  0.00    -0.153 OA
ATOM     24  O   UNL     1      10.568   6.152  23.739  0.00  0.00    -0.153 OA
BRANCH  22  25
ATOM     25  N   UNL     1       8.395   5.749  22.555  0.00  0.00    -0.204 NA
ATOM     26  H   UNL     1       8.483   6.705  22.210  0.00  0.00    +0.144 HD
ATOM     27  H   UNL     1       8.690   5.040  21.884  0.00  0.00    +0.144 HD
ENDBRANCH  22  25
ENDBRANCH  16  22
ENDBRANCH   1  19
TORSDOF 4
ENDMDL
