MODEL 1
REMARK VINA RESULT:      -6.1      0.000      0.000
REMARK  Name = 
REMARK  11 active torsions:
REMARK  status: ('A' for Active; 'I' for Inactive)
REMARK    1  A    between atoms: O_1  and  C_2
REMARK    2  A    between atoms: C_2  and  C_3
REMARK    3  A    between atoms: C_6  and  O_8
REMARK    4  A    between atoms: C_9  and  O_11
REMARK    5  A    between atoms: C_12  and  O_14
REMARK    6  A    between atoms: O_14  and  C_15
REMARK    7  A    between atoms: C_17  and  O_19
REMARK    8  A    between atoms: C_20  and  O_22
REMARK    9  A    between atoms: C_23  and  O_25
REMARK   10  A    between atoms: C_27  and  C_29
REMARK   11  A    between atoms: C_29  and  O_30
REMARK                            x       y       z     vdW  Elec       q    Type
REMARK                         _______ _______ _______ _____ _____    ______ ____
ROOT
ATOM      1  C   UNL     1       8.396  -3.890  23.814  0.00  0.00    +0.183 C 
ATOM      2  C   UNL     1       7.314  -4.957  24.090  0.00  0.00    +0.178 C 
ATOM      3  O   UNL     1       6.651  -4.753  25.356  0.00  0.00    -0.341 OA
ATOM      4  C   UNL     1       7.552  -4.807  26.461  0.00  0.00    +0.279 C 
ATOM      5  C   UNL     1       8.640  -3.724  26.366  0.00  0.00    +0.201 C 
ATOM      6  C   UNL     1       9.367  -3.803  25.013  0.00  0.00    +0.179 C 
ENDROOT
BRANCH   4   7
ATOM      7  O   UNL     1       8.160  -6.089  26.560  0.00  0.00    -0.365 OA
ATOM      8  H   UNL     1       7.707  -6.551  27.288  0.00  0.00    +0.213 HD
ENDBRANCH   4   7
BRANCH   5   9
ATOM      9  O   UNL     1       8.088  -2.420  26.582  0.00  0.00    -0.384 OA
ATOM     10  H   UNL     1       7.349  -2.313  25.955  0.00  0.00    +0.210 HD
ENDBRANCH   5   9
BRANCH   6  11
ATOM     11  O   UNL     1      10.260  -4.929  24.998  0.00  0.00    -0.386 OA
ATOM     12  H   UNL     1      10.405  -5.214  25.922  0.00  0.00    +0.210 HD
ENDBRANCH   6  11
BRANCH   1  13
ATOM     13  O   UNL     1       7.763  -2.637  23.505  0.00  0.00    -0.340 OA
BRANCH  13  16
ATOM     14  C   UNL     1       8.592   0.618  24.857  0.00  0.00    +0.149 C 
ATOM     15  O   UNL     1       7.899  -0.596  24.551  0.00  0.00    -0.343 OA
ATOM     16  C   UNL     1       8.564  -1.442  23.596  0.00  0.00    +0.282 C 
ATOM     17  C   UNL     1       8.763  -0.671  22.259  0.00  0.00    +0.199 C 
ATOM     18  C   UNL     1       9.512   0.647  22.546  0.00  0.00    +0.150 C 
ATOM     19  C   UNL     1       8.781   1.461  23.596  0.00  0.00    +0.068 C 
BRANCH  17  20
ATOM     20  O   UNL     1       9.499  -1.433  21.292  0.00  0.00    -0.384 OA
ATOM     21  H   UNL     1      10.205  -0.883  20.914  0.00  0.00    +0.210 HD
ENDBRANCH  17  20
BRANCH  18  22
ATOM     22  O   UNL     1       9.658   1.409  21.350  0.00  0.00    -0.389 OA
ATOM     23  H   UNL     1       9.166   0.956  20.643  0.00  0.00    +0.210 HD
ENDBRANCH  18  22
BRANCH  14  24
ATOM     24  C   UNL     1       7.782   1.375  25.910  0.00  0.00    +0.187 C 
BRANCH  24  25
ATOM     25  O   UNL     1       7.784   0.690  27.161  0.00  0.00    -0.392 OA
ATOM     26  H   UNL     1       7.290   1.246  27.791  0.00  0.00    +0.210 HD
ENDBRANCH  24  25
ENDBRANCH  14  24
ENDBRANCH  13  16
ENDBRANCH   1  13
BRANCH   2  27
ATOM     27  C   UNL     1       6.252  -4.981  22.982  0.00  0.00    +0.190 C 
BRANCH  27  28
ATOM     28  O   UNL     1       6.885  -4.856  21.705  0.00  0.00    -0.392 OA
ATOM     29  H   UNL     1       6.181  -5.033  21.049  0.00  0.00    +0.210 HD
ENDBRANCH  27  28
ENDBRANCH   2  27
TORSDOF 11
ENDMDL
MODEL 2
REMARK VINA RESULT:      -5.9      1.837      5.424
REMARK  Name = 
REMARK  11 active torsions:
REMARK  status: ('A' for Active; 'I' for Inactive)
REMARK    1  A    between atoms: O_1  and  C_2
REMARK    2  A    between atoms: C_2  and  C_3
REMARK    3  A    between atoms: C_6  and  O_8
REMARK    4  A    between atoms: C_9  and  O_11
REMARK    5  A    between atoms: C_12  and  O_14
REMARK    6  A    between atoms: O_14  and  C_15
REMARK    7  A    between atoms: C_17  and  O_19
REMARK    8  A    between atoms: C_20  and  O_22
REMARK    9  A    between atoms: C_23  and  O_25
REMARK   10  A    between atoms: C_27  and  C_29
REMARK   11  A    between atoms: C_29  and  O_30
REMARK                            x       y       z     vdW  Elec       q    Type
REMARK                         _______ _______ _______ _____ _____    ______ ____
ROOT
ATOM      1  C   UNL     1       7.650  -0.811  23.262  0.00  0.00    +0.183 C 
ATOM      2  C   UNL     1       8.940  -0.075  22.839  0.00  0.00    +0.178 C 
ATOM      3  O   UNL     1      10.032  -0.309  23.754  0.00  0.00    -0.341 OA
ATOM      4  C   UNL     1       9.740   0.134  25.078  0.00  0.00    +0.279 C 
ATOM      5  C   UNL     1       8.520  -0.592  25.670  0.00  0.00    +0.201 C 
ATOM      6  C   UNL     1       7.309  -0.470  24.731  0.00  0.00    +0.179 C 
ENDROOT
BRANCH   4   7
ATOM      7  O   UNL     1       9.521   1.540  25.108  0.00  0.00    -0.365 OA
ATOM      8  H   UNL     1       8.994   1.751  24.317  0.00  0.00    +0.213 HD
ENDBRANCH   4   7
BRANCH   5   9
ATOM      9  O   UNL     1       8.824  -1.964  25.947  0.00  0.00    -0.384 OA
ATOM     10  H   UNL     1       8.170  -2.506  25.468  0.00  0.00    +0.210 HD
ENDBRANCH   5   9
BRANCH   6  11
ATOM     11  O   UNL     1       6.758   0.856  24.806  0.00  0.00    -0.386 OA
ATOM     12  H   UNL     1       7.482   1.473  25.032  0.00  0.00    +0.210 HD
ENDBRANCH   6  11
BRANCH   1  13
ATOM     13  O   UNL     1       7.805  -2.220  23.029  0.00  0.00    -0.340 OA
BRANCH  13  16
ATOM     14  C   UNL     1       6.409  -4.744  25.218  0.00  0.00    +0.149 C 
ATOM     15  O   UNL     1       7.326  -3.868  24.557  0.00  0.00    -0.343 OA
ATOM     16  C   UNL     1       6.754  -3.094  23.488  0.00  0.00    +0.282 C 
ATOM     17  C   UNL     1       6.161  -4.045  22.409  0.00  0.00    +0.199 C 
ATOM     18  C   UNL     1       5.160  -5.007  23.083  0.00  0.00    +0.150 C 
ATOM     19  C   UNL     1       5.819  -5.750  24.229  0.00  0.00    +0.068 C 
BRANCH  17  20
ATOM     20  O   UNL     1       5.497  -3.333  21.356  0.00  0.00    -0.384 OA
ATOM     21  H   UNL     1       4.540  -3.488  21.411  0.00  0.00    +0.210 HD
ENDBRANCH  17  20
BRANCH  18  22
ATOM     22  O   UNL     1       4.642  -5.935  22.133  0.00  0.00    -0.389 OA
ATOM     23  H   UNL     1       4.122  -6.601  22.616  0.00  0.00    +0.210 HD
ENDBRANCH  18  22
BRANCH  14  24
ATOM     24  C   UNL     1       7.158  -5.455  26.346  0.00  0.00    +0.187 C 
BRANCH  24  25
ATOM     25  O   UNL     1       7.837  -4.525  27.187  0.00  0.00    -0.392 OA
ATOM     26  H   UNL     1       7.618  -3.633  26.861  0.00  0.00    +0.210 HD
ENDBRANCH  24  25
ENDBRANCH  14  24
ENDBRANCH  13  16
ENDBRANCH   1  13
BRANCH   2  27
ATOM     27  C   UNL     1       9.388  -0.492  21.430  0.00  0.00    +0.190 C 
BRANCH  27  28
ATOM     28  O   UNL     1      10.214  -1.657  21.513  0.00  0.00    -0.392 OA
ATOM     29  H   UNL     1      11.131  -1.332  21.406  0.00  0.00    +0.210 HD
ENDBRANCH  27  28
ENDBRANCH   2  27
TORSDOF 11
ENDMDL
MODEL 3
REMARK VINA RESULT:      -5.8      1.516      6.060
REMARK  Name = 
REMARK  11 active torsions:
REMARK  status: ('A' for Active; 'I' for Inactive)
REMARK    1  A    between atoms: O_1  and  C_2
REMARK    2  A    between atoms: C_2  and  C_3
REMARK    3  A    between atoms: C_6  and  O_8
REMARK    4  A    between atoms: C_9  and  O_11
REMARK    5  A    between atoms: C_12  and  O_14
REMARK    6  A    between atoms: O_14  and  C_15
REMARK    7  A    between atoms: C_17  and  O_19
REMARK    8  A    between atoms: C_20  and  O_22
REMARK    9  A    between atoms: C_23  and  O_25
REMARK   10  A    between atoms: C_27  and  C_29
REMARK   11  A    between atoms: C_29  and  O_30
REMARK                            x       y       z     vdW  Elec       q    Type
REMARK                         _______ _______ _______ _____ _____    ______ ____
ROOT
ATOM      1  C   UNL     1       9.468  -1.570  23.808  0.00  0.00    +0.183 C 
ATOM      2  C   UNL     1       9.820  -0.073  23.947  0.00  0.00    +0.178 C 
ATOM      3  O   UNL     1       8.699   0.786  23.647  0.00  0.00    -0.341 OA
ATOM      4  C   UNL     1       8.220   0.614  22.313  0.00  0.00    +0.279 C 
ATOM      5  C   UNL     1       7.741  -0.825  22.058  0.00  0.00    +0.201 C 
ATOM      6  C   UNL     1       8.842  -1.836  22.420  0.00  0.00    +0.179 C 
ENDROOT
BRANCH   4   7
ATOM      7  O   UNL     1       9.222   0.960  21.364  0.00  0.00    -0.365 OA
ATOM      8  H   UNL     1       9.741   1.680  21.766  0.00  0.00    +0.213 HD
ENDBRANCH   4   7
BRANCH   5   9
ATOM      9  O   UNL     1       6.531  -1.098  22.774  0.00  0.00    -0.384 OA
ATOM     10  H   UNL     1       6.612  -1.997  23.144  0.00  0.00    +0.210 HD
ENDBRANCH   5   9
BRANCH   6  11
ATOM     11  O   UNL     1       9.868  -1.828  21.414  0.00  0.00    -0.386 OA
ATOM     12  H   UNL     1       9.851  -2.692  20.957  0.00  0.00    +0.210 HD
ENDBRANCH   6  11
BRANCH   1  13
ATOM     13  O   UNL     1       8.619  -1.965  24.898  0.00  0.00    -0.340 OA
BRANCH  13  16
ATOM     14  C   UNL     1       6.326  -4.704  24.307  0.00  0.00    +0.149 C 
ATOM     15  O   UNL     1       6.883  -3.391  24.417  0.00  0.00    -0.343 OA
ATOM     16  C   UNL     1       8.213  -3.347  24.963  0.00  0.00    +0.282 C 
ATOM     17  C   UNL     1       8.218  -3.975  26.387  0.00  0.00    +0.199 C 
ATOM     18  C   UNL     1       7.627  -5.398  26.310  0.00  0.00    +0.150 C 
ATOM     19  C   UNL     1       6.248  -5.372  25.680  0.00  0.00    +0.068 C 
BRANCH  17  20
ATOM     20  O   UNL     1       9.535  -4.039  26.953  0.00  0.00    -0.384 OA
ATOM     21  H   UNL     1       9.894  -3.141  27.043  0.00  0.00    +0.210 HD
ENDBRANCH  17  20
BRANCH  18  22
ATOM     22  O   UNL     1       7.560  -5.982  27.609  0.00  0.00    -0.389 OA
ATOM     23  H   UNL     1       7.560  -5.260  28.263  0.00  0.00    +0.210 HD
ENDBRANCH  18  22
BRANCH  14  24
ATOM     24  C   UNL     1       4.939  -4.582  23.674  0.00  0.00    +0.187 C 
BRANCH  24  25
ATOM     25  O   UNL     1       4.970  -3.764  22.506  0.00  0.00    -0.392 OA
ATOM     26  H   UNL     1       4.814  -4.351  21.743  0.00  0.00    +0.210 HD
ENDBRANCH  24  25
ENDBRANCH  14  24
ENDBRANCH  13  16
ENDBRANCH   1  13
BRANCH   2  27
ATOM     27  C   UNL     1      10.320   0.257  25.361  0.00  0.00    +0.190 C 
BRANCH  27  28
ATOM     28  O   UNL     1       9.216   0.284  26.269  0.00  0.00    -0.392 OA
ATOM     29  H   UNL     1       9.256   1.161  26.700  0.00  0.00    +0.210 HD
ENDBRANCH  27  28
ENDBRANCH   2  27
TORSDOF 11
ENDMDL
MODEL 4
REMARK VINA RESULT:      -5.8      1.478      6.145
REMARK  Name = 
REMARK  11 active torsions:
REMARK  status: ('A' for Active; 'I' for Inactive)
REMARK    1  A    between atoms: O_1  and  C_2
REMARK    2  A    between atoms: C_2  and  C_3
REMARK    3  A    between atoms: C_6  and  O_8
REMARK    4  A    between atoms: C_9  and  O_11
REMARK    5  A    between atoms: C_12  and  O_14
REMARK    6  A    between atoms: O_14  and  C_15
REMARK    7  A    between atoms: C_17  and  O_19
REMARK    8  A    between atoms: C_20  and  O_22
REMARK    9  A    between atoms: C_23  and  O_25
REMARK   10  A    between atoms: C_27  and  C_29
REMARK   11  A    between atoms: C_29  and  O_30
REMARK                            x       y       z     vdW  Elec       q    Type
REMARK                         _______ _______ _______ _____ _____    ______ ____
ROOT
ATOM      1  C   UNL     1       8.640   0.026  24.080  0.00  0.00    +0.183 C 
ATOM      2  C   UNL     1       8.140   1.380  23.532  0.00  0.00    +0.178 C 
ATOM      3  O   UNL     1       8.044   1.389  22.092  0.00  0.00    -0.341 OA
ATOM      4  C   UNL     1       9.300   1.145  21.459  0.00  0.00    +0.279 C 
ATOM      5  C   UNL     1       9.877  -0.228  21.843  0.00  0.00    +0.201 C 
ATOM      6  C   UNL     1       9.953  -0.376  23.372  0.00  0.00    +0.179 C 
ENDROOT
BRANCH   4   7
ATOM      7  O   UNL     1      10.238   2.165  21.778  0.00  0.00    -0.365 OA
ATOM      8  H   UNL     1       9.847   3.002  21.470  0.00  0.00    +0.213 HD
ENDBRANCH   4   7
BRANCH   5   9
ATOM      9  O   UNL     1       9.114  -1.289  21.258  0.00  0.00    -0.384 OA
ATOM     10  H   UNL     1       8.808  -0.977  20.386  0.00  0.00    +0.210 HD
ENDBRANCH   5   9
BRANCH   6  11
ATOM     11  O   UNL     1      11.043   0.407  23.889  0.00  0.00    -0.386 OA
ATOM     12  H   UNL     1      10.707   1.305  24.081  0.00  0.00    +0.210 HD
ENDBRANCH   6  11
BRANCH   1  13
ATOM     13  O   UNL     1       7.600  -0.957  23.945  0.00  0.00    -0.340 OA
BRANCH  13  16
ATOM     14  C   UNL     1       7.544  -4.430  22.921  0.00  0.00    +0.149 C 
ATOM     15  O   UNL     1       7.243  -3.036  23.034  0.00  0.00    -0.343 OA
ATOM     16  C   UNL     1       7.972  -2.345  24.063  0.00  0.00    +0.282 C 
ATOM     17  C   UNL     1       7.677  -2.998  25.445  0.00  0.00    +0.199 C 
ATOM     18  C   UNL     1       7.994  -4.506  25.366  0.00  0.00    +0.150 C 
ATOM     19  C   UNL     1       7.229  -5.155  24.229  0.00  0.00    +0.068 C 
BRANCH  17  20
ATOM     20  O   UNL     1       8.443  -2.408  26.504  0.00  0.00    -0.384 OA
ATOM     21  H   UNL     1       9.085  -3.054  26.841  0.00  0.00    +0.210 HD
ENDBRANCH  17  20
BRANCH  18  22
ATOM     22  O   UNL     1       7.676  -5.148  26.599  0.00  0.00    -0.389 OA
ATOM     23  H   UNL     1       8.244  -4.767  27.291  0.00  0.00    +0.210 HD
ENDBRANCH  18  22
BRANCH  14  24
ATOM     24  C   UNL     1       6.725  -5.001  21.762  0.00  0.00    +0.187 C 
BRANCH  24  25
ATOM     25  O   UNL     1       5.817  -4.034  21.240  0.00  0.00    -0.392 OA
ATOM     26  H   UNL     1       6.023  -3.186  21.673  0.00  0.00    +0.210 HD
ENDBRANCH  24  25
ENDBRANCH  14  24
ENDBRANCH  13  16
ENDBRANCH   1  13
BRANCH   2  27
ATOM     27  C   UNL     1       6.768   1.750  24.113  0.00  0.00    +0.190 C 
BRANCH  27  28
ATOM     28  O   UNL     1       5.733   1.221  23.278  0.00  0.00    -0.392 OA
ATOM     29  H   UNL     1       6.032   0.323  23.033  0.00  0.00    +0.210 HD
ENDBRANCH  27  28
ENDBRANCH   2  27
TORSDOF 11
ENDMDL
MODEL 5
REMARK VINA RESULT:      -5.8      2.208      4.214
REMARK  Name = 
REMARK  11 active torsions:
REMARK  status: ('A' for Active; 'I' for Inactive)
REMARK    1  A    between atoms: O_1  and  C_2
REMARK    2  A    between atoms: C_2  and  C_3
REMARK    3  A    between atoms: C_6  and  O_8
REMARK    4  A    between atoms: C_9  and  O_11
REMARK    5  A    between atoms: C_12  and  O_14
REMARK    6  A    between atoms: O_14  and  C_15
REMARK    7  A    between atoms: C_17  and  O_19
REMARK    8  A    between atoms: C_20  and  O_22
REMARK    9  A    between atoms: C_23  and  O_25
REMARK   10  A    between atoms: C_27  and  C_29
REMARK   11  A    between atoms: C_29  and  O_30
REMARK                            x       y       z     vdW  Elec       q    Type
REMARK                         _______ _______ _______ _____ _____    ______ ____
ROOT
ATOM      1  C   UNL     1       8.180  -0.176  24.183  0.00  0.00    +0.183 C 
ATOM      2  C   UNL     1       8.424  -1.366  25.136  0.00  0.00    +0.178 C 
ATOM      3  O   UNL     1       9.327  -2.343  24.576  0.00  0.00    -0.341 OA
ATOM      4  C   UNL     1       8.838  -2.904  23.359  0.00  0.00    +0.279 C 
ATOM      5  C   UNL     1       8.636  -1.833  22.273  0.00  0.00    +0.201 C 
ATOM      6  C   UNL     1       7.742  -0.695  22.795  0.00  0.00    +0.179 C 
ENDROOT
BRANCH   4   7
ATOM      7  O   UNL     1       7.617  -3.603  23.574  0.00  0.00    -0.365 OA
ATOM      8  H   UNL     1       6.912  -2.931  23.561  0.00  0.00    +0.213 HD
ENDBRANCH   4   7
BRANCH   5   9
ATOM      9  O   UNL     1       9.894  -1.331  21.807  0.00  0.00    -0.384 OA
ATOM     10  H   UNL     1      10.016  -1.661  20.897  0.00  0.00    +0.210 HD
ENDBRANCH   5   9
BRANCH   6  11
ATOM     11  O   UNL     1       6.373  -1.129  22.847  0.00  0.00    -0.386 OA
ATOM     12  H   UNL     1       6.041  -1.199  21.930  0.00  0.00    +0.210 HD
ENDBRANCH   6  11
BRANCH   1  13
ATOM     13  O   UNL     1       9.356   0.648  24.135  0.00  0.00    -0.340 OA
BRANCH  13  16
ATOM     14  C   UNL     1       8.066   3.742  25.503  0.00  0.00    +0.149 C 
ATOM     15  O   UNL     1       8.302   2.352  25.258  0.00  0.00    -0.343 OA
ATOM     16  C   UNL     1       9.174   2.078  24.148  0.00  0.00    +0.282 C 
ATOM     17  C   UNL     1       8.574   2.684  22.845  0.00  0.00    +0.199 C 
ATOM     18  C   UNL     1       8.308   4.187  23.068  0.00  0.00    +0.150 C 
ATOM     19  C   UNL     1       7.425   4.401  24.282  0.00  0.00    +0.068 C 
BRANCH  17  20
ATOM     20  O   UNL     1       9.441   2.519  21.715  0.00  0.00    -0.384 OA
ATOM     21  H   UNL     1       9.511   3.359  21.233  0.00  0.00    +0.210 HD
ENDBRANCH  17  20
BRANCH  18  22
ATOM     22  O   UNL     1       7.700   4.763  21.914  0.00  0.00    -0.389 OA
ATOM     23  H   UNL     1       7.757   4.115  21.190  0.00  0.00    +0.210 HD
ENDBRANCH  18  22
BRANCH  14  24
ATOM     24  C   UNL     1       7.163   3.862  26.732  0.00  0.00    +0.187 C 
BRANCH  24  25
ATOM     25  O   UNL     1       7.505   2.898  27.726  0.00  0.00    -0.392 OA
ATOM     26  H   UNL     1       7.581   2.037  27.274  0.00  0.00    +0.210 HD
ENDBRANCH  24  25
ENDBRANCH  14  24
ENDBRANCH  13  16
ENDBRANCH   1  13
BRANCH   2  27
ATOM     27  C   UNL     1       8.989  -0.898  26.485  0.00  0.00    +0.190 C 
BRANCH  27  28
ATOM     28  O   UNL     1       8.216   0.201  26.977  0.00  0.00    -0.392 OA
ATOM     29  H   UNL     1       7.428  -0.203  27.392  0.00  0.00    +0.210 HD
ENDBRANCH  27  28
ENDBRANCH   2  27
TORSDOF 11
ENDMDL
MODEL 6
REMARK VINA RESULT:      -5.7      1.736      5.772
REMARK  Name = 
REMARK  11 active torsions:
REMARK  status: ('A' for Active; 'I' for Inactive)
REMARK    1  A    between atoms: O_1  and  C_2
REMARK    2  A    between atoms: C_2  and  C_3
REMARK    3  A    between atoms: C_6  and  O_8
REMARK    4  A    between atoms: C_9  and  O_11
REMARK    5  A    between atoms: C_12  and  O_14
REMARK    6  A    between atoms: O_14  and  C_15
REMARK    7  A    between atoms: C_17  and  O_19
REMARK    8  A    between atoms: C_20  and  O_22
REMARK    9  A    between atoms: C_23  and  O_25
REMARK   10  A    between atoms: C_27  and  C_29
REMARK   11  A    between atoms: C_29  and  O_30
REMARK                            x       y       z     vdW  Elec       q    Type
REMARK                         _______ _______ _______ _____ _____    ______ ____
ROOT
ATOM      1  C   UNL     1       7.971  -0.471  23.625  0.00  0.00    +0.183 C 
ATOM      2  C   UNL     1       7.669   1.021  23.365  0.00  0.00    +0.178 C 
ATOM      3  O   UNL     1       8.131   1.458  22.069  0.00  0.00    -0.341 OA
ATOM      4  C   UNL     1       9.541   1.306  21.911  0.00  0.00    +0.279 C 
ATOM      5  C   UNL     1       9.978  -0.162  22.051  0.00  0.00    +0.201 C 
ATOM      6  C   UNL     1       9.469  -0.756  23.376  0.00  0.00    +0.179 C 
ENDROOT
BRANCH   4   7
ATOM      7  O   UNL     1      10.248   2.107  22.850  0.00  0.00    -0.365 OA
ATOM      8  H   UNL     1      11.137   1.718  22.927  0.00  0.00    +0.213 HD
ENDBRANCH   4   7
BRANCH   5   9
ATOM      9  O   UNL     1       9.536  -0.939  20.933  0.00  0.00    -0.384 OA
ATOM     10  H   UNL     1      10.333  -1.284  20.488  0.00  0.00    +0.210 HD
ENDBRANCH   5   9
BRANCH   6  11
ATOM     11  O   UNL     1      10.249  -0.251  24.473  0.00  0.00    -0.386 OA
ATOM     12  H   UNL     1       9.645   0.215  25.085  0.00  0.00    +0.210 HD
ENDBRANCH   6  11
BRANCH   1  13
ATOM     13  O   UNL     1       7.099  -1.283  22.821  0.00  0.00    -0.340 OA
BRANCH  13  16
ATOM     14  C   UNL     1       7.956  -4.288  24.649  0.00  0.00    +0.149 C 
ATOM     15  O   UNL     1       8.016  -2.985  24.061  0.00  0.00    -0.343 OA
ATOM     16  C   UNL     1       6.893  -2.651  23.227  0.00  0.00    +0.282 C 
ATOM     17  C   UNL     1       6.775  -3.679  22.065  0.00  0.00    +0.199 C 
ATOM     18  C   UNL     1       6.704  -5.101  22.660  0.00  0.00    +0.150 C 
ATOM     19  C   UNL     1       7.892  -5.364  23.565  0.00  0.00    +0.068 C 
BRANCH  17  20
ATOM     20  O   UNL     1       5.621  -3.450  21.246  0.00  0.00    -0.384 OA
ATOM     21  H   UNL     1       5.661  -2.555  20.872  0.00  0.00    +0.210 HD
ENDBRANCH  17  20
BRANCH  18  22
ATOM     22  O   UNL     1       6.657  -6.075  21.620  0.00  0.00    -0.389 OA
ATOM     23  H   UNL     1       7.390  -5.894  21.005  0.00  0.00    +0.210 HD
ENDBRANCH  18  22
BRANCH  14  24
ATOM     24  C   UNL     1       9.191  -4.469  25.533  0.00  0.00    +0.187 C 
BRANCH  24  25
ATOM     25  O   UNL     1      10.167  -5.294  24.901  0.00  0.00    -0.392 OA
ATOM     26  H   UNL     1       9.713  -5.775  24.184  0.00  0.00    +0.210 HD
ENDBRANCH  24  25
ENDBRANCH  14  24
ENDBRANCH  13  16
ENDBRANCH   1  13
BRANCH   2  27
ATOM     27  C   UNL     1       6.166   1.317  23.471  0.00  0.00    +0.190 C 
BRANCH  27  28
ATOM     28  O   UNL     1       5.555   0.391  24.375  0.00  0.00    -0.392 OA
ATOM     29  H   UNL     1       5.680  -0.489  23.967  0.00  0.00    +0.210 HD
ENDBRANCH  27  28
ENDBRANCH   2  27
TORSDOF 11
ENDMDL
MODEL 7
REMARK VINA RESULT:      -5.6      1.822      2.716
REMARK  Name = 
REMARK  11 active torsions:
REMARK  status: ('A' for Active; 'I' for Inactive)
REMARK    1  A    between atoms: O_1  and  C_2
REMARK    2  A    between atoms: C_2  and  C_3
REMARK    3  A    between atoms: C_6  and  O_8
REMARK    4  A    between atoms: C_9  and  O_11
REMARK    5  A    between atoms: C_12  and  O_14
REMARK    6  A    between atoms: O_14  and  C_15
REMARK    7  A    between atoms: C_17  and  O_19
REMARK    8  A    between atoms: C_20  and  O_22
REMARK    9  A    between atoms: C_23  and  O_25
REMARK   10  A    between atoms: C_27  and  C_29
REMARK   11  A    between atoms: C_29  and  O_30
REMARK                            x       y       z     vdW  Elec       q    Type
REMARK                         _______ _______ _______ _____ _____    ______ ____
ROOT
ATOM      1  C   UNL     1       7.132  -3.296  25.288  0.00  0.00    +0.183 C 
ATOM      2  C   UNL     1       5.957  -3.472  26.273  0.00  0.00    +0.178 C 
ATOM      3  O   UNL     1       6.356  -4.137  27.491  0.00  0.00    -0.341 OA
ATOM      4  C   UNL     1       6.874  -5.446  27.255  0.00  0.00    +0.279 C 
ATOM      5  C   UNL     1       8.121  -5.414  26.355  0.00  0.00    +0.201 C 
ATOM      6  C   UNL     1       7.827  -4.656  25.049  0.00  0.00    +0.179 C 
ENDROOT
BRANCH   4   7
ATOM      7  O   UNL     1       5.886  -6.288  26.675  0.00  0.00    -0.365 OA
ATOM      8  H   UNL     1       6.270  -6.631  25.849  0.00  0.00    +0.213 HD
ENDBRANCH   4   7
BRANCH   5   9
ATOM      9  O   UNL     1       9.239  -4.843  27.044  0.00  0.00    -0.384 OA
ATOM     10  H   UNL     1       9.223  -5.191  27.955  0.00  0.00    +0.210 HD
ENDBRANCH   5   9
BRANCH   6  11
ATOM     11  O   UNL     1       7.021  -5.467  24.179  0.00  0.00    -0.386 OA
ATOM     12  H   UNL     1       7.607  -5.861  23.501  0.00  0.00    +0.210 HD
ENDBRANCH   6  11
BRANCH   1  13
ATOM     13  O   UNL     1       8.023  -2.283  25.783  0.00  0.00    -0.340 OA
BRANCH  13  16
ATOM     14  C   UNL     1       7.927   0.595  23.587  0.00  0.00    +0.149 C 
ATOM     15  O   UNL     1       7.537  -0.462  24.469  0.00  0.00    -0.343 OA
ATOM     16  C   UNL     1       8.595  -1.368  24.826  0.00  0.00    +0.282 C 
ATOM     17  C   UNL     1       9.178  -2.027  23.542  0.00  0.00    +0.199 C 
ATOM     18  C   UNL     1       9.616  -0.917  22.563  0.00  0.00    +0.150 C 
ATOM     19  C   UNL     1       8.465   0.027  22.274  0.00  0.00    +0.068 C 
BRANCH  17  20
ATOM     20  O   UNL     1      10.297  -2.879  23.824  0.00  0.00    -0.384 OA
ATOM     21  H   UNL     1      11.122  -2.375  23.724  0.00  0.00    +0.210 HD
ENDBRANCH  17  20
BRANCH  18  22
ATOM     22  O   UNL     1      10.100  -1.486  21.348  0.00  0.00    -0.389 OA
ATOM     23  H   UNL     1       9.853  -0.890  20.619  0.00  0.00    +0.210 HD
ENDBRANCH  18  22
BRANCH  14  24
ATOM     24  C   UNL     1       6.708   1.486  23.344  0.00  0.00    +0.187 C 
BRANCH  24  25
ATOM     25  O   UNL     1       5.521   0.902  23.876  0.00  0.00    -0.392 OA
ATOM     26  H   UNL     1       5.326   1.363  24.712  0.00  0.00    +0.210 HD
ENDBRANCH  24  25
ENDBRANCH  14  24
ENDBRANCH  13  16
ENDBRANCH   1  13
BRANCH   2  27
ATOM     27  C   UNL     1       5.324  -2.123  26.641  0.00  0.00    +0.190 C 
BRANCH  27  28
ATOM     28  O   UNL     1       4.976  -1.413  25.449  0.00  0.00    -0.392 OA
ATOM     29  H   UNL     1       4.013  -1.254  25.514  0.00  0.00    +0.210 HD
ENDBRANCH  27  28
ENDBRANCH   2  27
TORSDOF 11
ENDMDL
MODEL 8
REMARK VINA RESULT:      -5.6      2.333      3.563
REMARK  Name = 
REMARK  11 active torsions:
REMARK  status: ('A' for Active; 'I' for Inactive)
REMARK    1  A    between atoms: O_1  and  C_2
REMARK    2  A    between atoms: C_2  and  C_3
REMARK    3  A    between atoms: C_6  and  O_8
REMARK    4  A    between atoms: C_9  and  O_11
REMARK    5  A    between atoms: C_12  and  O_14
REMARK    6  A    between atoms: O_14  and  C_15
REMARK    7  A    between atoms: C_17  and  O_19
REMARK    8  A    between atoms: C_20  and  O_22
REMARK    9  A    between atoms: C_23  and  O_25
REMARK   10  A    between atoms: C_27  and  C_29
REMARK   11  A    between atoms: C_29  and  O_30
REMARK                            x       y       z     vdW  Elec       q    Type
REMARK                         _______ _______ _______ _____ _____    ______ ____
ROOT
ATOM      1  C   UNL     1       5.983  -3.031  23.337  0.00  0.00    +0.183 C 
ATOM      2  C   UNL     1       4.835  -3.820  24.003  0.00  0.00    +0.178 C 
ATOM      3  O   UNL     1       5.214  -5.174  24.327  0.00  0.00    -0.341 OA
ATOM      4  C   UNL     1       5.595  -5.926  23.175  0.00  0.00    +0.279 C 
ATOM      5  C   UNL     1       6.803  -5.302  22.457  0.00  0.00    +0.201 C 
ATOM      6  C   UNL     1       6.534  -3.823  22.129  0.00  0.00    +0.179 C 
ENDROOT
BRANCH   4   7
ATOM      7  O   UNL     1       4.508  -6.049  22.265  0.00  0.00    -0.365 OA
ATOM      8  H   UNL     1       4.683  -6.849  21.738  0.00  0.00    +0.213 HD
ENDBRANCH   4   7
BRANCH   5   9
ATOM      9  O   UNL     1       7.996  -5.451  23.235  0.00  0.00    -0.384 OA
ATOM     10  H   UNL     1       7.889  -4.903  24.035  0.00  0.00    +0.210 HD
ENDBRANCH   5   9
BRANCH   6  11
ATOM     11  O   UNL     1       5.621  -3.722  21.024  0.00  0.00    -0.386 OA
ATOM     12  H   UNL     1       5.117  -2.889  21.122  0.00  0.00    +0.210 HD
ENDBRANCH   6  11
BRANCH   1  13
ATOM     13  O   UNL     1       6.986  -2.726  24.319  0.00  0.00    -0.340 OA
BRANCH  13  16
ATOM     14  C   UNL     1       8.075   0.426  22.909  0.00  0.00    +0.149 C 
ATOM     15  O   UNL     1       7.276  -0.707  23.262  0.00  0.00    -0.343 OA
ATOM     16  C   UNL     1       7.979  -1.737  23.978  0.00  0.00    +0.282 C 
ATOM     17  C   UNL     1       9.168  -2.258  23.119  0.00  0.00    +0.199 C 
ATOM     18  C   UNL     1      10.059  -1.063  22.720  0.00  0.00    +0.150 C 
ATOM     19  C   UNL     1       9.242   0.003  22.015  0.00  0.00    +0.068 C 
BRANCH  17  20
ATOM     20  O   UNL     1       9.962  -3.229  23.815  0.00  0.00    -0.384 OA
ATOM     21  H   UNL     1      10.878  -2.913  23.881  0.00  0.00    +0.210 HD
ENDBRANCH  17  20
BRANCH  18  22
ATOM     22  O   UNL     1      11.127  -1.495  21.880  0.00  0.00    -0.389 OA
ATOM     23  H   UNL     1      10.851  -1.370  20.955  0.00  0.00    +0.210 HD
ENDBRANCH  18  22
BRANCH  14  24
ATOM     24  C   UNL     1       7.177   1.440  22.198  0.00  0.00    +0.187 C 
BRANCH  24  25
ATOM     25  O   UNL     1       5.875   1.477  22.777  0.00  0.00    -0.392 OA
ATOM     26  H   UNL     1       5.528   2.379  22.642  0.00  0.00    +0.210 HD
ENDBRANCH  24  25
ENDBRANCH  14  24
ENDBRANCH  13  16
ENDBRANCH   1  13
BRANCH   2  27
ATOM     27  C   UNL     1       4.350  -3.130  25.286  0.00  0.00    +0.190 C 
BRANCH  27  28
ATOM     28  O   UNL     1       4.588  -1.722  25.196  0.00  0.00    -0.392 OA
ATOM     29  H   UNL     1       3.958  -1.313  25.822  0.00  0.00    +0.210 HD
ENDBRANCH  27  28
ENDBRANCH   2  27
TORSDOF 11
ENDMDL
MODEL 9
REMARK VINA RESULT:      -5.6      1.497      5.884
REMARK  Name = 
REMARK  11 active torsions:
REMARK  status: ('A' for Active; 'I' for Inactive)
REMARK    1  A    between atoms: O_1  and  C_2
REMARK    2  A    between atoms: C_2  and  C_3
REMARK    3  A    between atoms: C_6  and  O_8
REMARK    4  A    between atoms: C_9  and  O_11
REMARK    5  A    between atoms: C_12  and  O_14
REMARK    6  A    between atoms: O_14  and  C_15
REMARK    7  A    between atoms: C_17  and  O_19
REMARK    8  A    between atoms: C_20  and  O_22
REMARK    9  A    between atoms: C_23  and  O_25
REMARK   10  A    between atoms: C_27  and  C_29
REMARK   11  A    between atoms: C_29  and  O_30
REMARK                            x       y       z     vdW  Elec       q    Type
REMARK                         _______ _______ _______ _____ _____    ______ ____
ROOT
ATOM      1  C   UNL     1       8.152  -0.938  23.609  0.00  0.00    +0.183 C 
ATOM      2  C   UNL     1       9.039   0.120  22.919  0.00  0.00    +0.178 C 
ATOM      3  O   UNL     1       9.656   1.021  23.863  0.00  0.00    -0.341 OA
ATOM      4  C   UNL     1       8.698   1.748  24.632  0.00  0.00    +0.279 C 
ATOM      5  C   UNL     1       7.796   0.813  25.455  0.00  0.00    +0.201 C 
ATOM      6  C   UNL     1       7.141  -0.244  24.550  0.00  0.00    +0.179 C 
ENDROOT
BRANCH   4   7
ATOM      7  O   UNL     1       7.896   2.574  23.796  0.00  0.00    -0.365 OA
ATOM      8  H   UNL     1       7.269   3.031  24.385  0.00  0.00    +0.213 HD
ENDBRANCH   4   7
BRANCH   5   9
ATOM      9  O   UNL     1       8.529   0.199  26.521  0.00  0.00    -0.384 OA
ATOM     10  H   UNL     1       9.299   0.769  26.707  0.00  0.00    +0.210 HD
ENDBRANCH   5   9
BRANCH   6  11
ATOM     11  O   UNL     1       6.088   0.354  23.776  0.00  0.00    -0.386 OA
ATOM     12  H   UNL     1       6.498   0.904  23.079  0.00  0.00    +0.210 HD
ENDBRANCH   6  11
BRANCH   1  13
ATOM     13  O   UNL     1       8.985  -1.897  24.281  0.00  0.00    -0.340 OA
BRANCH  13  16
ATOM     14  C   UNL     1       7.234  -4.709  22.820  0.00  0.00    +0.149 C 
ATOM     15  O   UNL     1       7.673  -3.381  23.117  0.00  0.00    -0.343 OA
ATOM     16  C   UNL     1       8.598  -3.284  24.213  0.00  0.00    +0.282 C 
ATOM     17  C   UNL     1       7.945  -3.857  25.505  0.00  0.00    +0.199 C 
ATOM     18  C   UNL     1       7.461  -5.295  25.227  0.00  0.00    +0.150 C 
ATOM     19  C   UNL     1       6.530  -5.325  24.030  0.00  0.00    +0.068 C 
BRANCH  17  20
ATOM     20  O   UNL     1       8.851  -3.868  26.617  0.00  0.00    -0.384 OA
ATOM     21  H   UNL     1       8.890  -4.762  26.994  0.00  0.00    +0.210 HD
ENDBRANCH  17  20
BRANCH  18  22
ATOM     22  O   UNL     1       6.801  -5.829  26.372  0.00  0.00    -0.389 OA
ATOM     23  H   UNL     1       7.449  -5.876  27.098  0.00  0.00    +0.210 HD
ENDBRANCH  18  22
BRANCH  14  24
ATOM     24  C   UNL     1       6.298  -4.643  21.613  0.00  0.00    +0.187 C 
BRANCH  24  25
ATOM     25  O   UNL     1       5.448  -3.499  21.674  0.00  0.00    -0.392 OA
ATOM     26  H   UNL     1       4.857  -3.624  22.439  0.00  0.00    +0.210 HD
ENDBRANCH  24  25
ENDBRANCH  14  24
ENDBRANCH  13  16
ENDBRANCH   1  13
BRANCH   2  27
ATOM     27  C   UNL     1      10.145  -0.536  22.079  0.00  0.00    +0.190 C 
BRANCH  27  28
ATOM     28  O   UNL     1       9.623  -1.690  21.413  0.00  0.00    -0.392 OA
ATOM     29  H   UNL     1      10.407  -2.179  21.091  0.00  0.00    +0.210 HD
ENDBRANCH  27  28
ENDBRANCH   2  27
TORSDOF 11
ENDMDL
