MODEL 1
REMARK VINA RESULT:      -6.8      0.000      0.000
REMARK  Name = 
REMARK  6 active torsions:
REMARK  status: ('A' for Active; 'I' for Inactive)
REMARK    1  A    between atoms: O_1  and  C_2
REMARK    2  A    between atoms: C_2  and  C_3
REMARK    3  A    between atoms: C_6  and  C_20
REMARK    4  A    between atoms: C_8  and  N_9
REMARK    5  A    between atoms: N_9  and  C_10
REMARK    6  A    between atoms: C_10  and  C_11
REMARK                            x       y       z     vdW  Elec       q    Type
REMARK                         _______ _______ _______ _____ _____    ______ ____
ROOT
ATOM      1  C   UNL     1       6.637  -5.777  27.316  0.00  0.00    +0.042 A 
ATOM      2  C   UNL     1       7.911  -5.233  27.051  0.00  0.00    +0.143 A 
ATOM      3  N   UNL     1       8.093  -4.905  25.770  0.00  0.00    -0.171 NA
ATOM      4  N   UNL     1       6.918  -5.249  25.172  0.00  0.00    -0.200 N 
ATOM      5  C   UNL     1       6.577  -5.094  23.806  0.00  0.00    +0.125 A 
ATOM      6  C   UNL     1       5.370  -5.518  23.398  0.00  0.00    +0.072 A 
ATOM      7  C   UNL     1       4.488  -6.155  24.430  0.00  0.00    +0.077 A 
ATOM      8  N   UNL     1       4.786  -6.265  25.697  0.00  0.00    -0.227 NA
ATOM      9  C   UNL     1       6.018  -5.810  26.081  0.00  0.00    +0.163 A 
ENDROOT
BRANCH   7  10
ATOM     10  C   UNL     1       3.178  -6.696  23.943  0.00  0.00    +0.001 A 
ATOM     11  C   UNL     1       2.405  -6.010  22.997  0.00  0.00    +0.010 A 
ATOM     12  C   UNL     1       1.206  -6.557  22.534  0.00  0.00    +0.001 A 
ATOM     13  C   UNL     1       0.777  -7.796  23.003  0.00  0.00    +0.000 A 
ATOM     14  C   UNL     1       1.544  -8.491  23.938  0.00  0.00    +0.001 A 
ATOM     15  C   UNL     1       2.742  -7.946  24.406  0.00  0.00    +0.010 A 
ENDBRANCH   7  10
BRANCH   5  16
ATOM     16  N   UNL     1       7.494  -4.470  22.939  0.00  0.00    -0.325 N 
ATOM     17  H   UNL     1       7.573  -5.083  22.117  0.00  0.00    +0.148 HD
BRANCH  16  18
ATOM     18  C   UNL     1       7.191  -3.131  22.422  0.00  0.00    +0.139 C 
BRANCH  18  19
ATOM     19  C   UNL     1       8.312  -2.179  22.728  0.00  0.00    -0.012 A 
ATOM     20  C   UNL     1       9.001  -1.496  21.722  0.00  0.00    +0.008 A 
ATOM     21  C   UNL     1      10.013  -0.600  22.060  0.00  0.00    +0.020 A 
ATOM     22  C   UNL     1      10.314  -0.425  23.401  0.00  0.00    +0.111 A 
ATOM     23  N   UNL     1       9.684  -1.077  24.402  0.00  0.00    -0.263 NA
ATOM     24  C   UNL     1       8.704  -1.939  24.041  0.00  0.00    +0.115 A 
ENDBRANCH  18  19
ENDBRANCH  16  18
ENDBRANCH   5  16
BRANCH   1  25
ATOM     25  C   UNL     1       6.077  -6.222  28.613  0.00  0.00    +0.196 C 
BRANCH  25  26
ATOM     26  O   UNL     1       5.513  -7.529  28.531  0.00  0.00    -0.390 OA
ATOM     27  H   UNL     1       4.849  -7.496  27.821  0.00  0.00    +0.210 HD
ENDBRANCH  25  26
ENDBRANCH   1  25
TORSDOF 6
ENDMDL
MODEL 2
REMARK VINA RESULT:      -6.6      4.869      9.664
REMARK  Name = 
REMARK  6 active torsions:
REMARK  status: ('A' for Active; 'I' for Inactive)
REMARK    1  A    between atoms: O_1  and  C_2
REMARK    2  A    between atoms: C_2  and  C_3
REMARK    3  A    between atoms: C_6  and  C_20
REMARK    4  A    between atoms: C_8  and  N_9
REMARK    5  A    between atoms: N_9  and  C_10
REMARK    6  A    between atoms: C_10  and  C_11
REMARK                            x       y       z     vdW  Elec       q    Type
REMARK                         _______ _______ _______ _____ _____    ______ ____
ROOT
ATOM      1  C   UNL     1       6.616   1.633  25.664  0.00  0.00    +0.042 A 
ATOM      2  C   UNL     1       5.970   0.562  25.014  0.00  0.00    +0.143 A 
ATOM      3  N   UNL     1       6.533   0.230  23.849  0.00  0.00    -0.171 NA
ATOM      4  N   UNL     1       7.567   1.108  23.721  0.00  0.00    -0.200 N 
ATOM      5  C   UNL     1       8.501   1.178  22.659  0.00  0.00    +0.125 A 
ATOM      6  C   UNL     1       9.443   2.136  22.701  0.00  0.00    +0.072 A 
ATOM      7  C   UNL     1       9.404   3.078  23.867  0.00  0.00    +0.077 A 
ATOM      8  N   UNL     1       8.566   2.991  24.865  0.00  0.00    -0.227 NA
ATOM      9  C   UNL     1       7.629   1.996  24.798  0.00  0.00    +0.163 A 
ENDROOT
BRANCH   7  10
ATOM     10  C   UNL     1      10.410   4.189  23.857  0.00  0.00    +0.001 A 
ATOM     11  C   UNL     1      10.137   5.434  24.437  0.00  0.00    +0.010 A 
ATOM     12  C   UNL     1      11.108   6.437  24.444  0.00  0.00    +0.001 A 
ATOM     13  C   UNL     1      12.362   6.201  23.884  0.00  0.00    +0.000 A 
ATOM     14  C   UNL     1      12.647   4.961  23.313  0.00  0.00    +0.001 A 
ATOM     15  C   UNL     1      11.676   3.956  23.300  0.00  0.00    +0.010 A 
ENDBRANCH   7  10
BRANCH   5  16
ATOM     16  N   UNL     1       8.434   0.225  21.625  0.00  0.00    -0.325 N 
ATOM     17  H   UNL     1       8.510   0.752  20.746  0.00  0.00    +0.148 HD
BRANCH  16  18
ATOM     18  C   UNL     1       9.453  -0.829  21.558  0.00  0.00    +0.139 C 
BRANCH  18  19
ATOM     19  C   UNL     1       9.115  -1.952  22.497  0.00  0.00    -0.012 A 
ATOM     20  C   UNL     1       9.927  -2.277  23.587  0.00  0.00    +0.008 A 
ATOM     21  C   UNL     1       9.554  -3.308  24.446  0.00  0.00    +0.020 A 
ATOM     22  C   UNL     1       8.379  -3.992  24.179  0.00  0.00    +0.111 A 
ATOM     23  N   UNL     1       7.576  -3.720  23.130  0.00  0.00    -0.263 NA
ATOM     24  C   UNL     1       7.965  -2.712  22.313  0.00  0.00    +0.115 A 
ENDBRANCH  18  19
ENDBRANCH  16  18
ENDBRANCH   5  16
BRANCH   1  25
ATOM     25  C   UNL     1       6.293   2.245  26.973  0.00  0.00    +0.196 C 
BRANCH  25  26
ATOM     26  O   UNL     1       7.463   2.673  27.666  0.00  0.00    -0.390 OA
ATOM     27  H   UNL     1       7.195   2.824  28.588  0.00  0.00    +0.210 HD
ENDBRANCH  25  26
ENDBRANCH   1  25
TORSDOF 6
ENDMDL
MODEL 3
REMARK VINA RESULT:      -6.6      2.178      3.024
REMARK  Name = 
REMARK  6 active torsions:
REMARK  status: ('A' for Active; 'I' for Inactive)
REMARK    1  A    between atoms: O_1  and  C_2
REMARK    2  A    between atoms: C_2  and  C_3
REMARK    3  A    between atoms: C_6  and  C_20
REMARK    4  A    between atoms: C_8  and  N_9
REMARK    5  A    between atoms: N_9  and  C_10
REMARK    6  A    between atoms: C_10  and  C_11
REMARK                            x       y       z     vdW  Elec       q    Type
REMARK                         _______ _______ _______ _____ _____    ______ ____
ROOT
ATOM      1  C   UNL     1       9.153  -4.173  24.834  0.00  0.00    +0.042 A 
ATOM      2  C   UNL     1       9.817  -3.018  24.374  0.00  0.00    +0.143 A 
ATOM      3  N   UNL     1       9.018  -2.168  23.723  0.00  0.00    -0.171 NA
ATOM      4  N   UNL     1       7.800  -2.781  23.744  0.00  0.00    -0.200 N 
ATOM      5  C   UNL     1       6.588  -2.291  23.199  0.00  0.00    +0.125 A 
ATOM      6  C   UNL     1       5.489  -3.056  23.300  0.00  0.00    +0.072 A 
ATOM      7  C   UNL     1       5.648  -4.393  23.962  0.00  0.00    +0.077 A 
ATOM      8  N   UNL     1       6.757  -4.829  24.497  0.00  0.00    -0.227 NA
ATOM      9  C   UNL     1       7.854  -4.019  24.389  0.00  0.00    +0.163 A 
ENDROOT
BRANCH   7  10
ATOM     10  C   UNL     1       4.432  -5.267  23.994  0.00  0.00    +0.001 A 
ATOM     11  C   UNL     1       3.240  -4.894  23.361  0.00  0.00    +0.010 A 
ATOM     12  C   UNL     1       2.134  -5.747  23.377  0.00  0.00    +0.001 A 
ATOM     13  C   UNL     1       2.214  -6.982  24.015  0.00  0.00    +0.000 A 
ATOM     14  C   UNL     1       3.400  -7.368  24.640  0.00  0.00    +0.001 A 
ATOM     15  C   UNL     1       4.507  -6.516  24.629  0.00  0.00    +0.010 A 
ENDBRANCH   7  10
BRANCH   5  16
ATOM     16  N   UNL     1       6.571  -1.013  22.610  0.00  0.00    -0.325 N 
ATOM     17  H   UNL     1       5.682  -0.946  22.098  0.00  0.00    +0.148 HD
BRANCH  16  18
ATOM     18  C   UNL     1       6.634   0.173  23.472  0.00  0.00    +0.139 C 
BRANCH  18  19
ATOM     19  C   UNL     1       7.926   0.910  23.264  0.00  0.00    -0.012 A 
ATOM     20  C   UNL     1       8.529   1.011  22.007  0.00  0.00    +0.008 A 
ATOM     21  C   UNL     1       9.712   1.732  21.861  0.00  0.00    +0.020 A 
ATOM     22  C   UNL     1      10.263   2.323  22.986  0.00  0.00    +0.111 A 
ATOM     23  N   UNL     1       9.721   2.237  24.220  0.00  0.00    -0.263 NA
ATOM     24  C   UNL     1       8.571   1.530  24.329  0.00  0.00    +0.115 A 
ENDBRANCH  18  19
ENDBRANCH  16  18
ENDBRANCH   5  16
BRANCH   1  25
ATOM     25  C   UNL     1       9.706  -5.306  25.611  0.00  0.00    +0.196 C 
BRANCH  25  26
ATOM     26  O   UNL     1       8.693  -6.008  26.328  0.00  0.00    -0.390 OA
ATOM     27  H   UNL     1       8.059  -5.336  26.631  0.00  0.00    +0.210 HD
ENDBRANCH  25  26
ENDBRANCH   1  25
TORSDOF 6
ENDMDL
MODEL 4
REMARK VINA RESULT:      -6.5      4.172      8.106
REMARK  Name = 
REMARK  6 active torsions:
REMARK  status: ('A' for Active; 'I' for Inactive)
REMARK    1  A    between atoms: O_1  and  C_2
REMARK    2  A    between atoms: C_2  and  C_3
REMARK    3  A    between atoms: C_6  and  C_20
REMARK    4  A    between atoms: C_8  and  N_9
REMARK    5  A    between atoms: N_9  and  C_10
REMARK    6  A    between atoms: C_10  and  C_11
REMARK                            x       y       z     vdW  Elec       q    Type
REMARK                         _______ _______ _______ _____ _____    ______ ____
ROOT
ATOM      1  C   UNL     1       9.038   0.228  22.128  0.00  0.00    +0.042 A 
ATOM      2  C   UNL     1       9.476  -1.029  21.662  0.00  0.00    +0.143 A 
ATOM      3  N   UNL     1       9.345  -2.006  22.563  0.00  0.00    -0.171 NA
ATOM      4  N   UNL     1       8.820  -1.378  23.654  0.00  0.00    -0.200 N 
ATOM      5  C   UNL     1       8.472  -1.969  24.893  0.00  0.00    +0.125 A 
ATOM      6  C   UNL     1       7.987  -1.176  25.863  0.00  0.00    +0.072 A 
ATOM      7  C   UNL     1       7.883   0.289  25.556  0.00  0.00    +0.077 A 
ATOM      8  N   UNL     1       8.169   0.828  24.401  0.00  0.00    -0.227 NA
ATOM      9  C   UNL     1       8.648  -0.010  23.431  0.00  0.00    +0.163 A 
ENDROOT
BRANCH   7  10
ATOM     10  C   UNL     1       7.416   1.170  26.674  0.00  0.00    +0.001 A 
ATOM     11  C   UNL     1       7.177   0.665  27.959  0.00  0.00    +0.010 A 
ATOM     12  C   UNL     1       6.778   1.519  28.990  0.00  0.00    +0.001 A 
ATOM     13  C   UNL     1       6.626   2.882  28.749  0.00  0.00    +0.000 A 
ATOM     14  C   UNL     1       6.870   3.396  27.476  0.00  0.00    +0.001 A 
ATOM     15  C   UNL     1       7.267   2.545  26.441  0.00  0.00    +0.010 A 
ENDBRANCH   7  10
BRANCH   5  16
ATOM     16  N   UNL     1       8.610  -3.361  25.050  0.00  0.00    -0.325 N 
ATOM     17  H   UNL     1       9.068  -3.501  25.960  0.00  0.00    +0.148 HD
BRANCH  16  18
ATOM     18  C   UNL     1       7.407  -4.201  25.065  0.00  0.00    +0.139 C 
BRANCH  18  19
ATOM     19  C   UNL     1       6.979  -4.536  23.665  0.00  0.00    -0.012 A 
ATOM     20  C   UNL     1       7.582  -5.560  22.929  0.00  0.00    +0.008 A 
ATOM     21  C   UNL     1       7.128  -5.851  21.645  0.00  0.00    +0.020 A 
ATOM     22  C   UNL     1       6.086  -5.097  21.130  0.00  0.00    +0.111 A 
ATOM     23  N   UNL     1       5.487  -4.090  21.801  0.00  0.00    -0.263 NA
ATOM     24  C   UNL     1       5.951  -3.832  23.047  0.00  0.00    +0.115 A 
ENDBRANCH  18  19
ENDBRANCH  16  18
ENDBRANCH   5  16
BRANCH   1  25
ATOM     25  C   UNL     1       9.005   1.518  21.403  0.00  0.00    +0.196 C 
BRANCH  25  26
ATOM     26  O   UNL     1      10.226   2.242  21.544  0.00  0.00    -0.390 OA
ATOM     27  H   UNL     1      10.147   2.752  22.368  0.00  0.00    +0.210 HD
ENDBRANCH  25  26
ENDBRANCH   1  25
TORSDOF 6
ENDMDL
MODEL 5
REMARK VINA RESULT:      -6.5      2.161      7.233
REMARK  Name = 
REMARK  6 active torsions:
REMARK  status: ('A' for Active; 'I' for Inactive)
REMARK    1  A    between atoms: O_1  and  C_2
REMARK    2  A    between atoms: C_2  and  C_3
REMARK    3  A    between atoms: C_6  and  C_20
REMARK    4  A    between atoms: C_8  and  N_9
REMARK    5  A    between atoms: N_9  and  C_10
REMARK    6  A    between atoms: C_10  and  C_11
REMARK                            x       y       z     vdW  Elec       q    Type
REMARK                         _______ _______ _______ _____ _____    ______ ____
ROOT
ATOM      1  C   UNL     1       8.296  -4.809  25.963  0.00  0.00    +0.042 A 
ATOM      2  C   UNL     1       7.247  -5.611  26.458  0.00  0.00    +0.143 A 
ATOM      3  N   UNL     1       6.051  -5.296  25.952  0.00  0.00    -0.171 NA
ATOM      4  N   UNL     1       6.314  -4.254  25.113  0.00  0.00    -0.200 N 
ATOM      5  C   UNL     1       5.385  -3.551  24.308  0.00  0.00    +0.125 A 
ATOM      6  C   UNL     1       5.834  -2.531  23.559  0.00  0.00    +0.072 A 
ATOM      7  C   UNL     1       7.294  -2.201  23.663  0.00  0.00    +0.077 A 
ATOM      8  N   UNL     1       8.158  -2.872  24.377  0.00  0.00    -0.227 NA
ATOM      9  C   UNL     1       7.669  -3.914  25.117  0.00  0.00    +0.163 A 
ENDROOT
BRANCH   7  10
ATOM     10  C   UNL     1       7.763  -1.011  22.884  0.00  0.00    +0.001 A 
ATOM     11  C   UNL     1       7.112   0.227  22.966  0.00  0.00    +0.010 A 
ATOM     12  C   UNL     1       7.595   1.327  22.256  0.00  0.00    +0.001 A 
ATOM     13  C   UNL     1       8.737   1.204  21.468  0.00  0.00    +0.000 A 
ATOM     14  C   UNL     1       9.399  -0.021  21.387  0.00  0.00    +0.001 A 
ATOM     15  C   UNL     1       8.916  -1.126  22.094  0.00  0.00    +0.010 A 
ENDBRANCH   7  10
BRANCH   5  16
ATOM     16  N   UNL     1       4.040  -3.968  24.293  0.00  0.00    -0.325 N 
ATOM     17  H   UNL     1       3.475  -3.111  24.324  0.00  0.00    +0.148 HD
BRANCH  16  18
ATOM     18  C   UNL     1       3.545  -4.742  23.148  0.00  0.00    +0.139 C 
BRANCH  18  19
ATOM     19  C   UNL     1       2.914  -6.025  23.609  0.00  0.00    -0.012 A 
ATOM     20  C   UNL     1       1.557  -6.297  23.414  0.00  0.00    +0.008 A 
ATOM     21  C   UNL     1       1.027  -7.514  23.833  0.00  0.00    +0.020 A 
ATOM     22  C   UNL     1       1.874  -8.422  24.449  0.00  0.00    +0.111 A 
ATOM     23  N   UNL     1       3.185  -8.192  24.670  0.00  0.00    -0.263 NA
ATOM     24  C   UNL     1       3.671  -7.000  24.250  0.00  0.00    +0.115 A 
ENDBRANCH  18  19
ENDBRANCH  16  18
ENDBRANCH   5  16
BRANCH   1  25
ATOM     25  C   UNL     1       9.741  -4.889  26.273  0.00  0.00    +0.196 C 
BRANCH  25  26
ATOM     26  O   UNL     1      10.518  -5.197  25.118  0.00  0.00    -0.390 OA
ATOM     27  H   UNL     1      11.268  -4.579  25.120  0.00  0.00    +0.210 HD
ENDBRANCH  25  26
ENDBRANCH   1  25
TORSDOF 6
ENDMDL
MODEL 6
REMARK VINA RESULT:      -6.3      2.894      7.290
REMARK  Name = 
REMARK  6 active torsions:
REMARK  status: ('A' for Active; 'I' for Inactive)
REMARK    1  A    between atoms: O_1  and  C_2
REMARK    2  A    between atoms: C_2  and  C_3
REMARK    3  A    between atoms: C_6  and  C_20
REMARK    4  A    between atoms: C_8  and  N_9
REMARK    5  A    between atoms: N_9  and  C_10
REMARK    6  A    between atoms: C_10  and  C_11
REMARK                            x       y       z     vdW  Elec       q    Type
REMARK                         _______ _______ _______ _____ _____    ______ ____
ROOT
ATOM      1  C   UNL     1       5.687  -5.385  22.426  0.00  0.00    +0.042 A 
ATOM      2  C   UNL     1       4.876  -5.965  23.424  0.00  0.00    +0.143 A 
ATOM      3  N   UNL     1       4.601  -5.136  24.434  0.00  0.00    -0.171 NA
ATOM      4  N   UNL     1       5.254  -3.986  24.103  0.00  0.00    -0.200 N 
ATOM      5  C   UNL     1       5.277  -2.775  24.837  0.00  0.00    +0.125 A 
ATOM      6  C   UNL     1       6.002  -1.752  24.356  0.00  0.00    +0.072 A 
ATOM      7  C   UNL     1       6.759  -1.992  23.083  0.00  0.00    +0.077 A 
ATOM      8  N   UNL     1       6.708  -3.096  22.387  0.00  0.00    -0.227 NA
ATOM      9  C   UNL     1       5.949  -4.114  22.898  0.00  0.00    +0.163 A 
ENDROOT
BRANCH   7  10
ATOM     10  C   UNL     1       7.626  -0.869  22.603  0.00  0.00    +0.001 A 
ATOM     11  C   UNL     1       7.228   0.469  22.720  0.00  0.00    +0.010 A 
ATOM     12  C   UNL     1       8.074   1.497  22.297  0.00  0.00    +0.001 A 
ATOM     13  C   UNL     1       9.326   1.197  21.766  0.00  0.00    +0.000 A 
ATOM     14  C   UNL     1       9.735  -0.132  21.654  0.00  0.00    +0.001 A 
ATOM     15  C   UNL     1       8.890  -1.163  22.073  0.00  0.00    +0.010 A 
ENDBRANCH   7  10
BRANCH   5  16
ATOM     16  N   UNL     1       4.514  -2.676  26.016  0.00  0.00    -0.325 N 
ATOM     17  H   UNL     1       3.958  -3.538  26.070  0.00  0.00    +0.148 HD
BRANCH  16  18
ATOM     18  C   UNL     1       5.203  -2.553  27.305  0.00  0.00    +0.139 C 
BRANCH  18  19
ATOM     19  C   UNL     1       5.478  -3.909  27.890  0.00  0.00    -0.012 A 
ATOM     20  C   UNL     1       4.603  -4.519  28.794  0.00  0.00    +0.008 A 
ATOM     21  C   UNL     1       4.888  -5.791  29.284  0.00  0.00    +0.020 A 
ATOM     22  C   UNL     1       6.051  -6.412  28.861  0.00  0.00    +0.111 A 
ATOM     23  N   UNL     1       6.930  -5.852  28.002  0.00  0.00    -0.263 NA
ATOM     24  C   UNL     1       6.624  -4.615  27.543  0.00  0.00    +0.115 A 
ENDBRANCH  18  19
ENDBRANCH  16  18
ENDBRANCH   5  16
BRANCH   1  25
ATOM     25  C   UNL     1       6.163  -5.989  21.161  0.00  0.00    +0.196 C 
BRANCH  25  26
ATOM     26  O   UNL     1       5.936  -5.134  20.043  0.00  0.00    -0.390 OA
ATOM     27  H   UNL     1       6.632  -5.339  19.397  0.00  0.00    +0.210 HD
ENDBRANCH  25  26
ENDBRANCH   1  25
TORSDOF 6
ENDMDL
MODEL 7
REMARK VINA RESULT:      -6.3      3.222      5.328
REMARK  Name = 
REMARK  6 active torsions:
REMARK  status: ('A' for Active; 'I' for Inactive)
REMARK    1  A    between atoms: O_1  and  C_2
REMARK    2  A    between atoms: C_2  and  C_3
REMARK    3  A    between atoms: C_6  and  C_20
REMARK    4  A    between atoms: C_8  and  N_9
REMARK    5  A    between atoms: N_9  and  C_10
REMARK    6  A    between atoms: C_10  and  C_11
REMARK                            x       y       z     vdW  Elec       q    Type
REMARK                         _______ _______ _______ _____ _____    ______ ____
ROOT
ATOM      1  C   UNL     1       5.141  -5.215  22.693  0.00  0.00    +0.042 A 
ATOM      2  C   UNL     1       6.106  -5.540  21.718  0.00  0.00    +0.143 A 
ATOM      3  N   UNL     1       7.106  -4.657  21.644  0.00  0.00    -0.171 NA
ATOM      4  N   UNL     1       6.789  -3.722  22.584  0.00  0.00    -0.200 N 
ATOM      5  C   UNL     1       7.535  -2.567  22.924  0.00  0.00    +0.125 A 
ATOM      6  C   UNL     1       7.044  -1.747  23.868  0.00  0.00    +0.072 A 
ATOM      7  C   UNL     1       5.717  -2.113  24.465  0.00  0.00    +0.077 A 
ATOM      8  N   UNL     1       5.047  -3.197  24.177  0.00  0.00    -0.227 NA
ATOM      9  C   UNL     1       5.583  -4.017  23.222  0.00  0.00    +0.163 A 
ENDROOT
BRANCH   7  10
ATOM     10  C   UNL     1       5.146  -1.146  25.457  0.00  0.00    +0.001 A 
ATOM     11  C   UNL     1       4.286  -1.564  26.480  0.00  0.00    +0.010 A 
ATOM     12  C   UNL     1       3.799  -0.645  27.412  0.00  0.00    +0.001 A 
ATOM     13  C   UNL     1       4.175   0.694  27.336  0.00  0.00    +0.000 A 
ATOM     14  C   UNL     1       5.038   1.118  26.326  0.00  0.00    +0.001 A 
ATOM     15  C   UNL     1       5.525   0.203  25.389  0.00  0.00    +0.010 A 
ENDBRANCH   7  10
BRANCH   5  16
ATOM     16  N   UNL     1       8.774  -2.343  22.294  0.00  0.00    -0.325 N 
ATOM     17  H   UNL     1       8.616  -1.589  21.614  0.00  0.00    +0.148 HD
BRANCH  16  18
ATOM     18  C   UNL     1       9.923  -1.926  23.106  0.00  0.00    +0.139 C 
BRANCH  18  19
ATOM     19  C   UNL     1      10.093  -0.434  23.056  0.00  0.00    -0.012 A 
ATOM     20  C   UNL     1       9.786   0.310  21.914  0.00  0.00    +0.008 A 
ATOM     21  C   UNL     1       9.932   1.695  21.928  0.00  0.00    +0.020 A 
ATOM     22  C   UNL     1      10.394   2.294  23.089  0.00  0.00    +0.111 A 
ATOM     23  N   UNL     1      10.716   1.611  24.208  0.00  0.00    -0.263 NA
ATOM     24  C   UNL     1      10.562   0.266  24.162  0.00  0.00    +0.115 A 
ENDBRANCH  18  19
ENDBRANCH  16  18
ENDBRANCH   5  16
BRANCH   1  25
ATOM     25  C   UNL     1       3.925  -5.969  23.072  0.00  0.00    +0.196 C 
BRANCH  25  26
ATOM     26  O   UNL     1       2.753  -5.159  23.010  0.00  0.00    -0.390 OA
ATOM     27  H   UNL     1       2.080  -5.611  23.546  0.00  0.00    +0.210 HD
ENDBRANCH  25  26
ENDBRANCH   1  25
TORSDOF 6
ENDMDL
MODEL 8
REMARK VINA RESULT:      -6.2      2.532      4.749
REMARK  Name = 
REMARK  6 active torsions:
REMARK  status: ('A' for Active; 'I' for Inactive)
REMARK    1  A    between atoms: O_1  and  C_2
REMARK    2  A    between atoms: C_2  and  C_3
REMARK    3  A    between atoms: C_6  and  C_20
REMARK    4  A    between atoms: C_8  and  N_9
REMARK    5  A    between atoms: N_9  and  C_10
REMARK    6  A    between atoms: C_10  and  C_11
REMARK                            x       y       z     vdW  Elec       q    Type
REMARK                         _______ _______ _______ _____ _____    ______ ____
ROOT
ATOM      1  C   UNL     1       6.250  -5.044  22.739  0.00  0.00    +0.042 A 
ATOM      2  C   UNL     1       7.053  -4.209  21.935  0.00  0.00    +0.143 A 
ATOM      3  N   UNL     1       7.832  -3.383  22.638  0.00  0.00    -0.171 NA
ATOM      4  N   UNL     1       7.530  -3.671  23.936  0.00  0.00    -0.200 N 
ATOM      5  C   UNL     1       8.093  -3.082  25.094  0.00  0.00    +0.125 A 
ATOM      6  C   UNL     1       7.646  -3.484  26.295  0.00  0.00    +0.072 A 
ATOM      7  C   UNL     1       6.554  -4.513  26.305  0.00  0.00    +0.077 A 
ATOM      8  N   UNL     1       6.061  -5.083  25.239  0.00  0.00    -0.227 NA
ATOM      9  C   UNL     1       6.548  -4.660  24.032  0.00  0.00    +0.163 A 
ENDROOT
BRANCH   7  10
ATOM     10  C   UNL     1       6.011  -4.892  27.649  0.00  0.00    +0.001 A 
ATOM     11  C   UNL     1       6.510  -5.990  28.362  0.00  0.00    +0.010 A 
ATOM     12  C   UNL     1       6.009  -6.296  29.629  0.00  0.00    +0.001 A 
ATOM     13  C   UNL     1       5.016  -5.502  30.198  0.00  0.00    +0.000 A 
ATOM     14  C   UNL     1       4.519  -4.401  29.500  0.00  0.00    +0.001 A 
ATOM     15  C   UNL     1       5.015  -4.094  28.231  0.00  0.00    +0.010 A 
ENDBRANCH   7  10
BRANCH   5  16
ATOM     16  N   UNL     1       9.121  -2.131  24.947  0.00  0.00    -0.325 N 
ATOM     17  H   UNL     1       9.385  -2.147  23.954  0.00  0.00    +0.148 HD
BRANCH  16  18
ATOM     18  C   UNL     1       8.847  -0.726  25.273  0.00  0.00    +0.139 C 
BRANCH  18  19
ATOM     19  C   UNL     1       9.315   0.175  24.166  0.00  0.00    -0.012 A 
ATOM     20  C   UNL     1       9.333  -0.237  22.831  0.00  0.00    +0.008 A 
ATOM     21  C   UNL     1       9.749   0.647  21.838  0.00  0.00    +0.020 A 
ATOM     22  C   UNL     1      10.146   1.919  22.217  0.00  0.00    +0.111 A 
ATOM     23  N   UNL     1      10.159   2.351  23.495  0.00  0.00    -0.263 NA
ATOM     24  C   UNL     1       9.749   1.468  24.437  0.00  0.00    +0.115 A 
ENDBRANCH  18  19
ENDBRANCH  16  18
ENDBRANCH   5  16
BRANCH   1  25
ATOM     25  C   UNL     1       5.297  -6.094  22.313  0.00  0.00    +0.196 C 
BRANCH  25  26
ATOM     26  O   UNL     1       4.933  -6.954  23.389  0.00  0.00    -0.390 OA
ATOM     27  H   UNL     1       5.178  -6.488  24.206  0.00  0.00    +0.210 HD
ENDBRANCH  25  26
ENDBRANCH   1  25
TORSDOF 6
ENDMDL
MODEL 9
REMARK VINA RESULT:      -6.2      3.284      4.740
REMARK  Name = 
REMARK  6 active torsions:
REMARK  status: ('A' for Active; 'I' for Inactive)
REMARK    1  A    between atoms: O_1  and  C_2
REMARK    2  A    between atoms: C_2  and  C_3
REMARK    3  A    between atoms: C_6  and  C_20
REMARK    4  A    between atoms: C_8  and  N_9
REMARK    5  A    between atoms: N_9  and  C_10
REMARK    6  A    between atoms: C_10  and  C_11
REMARK                            x       y       z     vdW  Elec       q    Type
REMARK                         _______ _______ _______ _____ _____    ______ ____
ROOT
ATOM      1  C   UNL     1       6.123  -0.625  26.788  0.00  0.00    +0.042 A 
ATOM      2  C   UNL     1       7.137   0.269  27.191  0.00  0.00    +0.143 A 
ATOM      3  N   UNL     1       8.266   0.145  26.489  0.00  0.00    -0.171 NA
ATOM      4  N   UNL     1       7.996  -0.862  25.609  0.00  0.00    -0.200 N 
ATOM      5  C   UNL     1       8.863  -1.383  24.617  0.00  0.00    +0.125 A 
ATOM      6  C   UNL     1       8.421  -2.398  23.856  0.00  0.00    +0.072 A 
ATOM      7  C   UNL     1       7.045  -2.918  24.146  0.00  0.00    +0.077 A 
ATOM      8  N   UNL     1       6.232  -2.413  25.035  0.00  0.00    -0.227 NA
ATOM      9  C   UNL     1       6.708  -1.372  25.784  0.00  0.00    +0.163 A 
ENDROOT
BRANCH   7  10
ATOM     10  C   UNL     1       6.599  -4.102  23.343  0.00  0.00    +0.001 A 
ATOM     11  C   UNL     1       5.265  -4.530  23.341  0.00  0.00    +0.010 A 
ATOM     12  C   UNL     1       4.873  -5.614  22.553  0.00  0.00    +0.001 A 
ATOM     13  C   UNL     1       5.806  -6.271  21.754  0.00  0.00    +0.000 A 
ATOM     14  C   UNL     1       7.135  -5.847  21.742  0.00  0.00    +0.001 A 
ATOM     15  C   UNL     1       7.532  -4.764  22.531  0.00  0.00    +0.010 A 
ENDBRANCH   7  10
BRANCH   5  16
ATOM     16  N   UNL     1      10.130  -0.798  24.440  0.00  0.00    -0.325 N 
ATOM     17  H   UNL     1      10.816  -1.548  24.595  0.00  0.00    +0.148 HD
BRANCH  16  18
ATOM     18  C   UNL     1      10.467  -0.200  23.142  0.00  0.00    +0.139 C 
BRANCH  18  19
ATOM     19  C   UNL     1       9.581   0.979  22.857  0.00  0.00    -0.012 A 
ATOM     20  C   UNL     1       8.693   0.996  21.777  0.00  0.00    +0.008 A 
ATOM     21  C   UNL     1       7.871   2.102  21.574  0.00  0.00    +0.020 A 
ATOM     22  C   UNL     1       7.972   3.166  22.454  0.00  0.00    +0.111 A 
ATOM     23  N   UNL     1       8.827   3.196  23.499  0.00  0.00    -0.263 NA
ATOM     24  C   UNL     1       9.612   2.106  23.671  0.00  0.00    +0.115 A 
ENDBRANCH  18  19
ENDBRANCH  16  18
ENDBRANCH   5  16
BRANCH   1  25
ATOM     25  C   UNL     1       4.745  -0.751  27.314  0.00  0.00    +0.196 C 
BRANCH  25  26
ATOM     26  O   UNL     1       3.822  -1.151  26.303  0.00  0.00    -0.390 OA
ATOM     27  H   UNL     1       3.485  -0.332  25.903  0.00  0.00    +0.210 HD
ENDBRANCH  25  26
ENDBRANCH   1  25
TORSDOF 6
ENDMDL
