MODEL 1
REMARK VINA RESULT:      -3.6      0.000      0.000
REMARK  Name = 
REMARK  2 active torsions:
REMARK  status: ('A' for Active; 'I' for Inactive)
REMARK    1  A    between atoms: O_1  and  C_2
REMARK    2  A    between atoms: C_8  and  O_10
REMARK                            x       y       z     vdW  Elec       q    Type
REMARK                         _______ _______ _______ _____ _____    ______ ____
ROOT
ATOM      1  C   UNL     1       9.727   0.654  21.663  0.00  0.00    +0.154 C 
ATOM      2  C   UNL     1       9.314  -0.833  21.626  0.00  0.00    +0.154 C 
ATOM      3  C   UNL     1       8.129  -1.198  22.539  0.00  0.00    +0.115 C 
ATOM      4  S   UNL     1       8.508  -0.932  24.298  0.00  0.00    -0.090 S 
ATOM      5  S   UNL     1       8.869   1.083  24.286  0.00  0.00    -0.090 S 
ATOM      6  C   UNL     1      10.193   1.161  23.040  0.00  0.00    +0.115 C 
ENDROOT
BRANCH   1   7
ATOM      7  O   UNL     1       8.658   1.453  21.138  0.00  0.00    -0.388 OA
ATOM      8  H   UNL     1       7.904   0.865  20.962  0.00  0.00    +0.210 HD
ENDBRANCH   1   7
BRANCH   2   9
ATOM      9  O   UNL     1      10.462  -1.648  21.897  0.00  0.00    -0.388 OA
ATOM     10  H   UNL     1      10.287  -2.152  22.712  0.00  0.00    +0.210 HD
ENDBRANCH   2   9
TORSDOF 2
ENDMDL
MODEL 2
REMARK VINA RESULT:      -3.6      2.233      3.066
REMARK  Name = 
REMARK  2 active torsions:
REMARK  status: ('A' for Active; 'I' for Inactive)
REMARK    1  A    between atoms: O_1  and  C_2
REMARK    2  A    between atoms: C_8  and  O_10
REMARK                            x       y       z     vdW  Elec       q    Type
REMARK                         _______ _______ _______ _____ _____    ______ ____
ROOT
ATOM      1  C   UNL     1       9.303   2.115  22.694  0.00  0.00    +0.154 C 
ATOM      2  C   UNL     1       9.987   1.982  24.070  0.00  0.00    +0.154 C 
ATOM      3  C   UNL     1      10.877   0.736  24.234  0.00  0.00    +0.115 C 
ATOM      4  S   UNL     1       9.926  -0.810  24.109  0.00  0.00    -0.090 S 
ATOM      5  S   UNL     1       9.203  -0.633  22.202  0.00  0.00    -0.090 S 
ATOM      6  C   UNL     1       8.343   0.965  22.334  0.00  0.00    +0.115 C 
ENDROOT
BRANCH   1   7
ATOM      7  O   UNL     1      10.305   2.302  21.685  0.00  0.00    -0.388 OA
ATOM      8  H   UNL     1      10.105   3.129  21.214  0.00  0.00    +0.210 HD
ENDBRANCH   1   7
BRANCH   2   9
ATOM      9  O   UNL     1       8.992   2.061  25.100  0.00  0.00    -0.388 OA
ATOM     10  H   UNL     1       8.143   2.292  24.681  0.00  0.00    +0.210 HD
ENDBRANCH   2   9
TORSDOF 2
ENDMDL
MODEL 3
REMARK VINA RESULT:      -3.6      0.051      2.743
REMARK  Name = 
REMARK  2 active torsions:
REMARK  status: ('A' for Active; 'I' for Inactive)
REMARK    1  A    between atoms: O_1  and  C_2
REMARK    2  A    between atoms: C_8  and  O_10
REMARK                            x       y       z     vdW  Elec       q    Type
REMARK                         _______ _______ _______ _____ _____    ______ ____
ROOT
ATOM      1  C   UNL     1       9.300  -0.786  21.612  0.00  0.00    +0.154 C 
ATOM      2  C   UNL     1       9.735   0.693  21.677  0.00  0.00    +0.154 C 
ATOM      3  C   UNL     1      10.224   1.163  23.059  0.00  0.00    +0.115 C 
ATOM      4  S   UNL     1       8.915   1.075  24.320  0.00  0.00    -0.090 S 
ATOM      5  S   UNL     1       8.525  -0.934  24.291  0.00  0.00    -0.090 S 
ATOM      6  C   UNL     1       8.121  -1.155  22.530  0.00  0.00    +0.115 C 
ENDROOT
BRANCH   1   7
ATOM      7  O   UNL     1      10.440  -1.624  21.852  0.00  0.00    -0.388 OA
ATOM      8  H   UNL     1      10.236  -2.197  22.610  0.00  0.00    +0.210 HD
ENDBRANCH   1   7
BRANCH   2   9
ATOM      9  O   UNL     1       8.672   1.518  21.182  0.00  0.00    -0.388 OA
ATOM     10  H   UNL     1       7.976   1.552  21.863  0.00  0.00    +0.210 HD
ENDBRANCH   2   9
TORSDOF 2
ENDMDL
MODEL 4
REMARK VINA RESULT:      -3.6      2.230      2.868
REMARK  Name = 
REMARK  2 active torsions:
REMARK  status: ('A' for Active; 'I' for Inactive)
REMARK    1  A    between atoms: O_1  and  C_2
REMARK    2  A    between atoms: C_8  and  O_10
REMARK                            x       y       z     vdW  Elec       q    Type
REMARK                         _______ _______ _______ _____ _____    ______ ____
ROOT
ATOM      1  C   UNL     1       9.986   1.963  24.075  0.00  0.00    +0.154 C 
ATOM      2  C   UNL     1       9.298   2.104  22.701  0.00  0.00    +0.154 C 
ATOM      3  C   UNL     1       8.335   0.959  22.338  0.00  0.00    +0.115 C 
ATOM      4  S   UNL     1       9.189  -0.641  22.195  0.00  0.00    -0.090 S 
ATOM      5  S   UNL     1       9.917  -0.830  24.099  0.00  0.00    -0.090 S 
ATOM      6  C   UNL     1      10.873   0.714  24.229  0.00  0.00    +0.115 C 
ENDROOT
BRANCH   1   7
ATOM      7  O   UNL     1       8.994   2.038  25.109  0.00  0.00    -0.388 OA
ATOM      8  H   UNL     1       8.138   1.785  24.721  0.00  0.00    +0.210 HD
ENDBRANCH   1   7
BRANCH   2   9
ATOM      9  O   UNL     1      10.299   2.294  21.691  0.00  0.00    -0.388 OA
ATOM     10  H   UNL     1      10.319   1.495  21.135  0.00  0.00    +0.210 HD
ENDBRANCH   2   9
TORSDOF 2
ENDMDL
MODEL 5
REMARK VINA RESULT:      -3.5      1.878      2.635
REMARK  Name = 
REMARK  2 active torsions:
REMARK  status: ('A' for Active; 'I' for Inactive)
REMARK    1  A    between atoms: O_1  and  C_2
REMARK    2  A    between atoms: C_8  and  O_10
REMARK                            x       y       z     vdW  Elec       q    Type
REMARK                         _______ _______ _______ _____ _____    ______ ____
ROOT
ATOM      1  C   UNL     1       8.797   1.224  21.518  0.00  0.00    +0.154 C 
ATOM      2  C   UNL     1       7.795   1.626  22.620  0.00  0.00    +0.154 C 
ATOM      3  C   UNL     1       8.341   1.532  24.057  0.00  0.00    +0.115 C 
ATOM      4  S   UNL     1       8.779  -0.173  24.517  0.00  0.00    -0.090 S 
ATOM      5  S   UNL     1      10.228  -0.559  23.123  0.00  0.00    -0.090 S 
ATOM      6  C   UNL     1       9.295  -0.231  21.595  0.00  0.00    +0.115 C 
ENDROOT
BRANCH   1   7
ATOM      7  O   UNL     1       9.887   2.156  21.509  0.00  0.00    -0.388 OA
ATOM      8  H   UNL     1      10.196   2.247  20.591  0.00  0.00    +0.210 HD
ENDBRANCH   1   7
BRANCH   2   9
ATOM      9  O   UNL     1       6.590   0.865  22.461  0.00  0.00    -0.388 OA
ATOM     10  H   UNL     1       6.839  -0.047  22.226  0.00  0.00    +0.210 HD
ENDBRANCH   2   9
TORSDOF 2
ENDMDL
MODEL 6
REMARK VINA RESULT:      -3.5      1.879      2.382
REMARK  Name = 
REMARK  2 active torsions:
REMARK  status: ('A' for Active; 'I' for Inactive)
REMARK    1  A    between atoms: O_1  and  C_2
REMARK    2  A    between atoms: C_8  and  O_10
REMARK                            x       y       z     vdW  Elec       q    Type
REMARK                         _______ _______ _______ _____ _____    ______ ____
ROOT
ATOM      1  C   UNL     1       7.786   1.636  22.611  0.00  0.00    +0.154 C 
ATOM      2  C   UNL     1       8.793   1.226  21.515  0.00  0.00    +0.154 C 
ATOM      3  C   UNL     1       9.298  -0.226  21.611  0.00  0.00    +0.115 C 
ATOM      4  S   UNL     1      10.228  -0.532  23.144  0.00  0.00    -0.090 S 
ATOM      5  S   UNL     1       8.774  -0.136  24.530  0.00  0.00    -0.090 S 
ATOM      6  C   UNL     1       8.329   1.561  24.049  0.00  0.00    +0.115 C 
ENDROOT
BRANCH   1   7
ATOM      7  O   UNL     1       6.585   0.867  22.458  0.00  0.00    -0.388 OA
ATOM      8  H   UNL     1       6.491   0.643  21.516  0.00  0.00    +0.210 HD
ENDBRANCH   1   7
BRANCH   2   9
ATOM      9  O   UNL     1       9.878   2.163  21.498  0.00  0.00    -0.388 OA
ATOM     10  H   UNL     1       9.585   2.953  21.009  0.00  0.00    +0.210 HD
ENDBRANCH   2   9
TORSDOF 2
ENDMDL
MODEL 7
REMARK VINA RESULT:      -3.4      2.089      3.143
REMARK  Name = 
REMARK  2 active torsions:
REMARK  status: ('A' for Active; 'I' for Inactive)
REMARK    1  A    between atoms: O_1  and  C_2
REMARK    2  A    between atoms: C_8  and  O_10
REMARK                            x       y       z     vdW  Elec       q    Type
REMARK                         _______ _______ _______ _____ _____    ______ ____
ROOT
ATOM      1  C   UNL     1      10.513   0.853  23.632  0.00  0.00    +0.154 C 
ATOM      2  C   UNL     1       9.960   2.171  23.052  0.00  0.00    +0.154 C 
ATOM      3  C   UNL     1       8.470   2.432  23.342  0.00  0.00    +0.115 C 
ATOM      4  S   UNL     1       7.391   1.178  22.584  0.00  0.00    -0.090 S 
ATOM      5  S   UNL     1       8.072  -0.503  23.535  0.00  0.00    -0.090 S 
ATOM      6  C   UNL     1       9.837  -0.423  23.097  0.00  0.00    +0.115 C 
ENDROOT
BRANCH   1   7
ATOM      7  O   UNL     1      10.470   0.913  25.065  0.00  0.00    -0.388 OA
ATOM      8  H   UNL     1      10.662   0.023  25.408  0.00  0.00    +0.210 HD
ENDBRANCH   1   7
BRANCH   2   9
ATOM      9  O   UNL     1      10.242   2.223  21.647  0.00  0.00    -0.388 OA
ATOM     10  H   UNL     1      11.161   2.526  21.537  0.00  0.00    +0.210 HD
ENDBRANCH   2   9
TORSDOF 2
ENDMDL
MODEL 8
REMARK VINA RESULT:      -3.3      5.022      6.045
REMARK  Name = 
REMARK  2 active torsions:
REMARK  status: ('A' for Active; 'I' for Inactive)
REMARK    1  A    between atoms: O_1  and  C_2
REMARK    2  A    between atoms: C_8  and  O_10
REMARK                            x       y       z     vdW  Elec       q    Type
REMARK                         _______ _______ _______ _____ _____    ______ ____
ROOT
ATOM      1  C   UNL     1       8.066  -5.200  26.197  0.00  0.00    +0.154 C 
ATOM      2  C   UNL     1       9.351  -4.835  25.424  0.00  0.00    +0.154 C 
ATOM      3  C   UNL     1       9.298  -3.490  24.677  0.00  0.00    +0.115 C 
ATOM      4  S   UNL     1       8.029  -3.475  23.373  0.00  0.00    -0.090 S 
ATOM      5  S   UNL     1       6.351  -3.788  24.503  0.00  0.00    -0.090 S 
ATOM      6  C   UNL     1       6.806  -5.347  25.324  0.00  0.00    +0.115 C 
ENDROOT
BRANCH   1   7
ATOM      7  O   UNL     1       7.868  -4.252  27.255  0.00  0.00    -0.388 OA
ATOM      8  H   UNL     1       8.641  -4.295  27.844  0.00  0.00    +0.210 HD
ENDBRANCH   1   7
BRANCH   2   9
ATOM      9  O   UNL     1       9.694  -5.915  24.545  0.00  0.00    -0.388 OA
ATOM     10  H   UNL     1      10.132  -5.538  23.762  0.00  0.00    +0.210 HD
ENDBRANCH   2   9
TORSDOF 2
ENDMDL
MODEL 9
REMARK VINA RESULT:      -3.3      1.650      1.884
REMARK  Name = 
REMARK  2 active torsions:
REMARK  status: ('A' for Active; 'I' for Inactive)
REMARK    1  A    between atoms: O_1  and  C_2
REMARK    2  A    between atoms: C_8  and  O_10
REMARK                            x       y       z     vdW  Elec       q    Type
REMARK                         _______ _______ _______ _____ _____    ______ ____
ROOT
ATOM      1  C   UNL     1       8.846  -0.206  22.087  0.00  0.00    +0.154 C 
ATOM      2  C   UNL     1       9.467  -1.257  23.031  0.00  0.00    +0.154 C 
ATOM      3  C   UNL     1       9.724  -0.766  24.467  0.00  0.00    +0.115 C 
ATOM      4  S   UNL     1      10.936   0.590  24.525  0.00  0.00    -0.090 S 
ATOM      5  S   UNL     1       9.957   1.994  23.402  0.00  0.00    -0.090 S 
ATOM      6  C   UNL     1       9.705   1.052  21.865  0.00  0.00    +0.115 C 
ENDROOT
BRANCH   1   7
ATOM      7  O   UNL     1       7.531   0.127  22.553  0.00  0.00    -0.388 OA
ATOM      8  H   UNL     1       7.607   0.900  23.139  0.00  0.00    +0.210 HD
ENDBRANCH   1   7
BRANCH   2   9
ATOM      9  O   UNL     1      10.658  -1.783  22.430  0.00  0.00    -0.388 OA
ATOM     10  H   UNL     1      11.410  -1.241  22.729  0.00  0.00    +0.210 HD
ENDBRANCH   2   9
TORSDOF 2
ENDMDL
