MODEL 1
REMARK VINA RESULT:      -6.3      0.000      0.000
REMARK  Name = 
REMARK  11 active torsions:
REMARK  status: ('A' for Active; 'I' for Inactive)
REMARK    1  A    between atoms: CA_2  and  C_3
REMARK    2  A    between atoms: CA_2  and  N_5
REMARK    3  A    between atoms: CA_2  and  CB_26
REMARK    4  A    between atoms: C_3  and  O_4
REMARK    5  A    between atoms: C_8  and  N_9
REMARK    6  A    between atoms: N_9  and  C_10
REMARK    7  A    between atoms: N_20  and  C_21
REMARK    8  A    between atoms: C_21  and  C_22
REMARK    9  A    between atoms: C_21  and  C_23
REMARK   10  A    between atoms: CB_26  and  CG1_27
REMARK   11  A    between atoms: CB_26  and  CG2_28
REMARK                            x       y       z     vdW  Elec       q    Type
REMARK                         _______ _______ _______ _____ _____    ______ ____
ROOT
ATOM      1  N   VAL A   1       7.270   1.089  27.156  0.00  0.00    -0.308 N 
ATOM      2  H   VAL A   1       6.495   1.424  26.591  0.00  0.00    +0.149 HD
ATOM      3  C   UNK A   0       7.887   0.118  26.375  0.00  0.00    +0.219 A 
ATOM      4  N   UNK A   0       8.439   0.577  25.239  0.00  0.00    -0.195 NA
ATOM      5  C   UNK A   0       9.046  -0.384  24.531  0.00  0.00    +0.167 A 
ATOM      6  C   UNK A   0       9.061  -1.738  24.814  0.00  0.00    +0.148 A 
ATOM      7  N   UNK A   0       9.769  -2.429  23.848  0.00  0.00    -0.231 NA
ATOM      8  C   UNK A   0      10.191  -1.512  23.009  0.00  0.00    +0.201 A 
ATOM      9  C   UNK A   0       8.404  -2.143  25.987  0.00  0.00    +0.156 A 
ATOM     10  N   UNK A   0       9.804  -0.253  23.397  0.00  0.00    -0.312 N 
ATOM     11  N   UNK A   0       7.865  -1.171  26.774  0.00  0.00    -0.197 NA
ENDROOT
BRANCH  10  12
ATOM     12  C   UNK A   0      10.184   0.987  22.739  0.00  0.00    +0.084 C 
ATOM     13  C   UNK A   0      10.656   2.029  23.751  0.00  0.00    +0.030 C 
ATOM     14  C   UNK A   0       9.044   1.538  21.877  0.00  0.00    +0.030 C 
ENDBRANCH  10  12
BRANCH   9  15
ATOM     15  N   UNK A   0       8.333  -3.472  26.426  0.00  0.00    -0.298 N 
ATOM     16  H   UNK A   0       8.954  -3.648  27.205  0.00  0.00    +0.154 HD
BRANCH  15  17
ATOM     17  C   UNK A   0       7.280  -4.391  26.271  0.00  0.00    +0.034 A 
ATOM     18  C   UNK A   0       6.784  -4.763  25.014  0.00  0.00    +0.043 A 
ATOM     19  C   UNK A   0       5.779  -5.722  24.900  0.00  0.00    +0.043 A 
ATOM     20 CL   UNK A   0       5.191  -6.165  23.342  0.00  0.00    -0.083 Cl
ATOM     21  C   UNK A   0       5.251  -6.330  26.035  0.00  0.00    +0.020 A 
ATOM     22  C   UNK A   0       5.728  -5.965  27.293  0.00  0.00    +0.003 A 
ATOM     23  C   UNK A   0       6.729  -4.995  27.407  0.00  0.00    +0.023 A 
ENDBRANCH  15  17
ENDBRANCH   9  15
BRANCH   1  24
ATOM     24  CA  VAL A   1       6.909   0.738  28.538  0.00  0.00    +0.101 C 
BRANCH  24  25
ATOM     25  CB  VAL A   1       5.356   0.751  28.712  0.00  0.00    +0.005 C 
ATOM     26  CG2 VAL A   1       4.937   1.019  30.164  0.00  0.00    +0.009 C 
ATOM     27  CG1 VAL A   1       4.659  -0.516  28.205  0.00  0.00    +0.009 C 
ENDBRANCH  24  25
BRANCH  24  28
ATOM     28  C   VAL A   1       7.594   1.726  29.521  0.00  0.00    +0.178 C 
BRANCH  28  29
ATOM     29  O   VAL A   1       8.746   1.152  30.130  0.00  0.00    -0.393 OA
ATOM     30  H   VAL A   1       9.426   1.848  30.163  0.00  0.00    +0.209 HD
ENDBRANCH  28  29
ENDBRANCH  24  28
ENDBRANCH   1  24
TORSDOF 7
ENDMDL
MODEL 2
REMARK VINA RESULT:      -6.2      2.915      5.629
REMARK  Name = 
REMARK  11 active torsions:
REMARK  status: ('A' for Active; 'I' for Inactive)
REMARK    1  A    between atoms: CA_2  and  C_3
REMARK    2  A    between atoms: CA_2  and  N_5
REMARK    3  A    between atoms: CA_2  and  CB_26
REMARK    4  A    between atoms: C_3  and  O_4
REMARK    5  A    between atoms: C_8  and  N_9
REMARK    6  A    between atoms: N_9  and  C_10
REMARK    7  A    between atoms: N_20  and  C_21
REMARK    8  A    between atoms: C_21  and  C_22
REMARK    9  A    between atoms: C_21  and  C_23
REMARK   10  A    between atoms: CB_26  and  CG1_27
REMARK   11  A    between atoms: CB_26  and  CG2_28
REMARK                            x       y       z     vdW  Elec       q    Type
REMARK                         _______ _______ _______ _____ _____    ______ ____
ROOT
ATOM      1  N   VAL A   1       8.307   1.152  23.813  0.00  0.00    -0.308 N 
ATOM      2  H   VAL A   1       8.983   1.331  24.549  0.00  0.00    +0.149 HD
ATOM      3  C   UNK A   0       7.175   0.687  24.472  0.00  0.00    +0.219 A 
ATOM      4  N   UNK A   0       6.591   1.581  25.288  0.00  0.00    -0.195 NA
ATOM      5  C   UNK A   0       5.490   1.103  25.881  0.00  0.00    +0.167 A 
ATOM      6  C   UNK A   0       4.999  -0.188  25.799  0.00  0.00    +0.148 A 
ATOM      7  N   UNK A   0       3.854  -0.322  26.563  0.00  0.00    -0.231 NA
ATOM      8  C   UNK A   0       3.645   0.867  27.080  0.00  0.00    +0.201 A 
ATOM      9  C   UNK A   0       5.705  -1.079  24.976  0.00  0.00    +0.156 A 
ATOM     10  N   UNK A   0       4.594   1.771  26.673  0.00  0.00    -0.312 N 
ATOM     11  N   UNK A   0       6.771  -0.588  24.285  0.00  0.00    -0.197 NA
ENDROOT
BRANCH  10  12
ATOM     12  C   UNK A   0       4.598   3.191  26.991  0.00  0.00    +0.084 C 
ATOM     13  C   UNK A   0       5.420   3.474  28.247  0.00  0.00    +0.030 C 
ATOM     14  C   UNK A   0       3.174   3.738  27.132  0.00  0.00    +0.030 C 
ENDBRANCH  10  12
BRANCH   9  15
ATOM     15  N   UNK A   0       5.338  -2.416  24.773  0.00  0.00    -0.298 N 
ATOM     16  H   UNK A   0       4.334  -2.533  24.739  0.00  0.00    +0.154 HD
BRANCH  15  17
ATOM     17  C   UNK A   0       6.088  -3.452  24.187  0.00  0.00    +0.034 A 
ATOM     18  C   UNK A   0       5.777  -3.987  22.929  0.00  0.00    +0.043 A 
ATOM     19  C   UNK A   0       6.580  -4.972  22.356  0.00  0.00    +0.043 A 
ATOM     20 CL   UNK A   0       6.178  -5.610  20.807  0.00  0.00    -0.083 Cl
ATOM     21  C   UNK A   0       7.707  -5.441  23.024  0.00  0.00    +0.020 A 
ATOM     22  C   UNK A   0       8.026  -4.924  24.279  0.00  0.00    +0.003 A 
ATOM     23  C   UNK A   0       7.213  -3.943  24.858  0.00  0.00    +0.023 A 
ENDBRANCH  15  17
ENDBRANCH   9  15
BRANCH   1  24
ATOM     24  CA  VAL A   1       8.828   0.358  22.690  0.00  0.00    +0.101 C 
BRANCH  24  25
ATOM     25  CB  VAL A   1      10.202  -0.282  23.069  0.00  0.00    +0.005 C 
ATOM     26  CG2 VAL A   1      10.130  -1.813  23.143  0.00  0.00    +0.009 C 
ATOM     27  CG1 VAL A   1      10.808   0.265  24.367  0.00  0.00    +0.009 C 
ENDBRANCH  24  25
BRANCH  24  28
ATOM     28  C   VAL A   1       8.955   1.258  21.431  0.00  0.00    +0.178 C 
BRANCH  28  29
ATOM     29  O   VAL A   1      10.053   2.160  21.535  0.00  0.00    -0.393 OA
ATOM     30  H   VAL A   1      10.830   1.705  21.165  0.00  0.00    +0.209 HD
ENDBRANCH  28  29
ENDBRANCH  24  28
ENDBRANCH   1  24
TORSDOF 7
ENDMDL
MODEL 3
REMARK VINA RESULT:      -6.1      4.213      7.005
REMARK  Name = 
REMARK  11 active torsions:
REMARK  status: ('A' for Active; 'I' for Inactive)
REMARK    1  A    between atoms: CA_2  and  C_3
REMARK    2  A    between atoms: CA_2  and  N_5
REMARK    3  A    between atoms: CA_2  and  CB_26
REMARK    4  A    between atoms: C_3  and  O_4
REMARK    5  A    between atoms: C_8  and  N_9
REMARK    6  A    between atoms: N_9  and  C_10
REMARK    7  A    between atoms: N_20  and  C_21
REMARK    8  A    between atoms: C_21  and  C_22
REMARK    9  A    between atoms: C_21  and  C_23
REMARK   10  A    between atoms: CB_26  and  CG1_27
REMARK   11  A    between atoms: CB_26  and  CG2_28
REMARK                            x       y       z     vdW  Elec       q    Type
REMARK                         _______ _______ _______ _____ _____    ______ ____
ROOT
ATOM      1  N   VAL A   1      10.225   0.342  23.982  0.00  0.00    -0.308 N 
ATOM      2  H   VAL A   1      10.411   0.323  24.980  0.00  0.00    +0.149 HD
ATOM      3  C   UNK A   0       9.681   1.599  23.744  0.00  0.00    +0.219 A 
ATOM      4  N   UNK A   0      10.515   2.627  23.976  0.00  0.00    -0.195 NA
ATOM      5  C   UNK A   0       9.962   3.816  23.708  0.00  0.00    +0.167 A 
ATOM      6  C   UNK A   0       8.652   4.055  23.331  0.00  0.00    +0.148 A 
ATOM      7  N   UNK A   0       8.434   5.410  23.162  0.00  0.00    -0.231 NA
ATOM      8  C   UNK A   0       9.591   5.978  23.411  0.00  0.00    +0.201 A 
ATOM      9  C   UNK A   0       7.828   2.929  23.173  0.00  0.00    +0.156 A 
ATOM     10  N   UNK A   0      10.556   5.051  23.718  0.00  0.00    -0.312 N 
ATOM     11  N   UNK A   0       8.396   1.704  23.344  0.00  0.00    -0.197 NA
ENDROOT
BRANCH  10  12
ATOM     12  C   UNK A   0      11.961   5.342  23.955  0.00  0.00    +0.084 C 
ATOM     13  C   UNK A   0      12.131   6.614  24.784  0.00  0.00    +0.030 C 
ATOM     14  C   UNK A   0      12.744   5.435  22.641  0.00  0.00    +0.030 C 
ENDBRANCH  10  12
BRANCH   9  15
ATOM     15  N   UNK A   0       6.483   2.992  22.786  0.00  0.00    -0.298 N 
ATOM     16  H   UNK A   0       6.350   2.704  21.825  0.00  0.00    +0.154 HD
BRANCH  15  17
ATOM     17  C   UNK A   0       5.334   2.944  23.596  0.00  0.00    +0.034 A 
ATOM     18  C   UNK A   0       5.333   2.352  24.866  0.00  0.00    +0.043 A 
ATOM     19  C   UNK A   0       4.189   2.377  25.663  0.00  0.00    +0.043 A 
ATOM     20 CL   UNK A   0       4.216   1.646  27.223  0.00  0.00    -0.083 Cl
ATOM     21  C   UNK A   0       3.027   2.994  25.211  0.00  0.00    +0.020 A 
ATOM     22  C   UNK A   0       3.010   3.582  23.946  0.00  0.00    +0.003 A 
ATOM     23  C   UNK A   0       4.154   3.546  23.143  0.00  0.00    +0.023 A 
ENDBRANCH  15  17
ENDBRANCH   9  15
BRANCH   1  24
ATOM     24  CA  VAL A   1       9.499  -0.833  23.476  0.00  0.00    +0.101 C 
BRANCH  24  25
ATOM     25  CB  VAL A   1       9.355  -1.907  24.601  0.00  0.00    +0.005 C 
ATOM     26  CG2 VAL A   1       8.879  -3.260  24.056  0.00  0.00    +0.009 C 
ATOM     27  CG1 VAL A   1       8.452  -1.478  25.763  0.00  0.00    +0.009 C 
ENDBRANCH  24  25
BRANCH  24  28
ATOM     28  C   VAL A   1      10.242  -1.410  22.240  0.00  0.00    +0.178 C 
BRANCH  28  29
ATOM     29  O   VAL A   1       9.644  -0.987  21.018  0.00  0.00    -0.393 OA
ATOM     30  H   VAL A   1       8.843  -0.486  21.253  0.00  0.00    +0.209 HD
ENDBRANCH  28  29
ENDBRANCH  24  28
ENDBRANCH   1  24
TORSDOF 7
ENDMDL
MODEL 4
REMARK VINA RESULT:      -6.1      2.846      5.589
REMARK  Name = 
REMARK  11 active torsions:
REMARK  status: ('A' for Active; 'I' for Inactive)
REMARK    1  A    between atoms: CA_2  and  C_3
REMARK    2  A    between atoms: CA_2  and  N_5
REMARK    3  A    between atoms: CA_2  and  CB_26
REMARK    4  A    between atoms: C_3  and  O_4
REMARK    5  A    between atoms: C_8  and  N_9
REMARK    6  A    between atoms: N_9  and  C_10
REMARK    7  A    between atoms: N_20  and  C_21
REMARK    8  A    between atoms: C_21  and  C_22
REMARK    9  A    between atoms: C_21  and  C_23
REMARK   10  A    between atoms: CB_26  and  CG1_27
REMARK   11  A    between atoms: CB_26  and  CG2_28
REMARK                            x       y       z     vdW  Elec       q    Type
REMARK                         _______ _______ _______ _____ _____    ______ ____
ROOT
ATOM      1  N   VAL A   1       8.694   2.130  25.150  0.00  0.00    -0.308 N 
ATOM      2  H   VAL A   1       9.341   1.821  25.869  0.00  0.00    +0.149 HD
ATOM      3  C   UNK A   0       7.593   1.290  25.275  0.00  0.00    +0.219 A 
ATOM      4  N   UNK A   0       6.926   1.405  26.436  0.00  0.00    -0.195 NA
ATOM      5  C   UNK A   0       5.858   0.600  26.504  0.00  0.00    +0.167 A 
ATOM      6  C   UNK A   0       5.474  -0.348  25.572  0.00  0.00    +0.148 A 
ATOM      7  N   UNK A   0       4.332  -1.006  25.990  0.00  0.00    -0.231 NA
ATOM      8  C   UNK A   0       4.020  -0.455  27.140  0.00  0.00    +0.201 A 
ATOM      9  C   UNK A   0       6.264  -0.449  24.416  0.00  0.00    +0.156 A 
ATOM     10  N   UNK A   0       4.898   0.544  27.480  0.00  0.00    -0.312 N 
ATOM     11  N   UNK A   0       7.296   0.428  24.279  0.00  0.00    -0.197 NA
ENDROOT
BRANCH  10  12
ATOM     12  C   UNK A   0       4.782   1.410  28.642  0.00  0.00    +0.084 C 
ATOM     13  C   UNK A   0       5.633   0.897  29.803  0.00  0.00    +0.030 C 
ATOM     14  C   UNK A   0       3.321   1.584  29.069  0.00  0.00    +0.030 C 
ENDBRANCH  10  12
BRANCH   9  15
ATOM     15  N   UNK A   0       6.010  -1.347  23.370  0.00  0.00    -0.298 N 
ATOM     16  H   UNK A   0       5.771  -0.870  22.510  0.00  0.00    +0.154 HD
BRANCH  15  17
ATOM     17  C   UNK A   0       6.458  -2.672  23.224  0.00  0.00    +0.034 A 
ATOM     18  C   UNK A   0       6.078  -3.479  22.142  0.00  0.00    +0.043 A 
ATOM     19  C   UNK A   0       6.592  -4.768  22.001  0.00  0.00    +0.043 A 
ATOM     20 CL   UNK A   0       6.113  -5.738  20.660  0.00  0.00    -0.083 Cl
ATOM     21  C   UNK A   0       7.493  -5.275  22.932  0.00  0.00    +0.020 A 
ATOM     22  C   UNK A   0       7.875  -4.486  24.017  0.00  0.00    +0.003 A 
ATOM     23  C   UNK A   0       7.351  -3.198  24.164  0.00  0.00    +0.023 A 
ENDBRANCH  15  17
ENDBRANCH   9  15
BRANCH   1  24
ATOM     24  CA  VAL A   1       9.294   2.289  23.817  0.00  0.00    +0.101 C 
BRANCH  24  25
ATOM     25  CB  VAL A   1      10.466   1.273  23.627  0.00  0.00    +0.005 C 
ATOM     26  CG2 VAL A   1      10.190   0.272  22.497  0.00  0.00    +0.009 C 
ATOM     27  CG1 VAL A   1      10.847   0.512  24.902  0.00  0.00    +0.009 C 
ENDBRANCH  24  25
BRANCH  24  28
ATOM     28  C   VAL A   1       9.784   3.751  23.638  0.00  0.00    +0.178 C 
BRANCH  28  29
ATOM     29  O   VAL A   1      11.079   3.807  23.047  0.00  0.00    -0.393 OA
ATOM     30  H   VAL A   1      11.115   3.104  22.375  0.00  0.00    +0.209 HD
ENDBRANCH  28  29
ENDBRANCH  24  28
ENDBRANCH   1  24
TORSDOF 7
ENDMDL
MODEL 5
REMARK VINA RESULT:      -6.1      3.522      7.395
REMARK  Name = 
REMARK  11 active torsions:
REMARK  status: ('A' for Active; 'I' for Inactive)
REMARK    1  A    between atoms: CA_2  and  C_3
REMARK    2  A    between atoms: CA_2  and  N_5
REMARK    3  A    between atoms: CA_2  and  CB_26
REMARK    4  A    between atoms: C_3  and  O_4
REMARK    5  A    between atoms: C_8  and  N_9
REMARK    6  A    between atoms: N_9  and  C_10
REMARK    7  A    between atoms: N_20  and  C_21
REMARK    8  A    between atoms: C_21  and  C_22
REMARK    9  A    between atoms: C_21  and  C_23
REMARK   10  A    between atoms: CB_26  and  CG1_27
REMARK   11  A    between atoms: CB_26  and  CG2_28
REMARK                            x       y       z     vdW  Elec       q    Type
REMARK                         _______ _______ _______ _____ _____    ______ ____
ROOT
ATOM      1  N   VAL A   1       6.817  -3.931  25.728  0.00  0.00    -0.308 N 
ATOM      2  H   VAL A   1       5.985  -4.512  25.697  0.00  0.00    +0.149 HD
ATOM      3  C   UNK A   0       6.344  -2.626  25.631  0.00  0.00    +0.219 A 
ATOM      4  N   UNK A   0       5.584  -2.225  26.664  0.00  0.00    -0.195 NA
ATOM      5  C   UNK A   0       5.173  -0.956  26.545  0.00  0.00    +0.167 A 
ATOM      6  C   UNK A   0       5.378  -0.117  25.464  0.00  0.00    +0.148 A 
ATOM      7  N   UNK A   0       4.791   1.115  25.686  0.00  0.00    -0.231 NA
ATOM      8  C   UNK A   0       4.260   1.031  26.884  0.00  0.00    +0.201 A 
ATOM      9  C   UNK A   0       6.128  -0.636  24.397  0.00  0.00    +0.156 A 
ATOM     10  N   UNK A   0       4.491  -0.195  27.457  0.00  0.00    -0.312 N 
ATOM     11  N   UNK A   0       6.640  -1.890  24.539  0.00  0.00    -0.197 NA
ENDROOT
BRANCH  10  12
ATOM     12  C   UNK A   0       4.117  -0.579  28.809  0.00  0.00    +0.084 C 
ATOM     13  C   UNK A   0       2.664  -1.047  28.871  0.00  0.00    +0.030 C 
ATOM     14  C   UNK A   0       4.370   0.558  29.805  0.00  0.00    +0.030 C 
ENDBRANCH  10  12
BRANCH   9  15
ATOM     15  N   UNK A   0       6.436   0.081  23.234  0.00  0.00    -0.298 N 
ATOM     16  H   UNK A   0       5.607   0.436  22.775  0.00  0.00    +0.154 HD
BRANCH  15  17
ATOM     17  C   UNK A   0       7.638   0.729  22.895  0.00  0.00    +0.034 A 
ATOM     18  C   UNK A   0       7.988   1.984  23.412  0.00  0.00    +0.043 A 
ATOM     19  C   UNK A   0       9.215   2.567  23.099  0.00  0.00    +0.043 A 
ATOM     20 CL   UNK A   0       9.624   4.108  23.752  0.00  0.00    -0.083 Cl
ATOM     21  C   UNK A   0      10.117   1.910  22.267  0.00  0.00    +0.020 A 
ATOM     22  C   UNK A   0       9.781   0.663  21.739  0.00  0.00    +0.003 A 
ATOM     23  C   UNK A   0       8.544   0.085  22.045  0.00  0.00    +0.023 A 
ENDBRANCH  15  17
ENDBRANCH   9  15
BRANCH   1  24
ATOM     24  CA  VAL A   1       7.886  -4.348  24.809  0.00  0.00    +0.101 C 
BRANCH  24  25
ATOM     25  CB  VAL A   1       7.300  -5.236  23.664  0.00  0.00    +0.005 C 
ATOM     26  CG2 VAL A   1       7.378  -4.545  22.296  0.00  0.00    +0.009 C 
ATOM     27  CG1 VAL A   1       5.865  -5.713  23.915  0.00  0.00    +0.009 C 
ENDBRANCH  24  25
BRANCH  24  28
ATOM     28  C   VAL A   1       8.985  -5.107  25.601  0.00  0.00    +0.178 C 
BRANCH  28  29
ATOM     29  O   VAL A   1      10.177  -5.261  24.836  0.00  0.00    -0.393 OA
ATOM     30  H   VAL A   1      10.581  -4.378  24.760  0.00  0.00    +0.209 HD
ENDBRANCH  28  29
ENDBRANCH  24  28
ENDBRANCH   1  24
TORSDOF 7
ENDMDL
MODEL 6
REMARK VINA RESULT:      -6.0      2.519      5.558
REMARK  Name = 
REMARK  11 active torsions:
REMARK  status: ('A' for Active; 'I' for Inactive)
REMARK    1  A    between atoms: CA_2  and  C_3
REMARK    2  A    between atoms: CA_2  and  N_5
REMARK    3  A    between atoms: CA_2  and  CB_26
REMARK    4  A    between atoms: C_3  and  O_4
REMARK    5  A    between atoms: C_8  and  N_9
REMARK    6  A    between atoms: N_9  and  C_10
REMARK    7  A    between atoms: N_20  and  C_21
REMARK    8  A    between atoms: C_21  and  C_22
REMARK    9  A    between atoms: C_21  and  C_23
REMARK   10  A    between atoms: CB_26  and  CG1_27
REMARK   11  A    between atoms: CB_26  and  CG2_28
REMARK                            x       y       z     vdW  Elec       q    Type
REMARK                         _______ _______ _______ _____ _____    ______ ____
ROOT
ATOM      1  N   VAL A   1       8.099   0.788  23.988  0.00  0.00    -0.308 N 
ATOM      2  H   VAL A   1       8.754   1.253  24.609  0.00  0.00    +0.149 HD
ATOM      3  C   UNK A   0       7.424  -0.120  24.795  0.00  0.00    +0.219 A 
ATOM      4  N   UNK A   0       6.673   0.434  25.761  0.00  0.00    -0.195 NA
ATOM      5  C   UNK A   0       6.019  -0.473  26.497  0.00  0.00    +0.167 A 
ATOM      6  C   UNK A   0       6.128  -1.849  26.405  0.00  0.00    +0.148 A 
ATOM      7  N   UNK A   0       5.317  -2.465  27.341  0.00  0.00    -0.231 NA
ATOM      8  C   UNK A   0       4.715  -1.484  27.972  0.00  0.00    +0.201 A 
ATOM      9  C   UNK A   0       6.984  -2.347  25.409  0.00  0.00    +0.156 A 
ATOM     10  N   UNK A   0       5.086  -0.258  27.477  0.00  0.00    -0.312 N 
ATOM     11  N   UNK A   0       7.583  -1.444  24.585  0.00  0.00    -0.197 NA
ENDROOT
BRANCH  10  12
ATOM     12  C   UNK A   0       4.535   1.022  27.894  0.00  0.00    +0.084 C 
ATOM     13  C   UNK A   0       5.374   1.651  29.004  0.00  0.00    +0.030 C 
ATOM     14  C   UNK A   0       3.070   0.889  28.322  0.00  0.00    +0.030 C 
ENDBRANCH  10  12
BRANCH   9  15
ATOM     15  N   UNK A   0       7.200  -3.711  25.173  0.00  0.00    -0.298 N 
ATOM     16  H   UNK A   0       7.464  -4.205  26.016  0.00  0.00    +0.154 HD
BRANCH  15  17
ATOM     17  C   UNK A   0       6.691  -4.514  24.137  0.00  0.00    +0.034 A 
ATOM     18  C   UNK A   0       5.341  -4.883  24.064  0.00  0.00    +0.043 A 
ATOM     19  C   UNK A   0       4.863  -5.630  22.988  0.00  0.00    +0.043 A 
ATOM     20 CL   UNK A   0       3.198  -6.066  22.921  0.00  0.00    -0.083 Cl
ATOM     21  C   UNK A   0       5.721  -6.021  21.965  0.00  0.00    +0.020 A 
ATOM     22  C   UNK A   0       7.068  -5.668  22.025  0.00  0.00    +0.003 A 
ATOM     23  C   UNK A   0       7.549  -4.928  23.111  0.00  0.00    +0.023 A 
ENDBRANCH  15  17
ENDBRANCH   9  15
BRANCH   1  24
ATOM     24  CA  VAL A   1       8.693   0.293  22.737  0.00  0.00    +0.101 C 
BRANCH  24  25
ATOM     25  CB  VAL A   1      10.216   0.004  22.937  0.00  0.00    +0.005 C 
ATOM     26  CG2 VAL A   1      10.555  -1.481  22.750  0.00  0.00    +0.009 C 
ATOM     27  CG1 VAL A   1      10.773   0.490  24.280  0.00  0.00    +0.009 C 
ENDBRANCH  24  25
BRANCH  24  28
ATOM     28  C   VAL A   1       8.463   1.332  21.605  0.00  0.00    +0.178 C 
BRANCH  28  29
ATOM     29  O   VAL A   1       9.625   2.122  21.368  0.00  0.00    -0.393 OA
ATOM     30  H   VAL A   1      10.193   2.034  22.153  0.00  0.00    +0.209 HD
ENDBRANCH  28  29
ENDBRANCH  24  28
ENDBRANCH   1  24
TORSDOF 7
ENDMDL
MODEL 7
REMARK VINA RESULT:      -6.0      2.167      3.416
REMARK  Name = 
REMARK  11 active torsions:
REMARK  status: ('A' for Active; 'I' for Inactive)
REMARK    1  A    between atoms: CA_2  and  C_3
REMARK    2  A    between atoms: CA_2  and  N_5
REMARK    3  A    between atoms: CA_2  and  CB_26
REMARK    4  A    between atoms: C_3  and  O_4
REMARK    5  A    between atoms: C_8  and  N_9
REMARK    6  A    between atoms: N_9  and  C_10
REMARK    7  A    between atoms: N_20  and  C_21
REMARK    8  A    between atoms: C_21  and  C_22
REMARK    9  A    between atoms: C_21  and  C_23
REMARK   10  A    between atoms: CB_26  and  CG1_27
REMARK   11  A    between atoms: CB_26  and  CG2_28
REMARK                            x       y       z     vdW  Elec       q    Type
REMARK                         _______ _______ _______ _____ _____    ______ ____
ROOT
ATOM      1  N   VAL A   1       6.432   1.958  27.108  0.00  0.00    -0.308 N 
ATOM      2  H   VAL A   1       5.625   2.182  26.534  0.00  0.00    +0.149 HD
ATOM      3  C   UNK A   0       7.485   1.830  26.209  0.00  0.00    +0.219 A 
ATOM      4  N   UNK A   0       7.808   2.958  25.555  0.00  0.00    -0.195 NA
ATOM      5  C   UNK A   0       8.843   2.799  24.720  0.00  0.00    +0.167 A 
ATOM      6  C   UNK A   0       9.497   1.615  24.429  0.00  0.00    +0.148 A 
ATOM      7  N   UNK A   0      10.503   1.829  23.505  0.00  0.00    -0.231 NA
ATOM      8  C   UNK A   0      10.474   3.119  23.259  0.00  0.00    +0.201 A 
ATOM      9  C   UNK A   0       9.055   0.468  25.108  0.00  0.00    +0.156 A 
ATOM     10  N   UNK A   0       9.503   3.754  23.994  0.00  0.00    -0.312 N 
ATOM     11  N   UNK A   0       8.069   0.626  26.034  0.00  0.00    -0.197 NA
ENDROOT
BRANCH  10  12
ATOM     12  C   UNK A   0       9.271   5.189  24.022  0.00  0.00    +0.084 C 
ATOM     13  C   UNK A   0       8.157   5.589  23.057  0.00  0.00    +0.030 C 
ATOM     14  C   UNK A   0      10.555   5.972  23.731  0.00  0.00    +0.030 C 
ENDBRANCH  10  12
BRANCH   9  15
ATOM     15  N   UNK A   0       9.612  -0.806  24.938  0.00  0.00    -0.298 N 
ATOM     16  H   UNK A   0      10.456  -0.927  25.484  0.00  0.00    +0.154 HD
BRANCH  15  17
ATOM     17  C   UNK A   0       8.978  -1.994  24.534  0.00  0.00    +0.034 A 
ATOM     18  C   UNK A   0       8.696  -3.038  25.427  0.00  0.00    +0.043 A 
ATOM     19  C   UNK A   0       8.012  -4.176  24.999  0.00  0.00    +0.043 A 
ATOM     20 CL   UNK A   0       7.674  -5.442  26.117  0.00  0.00    -0.083 Cl
ATOM     21  C   UNK A   0       7.596  -4.294  23.677  0.00  0.00    +0.020 A 
ATOM     22  C   UNK A   0       7.875  -3.268  22.775  0.00  0.00    +0.003 A 
ATOM     23  C   UNK A   0       8.571  -2.132  23.202  0.00  0.00    +0.023 A 
ENDBRANCH  15  17
ENDBRANCH   9  15
BRANCH   1  24
ATOM     24  CA  VAL A   1       6.211   0.871  28.073  0.00  0.00    +0.101 C 
BRANCH  24  25
ATOM     25  CB  VAL A   1       4.682   0.677  28.329  0.00  0.00    +0.005 C 
ATOM     26  CG2 VAL A   1       3.966   0.050  27.125  0.00  0.00    +0.009 C 
ATOM     27  CG1 VAL A   1       3.951   1.957  28.748  0.00  0.00    +0.009 C 
ENDBRANCH  24  25
BRANCH  24  28
ATOM     28  C   VAL A   1       6.966   1.185  29.392  0.00  0.00    +0.178 C 
BRANCH  28  29
ATOM     29  O   VAL A   1       8.340   0.814  29.317  0.00  0.00    -0.393 OA
ATOM     30  H   VAL A   1       8.824   1.587  28.979  0.00  0.00    +0.209 HD
ENDBRANCH  28  29
ENDBRANCH  24  28
ENDBRANCH   1  24
TORSDOF 7
ENDMDL
MODEL 8
REMARK VINA RESULT:      -5.9      4.524      7.656
REMARK  Name = 
REMARK  11 active torsions:
REMARK  status: ('A' for Active; 'I' for Inactive)
REMARK    1  A    between atoms: CA_2  and  C_3
REMARK    2  A    between atoms: CA_2  and  N_5
REMARK    3  A    between atoms: CA_2  and  CB_26
REMARK    4  A    between atoms: C_3  and  O_4
REMARK    5  A    between atoms: C_8  and  N_9
REMARK    6  A    between atoms: N_9  and  C_10
REMARK    7  A    between atoms: N_20  and  C_21
REMARK    8  A    between atoms: C_21  and  C_22
REMARK    9  A    between atoms: C_21  and  C_23
REMARK   10  A    between atoms: CB_26  and  CG1_27
REMARK   11  A    between atoms: CB_26  and  CG2_28
REMARK                            x       y       z     vdW  Elec       q    Type
REMARK                         _______ _______ _______ _____ _____    ______ ____
ROOT
ATOM      1  N   VAL A   1      10.698   3.895  23.793  0.00  0.00    -0.308 N 
ATOM      2  H   VAL A   1      11.440   3.545  23.194  0.00  0.00    +0.149 HD
ATOM      3  C   UNK A   0       9.603   3.084  23.516  0.00  0.00    +0.219 A 
ATOM      4  N   UNK A   0       9.759   1.793  23.851  0.00  0.00    -0.195 NA
ATOM      5  C   UNK A   0       8.673   1.053  23.594  0.00  0.00    +0.167 A 
ATOM      6  C   UNK A   0       7.517   1.472  22.961  0.00  0.00    +0.148 A 
ATOM      7  N   UNK A   0       6.617   0.428  22.849  0.00  0.00    -0.231 NA
ATOM      8  C   UNK A   0       7.208  -0.596  23.421  0.00  0.00    +0.201 A 
ATOM      9  C   UNK A   0       7.460   2.824  22.584  0.00  0.00    +0.156 A 
ATOM     10  N   UNK A   0       8.444  -0.259  23.913  0.00  0.00    -0.312 N 
ATOM     11  N   UNK A   0       8.512   3.617  22.925  0.00  0.00    -0.197 NA
ENDROOT
BRANCH  10  12
ATOM     12  C   UNK A   0       9.314  -1.136  24.681  0.00  0.00    +0.084 C 
ATOM     13  C   UNK A   0       9.702  -2.375  23.875  0.00  0.00    +0.030 C 
ATOM     14  C   UNK A   0       8.677  -1.529  26.018  0.00  0.00    +0.030 C 
ENDBRANCH  10  12
BRANCH   9  15
ATOM     15  N   UNK A   0       6.361   3.413  21.945  0.00  0.00    -0.298 N 
ATOM     16  H   UNK A   0       6.294   3.137  20.973  0.00  0.00    +0.154 HD
BRANCH  15  17
ATOM     17  C   UNK A   0       5.174   3.905  22.516  0.00  0.00    +0.034 A 
ATOM     18  C   UNK A   0       3.935   3.274  22.339  0.00  0.00    +0.043 A 
ATOM     19  C   UNK A   0       2.791   3.760  22.971  0.00  0.00    +0.043 A 
ATOM     20 CL   UNK A   0       1.281   2.963  22.741  0.00  0.00    -0.083 Cl
ATOM     21  C   UNK A   0       2.860   4.881  23.792  0.00  0.00    +0.020 A 
ATOM     22  C   UNK A   0       4.084   5.525  23.973  0.00  0.00    +0.003 A 
ATOM     23  C   UNK A   0       5.229   5.043  23.329  0.00  0.00    +0.023 A 
ENDBRANCH  15  17
ENDBRANCH   9  15
BRANCH   1  24
ATOM     24  CA  VAL A   1      10.510   5.353  23.741  0.00  0.00    +0.101 C 
BRANCH  24  25
ATOM     25  CB  VAL A   1      11.894   6.077  23.713  0.00  0.00    +0.005 C 
ATOM     26  CG2 VAL A   1      13.020   5.158  23.222  0.00  0.00    +0.009 C 
ATOM     27  CG1 VAL A   1      12.296   6.710  25.049  0.00  0.00    +0.009 C 
ENDBRANCH  24  25
BRANCH  24  28
ATOM     28  C   VAL A   1       9.661   5.811  24.958  0.00  0.00    +0.178 C 
BRANCH  28  29
ATOM     29  O   VAL A   1       8.352   6.215  24.568  0.00  0.00    -0.393 OA
ATOM     30  H   VAL A   1       8.101   5.665  23.805  0.00  0.00    +0.209 HD
ENDBRANCH  28  29
ENDBRANCH  24  28
ENDBRANCH   1  24
TORSDOF 7
ENDMDL
MODEL 9
REMARK VINA RESULT:      -5.8      2.673      4.647
REMARK  Name = 
REMARK  11 active torsions:
REMARK  status: ('A' for Active; 'I' for Inactive)
REMARK    1  A    between atoms: CA_2  and  C_3
REMARK    2  A    between atoms: CA_2  and  N_5
REMARK    3  A    between atoms: CA_2  and  CB_26
REMARK    4  A    between atoms: C_3  and  O_4
REMARK    5  A    between atoms: C_8  and  N_9
REMARK    6  A    between atoms: N_9  and  C_10
REMARK    7  A    between atoms: N_20  and  C_21
REMARK    8  A    between atoms: C_21  and  C_22
REMARK    9  A    between atoms: C_21  and  C_23
REMARK   10  A    between atoms: CB_26  and  CG1_27
REMARK   11  A    between atoms: CB_26  and  CG2_28
REMARK                            x       y       z     vdW  Elec       q    Type
REMARK                         _______ _______ _______ _____ _____    ______ ____
ROOT
ATOM      1  N   VAL A   1       9.434  -3.760  24.527  0.00  0.00    -0.308 N 
ATOM      2  H   VAL A   1      10.325  -3.757  25.013  0.00  0.00    +0.149 HD
ATOM      3  C   UNK A   0       8.847  -2.541  24.849  0.00  0.00    +0.219 A 
ATOM      4  N   UNK A   0       9.505  -1.462  24.394  0.00  0.00    -0.195 NA
ATOM      5  C   UNK A   0       8.894  -0.311  24.702  0.00  0.00    +0.167 A 
ATOM      6  C   UNK A   0       7.764  -0.157  25.486  0.00  0.00    +0.148 A 
ATOM      7  N   UNK A   0       7.432   1.180  25.605  0.00  0.00    -0.231 NA
ATOM      8  C   UNK A   0       8.329   1.820  24.891  0.00  0.00    +0.201 A 
ATOM      9  C   UNK A   0       7.174  -1.333  25.978  0.00  0.00    +0.156 A 
ATOM     10  N   UNK A   0       9.219   0.958  24.301  0.00  0.00    -0.312 N 
ATOM     11  N   UNK A   0       7.722  -2.519  25.595  0.00  0.00    -0.197 NA
ENDROOT
BRANCH  10  12
ATOM     12  C   UNK A   0      10.275   1.338  23.375  0.00  0.00    +0.084 C 
ATOM     13  C   UNK A   0      10.702   2.789  23.588  0.00  0.00    +0.030 C 
ATOM     14  C   UNK A   0       9.860   1.096  21.921  0.00  0.00    +0.030 C 
ENDBRANCH  10  12
BRANCH   9  15
ATOM     15  N   UNK A   0       6.023  -1.357  26.776  0.00  0.00    -0.298 N 
ATOM     16  H   UNK A   0       5.721  -0.427  27.034  0.00  0.00    +0.154 HD
BRANCH  15  17
ATOM     17  C   UNK A   0       5.042  -2.360  26.870  0.00  0.00    +0.034 A 
ATOM     18  C   UNK A   0       5.100  -3.382  27.827  0.00  0.00    +0.043 A 
ATOM     19  C   UNK A   0       4.076  -4.324  27.927  0.00  0.00    +0.043 A 
ATOM     20 CL   UNK A   0       4.168  -5.567  29.116  0.00  0.00    -0.083 Cl
ATOM     21  C   UNK A   0       2.977  -4.264  27.076  0.00  0.00    +0.020 A 
ATOM     22  C   UNK A   0       2.908  -3.258  26.113  0.00  0.00    +0.003 A 
ATOM     23  C   UNK A   0       3.941  -2.320  26.007  0.00  0.00    +0.023 A 
ENDBRANCH  15  17
ENDBRANCH   9  15
BRANCH   1  24
ATOM     24  CA  VAL A   1       8.638  -4.982  24.719  0.00  0.00    +0.101 C 
BRANCH  24  25
ATOM     25  CB  VAL A   1       7.304  -4.892  23.911  0.00  0.00    +0.005 C 
ATOM     26  CG2 VAL A   1       6.109  -5.447  24.698  0.00  0.00    +0.009 C 
ATOM     27  CG1 VAL A   1       7.362  -5.560  22.533  0.00  0.00    +0.009 C 
ENDBRANCH  24  25
BRANCH  24  28
ATOM     28  C   VAL A   1       8.365  -5.191  26.233  0.00  0.00    +0.178 C 
BRANCH  28  29
ATOM     29  O   VAL A   1       9.494  -4.841  27.028  0.00  0.00    -0.393 OA
ATOM     30  H   VAL A   1      10.124  -4.387  26.442  0.00  0.00    +0.209 HD
ENDBRANCH  28  29
ENDBRANCH  24  28
ENDBRANCH   1  24
TORSDOF 7
ENDMDL
