MODEL 1
REMARK VINA RESULT:      -7.2      0.000      0.000
REMARK  Name = 
REMARK  11 active torsions:
REMARK  status: ('A' for Active; 'I' for Inactive)
REMARK    1  A    between atoms: C_2  and  O_3
REMARK    2  A    between atoms: C_2  and  C_4
REMARK    3  A    between atoms: C_2  and  C_28
REMARK    4  A    between atoms: C_4  and  O_5
REMARK    5  A    between atoms: O_5  and  C_6
REMARK    6  A    between atoms: C_9  and  N_10
REMARK    7  A    between atoms: C_13  and  N_14
REMARK    8  A    between atoms: N_14  and  C_15
REMARK    9  A    between atoms: C_28  and  N_29
REMARK   10  A    between atoms: N_29  and  C_30
REMARK   11  A    between atoms: N_29  and  C_31
REMARK                            x       y       z     vdW  Elec       q    Type
REMARK                         _______ _______ _______ _____ _____    ______ ____
ROOT
ATOM      1  N   UNL     1       8.827  -0.491  25.196  0.00  0.00    -0.284 N 
ATOM      2  H   UNL     1       9.504  -0.159  25.869  0.00  0.00    +0.155 HD
ATOM      3  C   UNL     1       8.827   0.340  24.075  0.00  0.00    +0.221 A 
ATOM      4  N   UNL     1       8.014   0.113  23.031  0.00  0.00    -0.223 NA
ATOM      5  C   UNL     1       8.061   0.975  22.004  0.00  0.00    +0.118 A 
ATOM      6  C   UNL     1       8.883   2.068  21.980  0.00  0.00    +0.063 A 
ATOM      7  C   UNL     1       9.718   2.211  23.067  0.00  0.00    +0.128 A 
ATOM      8  N   UNL     1       9.677   1.370  24.118  0.00  0.00    -0.199 NA
ENDROOT
BRANCH   1  12
ATOM      9  C   UNL     1       7.461  -4.488  25.571  0.00  0.00    +0.121 A 
ATOM     10  C   UNL     1       6.782  -3.443  26.202  0.00  0.00    +0.047 A 
ATOM     11  C   UNL     1       7.249  -2.119  26.090  0.00  0.00    +0.027 A 
ATOM     12  C   UNL     1       8.402  -1.816  25.348  0.00  0.00    +0.034 A 
ATOM     13  C   UNL     1       9.042  -2.871  24.704  0.00  0.00    +0.027 A 
ATOM     14  C   UNL     1       8.585  -4.178  24.810  0.00  0.00    +0.047 A 
BRANCH   9  15
ATOM     15  O   UNL     1       6.973  -5.768  25.742  0.00  0.00    -0.489 OA
BRANCH  15  16
ATOM     16  C   UNL     1       5.561  -5.859  25.476  0.00  0.00    +0.261 C 
BRANCH  16  17
ATOM     17  C   UNL     1       5.251  -6.223  24.025  0.00  0.00    +0.166 C 
BRANCH  17  18
ATOM     18  O   UNL     1       4.405  -7.382  23.989  0.00  0.00    -0.387 OA
ATOM     19  H   UNL     1       3.499  -7.053  23.835  0.00  0.00    +0.210 HD
ENDBRANCH  17  18
BRANCH  17  20
ATOM     20  C   UNL     1       4.500  -5.050  23.342  0.00  0.00    +0.118 C 
BRANCH  20  21
ATOM     21  N   UNL     1       5.184  -4.384  22.212  0.00  0.00    -0.306 NA
ATOM     22  C   UNL     1       6.337  -5.185  21.788  0.00  0.00    +0.104 C 
ATOM     23  C   UNL     1       5.619  -3.029  22.555  0.00  0.00    +0.104 C 
ENDBRANCH  20  21
ENDBRANCH  17  20
ENDBRANCH  16  17
ENDBRANCH  15  16
ENDBRANCH   9  15
ENDBRANCH   1  12
BRANCH   7  24
ATOM     24  N   UNL     1      10.691   3.227  23.034  0.00  0.00    -0.298 N 
ATOM     25  H   UNL     1      11.178   3.270  22.144  0.00  0.00    +0.154 HD
BRANCH  24  26
ATOM     26  C   UNL     1      10.616   4.467  23.709  0.00  0.00    +0.052 A 
ATOM     27  C   UNL     1       9.443   4.834  24.395  0.00  0.00    +0.044 A 
ATOM     28  C   UNL     1       9.380   6.010  25.139  0.00  0.00    +0.043 A 
ATOM     29 CL   UNL     1       7.919   6.429  25.945  0.00  0.00    -0.083 Cl
ATOM     30  C   UNL     1      10.494   6.835  25.240  0.00  0.00    +0.021 A 
ATOM     31  C   UNL     1      11.672   6.489  24.575  0.00  0.00    +0.023 A 
ATOM     32  C   UNL     1      11.731   5.316  23.814  0.00  0.00    +0.062 A 
ATOM     33 CL   UNL     1      13.207   4.939  22.994  0.00  0.00    -0.082 Cl
ENDBRANCH  24  26
ENDBRANCH   7  24
TORSDOF 9
ENDMDL
MODEL 2
REMARK VINA RESULT:      -6.9      1.610      2.693
REMARK  Name = 
REMARK  11 active torsions:
REMARK  status: ('A' for Active; 'I' for Inactive)
REMARK    1  A    between atoms: C_2  and  O_3
REMARK    2  A    between atoms: C_2  and  C_4
REMARK    3  A    between atoms: C_2  and  C_28
REMARK    4  A    between atoms: C_4  and  O_5
REMARK    5  A    between atoms: O_5  and  C_6
REMARK    6  A    between atoms: C_9  and  N_10
REMARK    7  A    between atoms: C_13  and  N_14
REMARK    8  A    between atoms: N_14  and  C_15
REMARK    9  A    between atoms: C_28  and  N_29
REMARK   10  A    between atoms: N_29  and  C_30
REMARK   11  A    between atoms: N_29  and  C_31
REMARK                            x       y       z     vdW  Elec       q    Type
REMARK                         _______ _______ _______ _____ _____    ______ ____
ROOT
ATOM      1  N   UNL     1       8.197  -1.074  22.439  0.00  0.00    -0.284 N 
ATOM      2  H   UNL     1       7.904  -0.579  21.608  0.00  0.00    +0.155 HD
ATOM      3  C   UNL     1       9.107  -0.297  23.157  0.00  0.00    +0.221 A 
ATOM      4  N   UNL     1       9.648  -0.729  24.307  0.00  0.00    -0.223 NA
ATOM      5  C   UNL     1      10.532   0.072  24.922  0.00  0.00    +0.118 A 
ATOM      6  C   UNL     1      10.911   1.289  24.426  0.00  0.00    +0.063 A 
ATOM      7  C   UNL     1      10.282   1.683  23.265  0.00  0.00    +0.128 A 
ATOM      8  N   UNL     1       9.405   0.890  22.621  0.00  0.00    -0.199 NA
ENDROOT
BRANCH   1  12
ATOM      9  C   UNL     1       5.651  -4.265  23.589  0.00  0.00    +0.121 A 
ATOM     10  C   UNL     1       5.275  -2.939  23.816  0.00  0.00    +0.047 A 
ATOM     11  C   UNL     1       6.131  -1.882  23.449  0.00  0.00    +0.027 A 
ATOM     12  C   UNL     1       7.377  -2.131  22.851  0.00  0.00    +0.034 A 
ATOM     13  C   UNL     1       7.715  -3.460  22.607  0.00  0.00    +0.027 A 
ATOM     14  C   UNL     1       6.873  -4.505  22.966  0.00  0.00    +0.047 A 
BRANCH   9  15
ATOM     15  O   UNL     1       4.785  -5.259  23.997  0.00  0.00    -0.489 OA
BRANCH  15  16
ATOM     16  C   UNL     1       5.448  -6.292  24.750  0.00  0.00    +0.261 C 
BRANCH  16  17
ATOM     17  C   UNL     1       5.459  -6.017  26.253  0.00  0.00    +0.166 C 
BRANCH  17  18
ATOM     18  O   UNL     1       5.081  -7.207  26.963  0.00  0.00    -0.387 OA
ATOM     19  H   UNL     1       4.123  -7.320  26.812  0.00  0.00    +0.210 HD
ENDBRANCH  17  18
BRANCH  17  20
ATOM     20  C   UNL     1       6.889  -5.617  26.700  0.00  0.00    +0.118 C 
BRANCH  20  21
ATOM     21  N   UNL     1       7.052  -4.277  27.305  0.00  0.00    -0.306 NA
ATOM     22  C   UNL     1       5.741  -3.633  27.444  0.00  0.00    +0.104 C 
ATOM     23  C   UNL     1       7.943  -3.423  26.517  0.00  0.00    +0.104 C 
ENDBRANCH  20  21
ENDBRANCH  17  20
ENDBRANCH  16  17
ENDBRANCH  15  16
ENDBRANCH   9  15
ENDBRANCH   1  12
BRANCH   7  24
ATOM     24  N   UNL     1      10.515   2.985  22.787  0.00  0.00    -0.298 N 
ATOM     25  H   UNL     1      10.355   3.066  21.787  0.00  0.00    +0.154 HD
BRANCH  24  26
ATOM     26  C   UNL     1      10.289   4.183  23.504  0.00  0.00    +0.052 A 
ATOM     27  C   UNL     1       9.052   4.412  24.135  0.00  0.00    +0.044 A 
ATOM     28  C   UNL     1       8.840   5.544  24.918  0.00  0.00    +0.043 A 
ATOM     29 CL   UNL     1       7.305   5.794  25.654  0.00  0.00    -0.083 Cl
ATOM     30  C   UNL     1       9.866   6.461  25.116  0.00  0.00    +0.021 A 
ATOM     31  C   UNL     1      11.105   6.252  24.508  0.00  0.00    +0.023 A 
ATOM     32  C   UNL     1      11.314   5.123  23.707  0.00  0.00    +0.062 A 
ATOM     33 CL   UNL     1      12.860   4.917  22.960  0.00  0.00    -0.082 Cl
ENDBRANCH  24  26
ENDBRANCH   7  24
TORSDOF 9
ENDMDL
MODEL 3
REMARK VINA RESULT:      -6.9      2.022      3.646
REMARK  Name = 
REMARK  11 active torsions:
REMARK  status: ('A' for Active; 'I' for Inactive)
REMARK    1  A    between atoms: C_2  and  O_3
REMARK    2  A    between atoms: C_2  and  C_4
REMARK    3  A    between atoms: C_2  and  C_28
REMARK    4  A    between atoms: C_4  and  O_5
REMARK    5  A    between atoms: O_5  and  C_6
REMARK    6  A    between atoms: C_9  and  N_10
REMARK    7  A    between atoms: C_13  and  N_14
REMARK    8  A    between atoms: N_14  and  C_15
REMARK    9  A    between atoms: C_28  and  N_29
REMARK   10  A    between atoms: N_29  and  C_30
REMARK   11  A    between atoms: N_29  and  C_31
REMARK                            x       y       z     vdW  Elec       q    Type
REMARK                         _______ _______ _______ _____ _____    ______ ____
ROOT
ATOM      1  N   UNL     1       7.887  -2.521  22.102  0.00  0.00    -0.284 N 
ATOM      2  H   UNL     1       7.854  -2.167  21.157  0.00  0.00    +0.155 HD
ATOM      3  C   UNL     1       8.589  -1.631  22.917  0.00  0.00    +0.221 A 
ATOM      4  N   UNL     1       8.774  -1.871  24.225  0.00  0.00    -0.223 NA
ATOM      5  C   UNL     1       9.481  -0.974  24.930  0.00  0.00    +0.118 A 
ATOM      6  C   UNL     1      10.024   0.153  24.378  0.00  0.00    +0.063 A 
ATOM      7  C   UNL     1       9.756   0.352  23.042  0.00  0.00    +0.128 A 
ATOM      8  N   UNL     1       9.065  -0.541  22.308  0.00  0.00    -0.199 NA
ENDROOT
BRANCH   1  12
ATOM      9  C   UNL     1       4.999  -5.499  22.980  0.00  0.00    +0.121 A 
ATOM     10  C   UNL     1       4.679  -4.145  23.095  0.00  0.00    +0.047 A 
ATOM     11  C   UNL     1       5.647  -3.158  22.820  0.00  0.00    +0.027 A 
ATOM     12  C   UNL     1       6.948  -3.507  22.427  0.00  0.00    +0.034 A 
ATOM     13  C   UNL     1       7.232  -4.864  22.289  0.00  0.00    +0.027 A 
ATOM     14  C   UNL     1       6.281  -5.840  22.558  0.00  0.00    +0.047 A 
BRANCH   9  15
ATOM     15  O   UNL     1       4.019  -6.421  23.292  0.00  0.00    -0.489 OA
BRANCH  15  16
ATOM     16  C   UNL     1       3.065  -5.909  24.241  0.00  0.00    +0.261 C 
BRANCH  16  17
ATOM     17  C   UNL     1       3.039  -6.704  25.545  0.00  0.00    +0.166 C 
BRANCH  17  18
ATOM     18  O   UNL     1       3.574  -8.018  25.319  0.00  0.00    -0.387 OA
ATOM     19  H   UNL     1       4.130  -7.951  24.520  0.00  0.00    +0.210 HD
ENDBRANCH  17  18
BRANCH  17  20
ATOM     20  C   UNL     1       3.920  -5.995  26.606  0.00  0.00    +0.118 C 
BRANCH  20  21
ATOM     21  N   UNL     1       5.245  -6.593  26.885  0.00  0.00    -0.306 NA
ATOM     22  C   UNL     1       5.334  -6.960  28.302  0.00  0.00    +0.104 C 
ATOM     23  C   UNL     1       6.340  -5.687  26.537  0.00  0.00    +0.104 C 
ENDBRANCH  20  21
ENDBRANCH  17  20
ENDBRANCH  16  17
ENDBRANCH  15  16
ENDBRANCH   9  15
ENDBRANCH   1  12
BRANCH   7  24
ATOM     24  N   UNL     1      10.157   1.565  22.452  0.00  0.00    -0.298 N 
ATOM     25  H   UNL     1      10.075   1.551  21.440  0.00  0.00    +0.154 HD
BRANCH  24  26
ATOM     26  C   UNL     1      10.014   2.851  23.023  0.00  0.00    +0.052 A 
ATOM     27  C   UNL     1      11.147   3.643  23.286  0.00  0.00    +0.044 A 
ATOM     28  C   UNL     1      11.022   4.945  23.765  0.00  0.00    +0.043 A 
ATOM     29 CL   UNL     1      12.434   5.870  24.093  0.00  0.00    -0.083 Cl
ATOM     30  C   UNL     1       9.763   5.499  23.966  0.00  0.00    +0.021 A 
ATOM     31  C   UNL     1       8.623   4.736  23.704  0.00  0.00    +0.023 A 
ATOM     32  C   UNL     1       8.748   3.422  23.238  0.00  0.00    +0.062 A 
ATOM     33 CL   UNL     1       7.307   2.511  22.945  0.00  0.00    -0.082 Cl
ENDBRANCH  24  26
ENDBRANCH   7  24
TORSDOF 9
ENDMDL
MODEL 4
REMARK VINA RESULT:      -6.7      5.089      9.705
REMARK  Name = 
REMARK  11 active torsions:
REMARK  status: ('A' for Active; 'I' for Inactive)
REMARK    1  A    between atoms: C_2  and  O_3
REMARK    2  A    between atoms: C_2  and  C_4
REMARK    3  A    between atoms: C_2  and  C_28
REMARK    4  A    between atoms: C_4  and  O_5
REMARK    5  A    between atoms: O_5  and  C_6
REMARK    6  A    between atoms: C_9  and  N_10
REMARK    7  A    between atoms: C_13  and  N_14
REMARK    8  A    between atoms: N_14  and  C_15
REMARK    9  A    between atoms: C_28  and  N_29
REMARK   10  A    between atoms: N_29  and  C_30
REMARK   11  A    between atoms: N_29  and  C_31
REMARK                            x       y       z     vdW  Elec       q    Type
REMARK                         _______ _______ _______ _____ _____    ______ ____
ROOT
ATOM      1  N   UNL     1       8.716  -3.503  23.890  0.00  0.00    -0.284 N 
ATOM      2  H   UNL     1       8.978  -4.184  24.588  0.00  0.00    +0.155 HD
ATOM      3  C   UNL     1       7.548  -3.912  23.244  0.00  0.00    +0.221 A 
ATOM      4  N   UNL     1       6.989  -3.178  22.270  0.00  0.00    -0.223 NA
ATOM      5  C   UNL     1       5.879  -3.656  21.686  0.00  0.00    +0.118 A 
ATOM      6  C   UNL     1       5.308  -4.851  22.028  0.00  0.00    +0.063 A 
ATOM      7  C   UNL     1       5.914  -5.527  23.064  0.00  0.00    +0.128 A 
ATOM      8  N   UNL     1       7.038  -5.077  23.653  0.00  0.00    -0.199 NA
ENDROOT
BRANCH   1  12
ATOM      9  C   UNL     1      10.361   0.391  24.221  0.00  0.00    +0.121 A 
ATOM     10  C   UNL     1      10.564  -0.370  23.067  0.00  0.00    +0.047 A 
ATOM     11  C   UNL     1      10.031  -1.670  22.968  0.00  0.00    +0.027 A 
ATOM     12  C   UNL     1       9.289  -2.233  24.018  0.00  0.00    +0.034 A 
ATOM     13  C   UNL     1       9.074  -1.441  25.145  0.00  0.00    +0.027 A 
ATOM     14  C   UNL     1       9.596  -0.159  25.246  0.00  0.00    +0.047 A 
BRANCH   9  15
ATOM     15  O   UNL     1      10.933   1.647  24.273  0.00  0.00    -0.489 OA
BRANCH  15  16
ATOM     16  C   UNL     1      10.528   2.481  23.172  0.00  0.00    +0.261 C 
BRANCH  16  17
ATOM     17  C   UNL     1       9.267   3.289  23.470  0.00  0.00    +0.166 C 
BRANCH  17  18
ATOM     18  O   UNL     1       9.532   4.687  23.275  0.00  0.00    -0.387 OA
ATOM     19  H   UNL     1       8.771   5.040  22.776  0.00  0.00    +0.210 HD
ENDBRANCH  17  18
BRANCH  17  20
ATOM     20  C   UNL     1       8.134   2.868  22.498  0.00  0.00    +0.118 C 
BRANCH  20  21
ATOM     21  N   UNL     1       6.954   2.201  23.091  0.00  0.00    -0.306 NA
ATOM     22  C   UNL     1       6.969   0.773  22.754  0.00  0.00    +0.104 C 
ATOM     23  C   UNL     1       5.699   2.804  22.641  0.00  0.00    +0.104 C 
ENDBRANCH  20  21
ENDBRANCH  17  20
ENDBRANCH  16  17
ENDBRANCH  15  16
ENDBRANCH   9  15
ENDBRANCH   1  12
BRANCH   7  24
ATOM     24  N   UNL     1       5.290  -6.685  23.563  0.00  0.00    -0.298 N 
ATOM     25  H   UNL     1       5.869  -7.513  23.462  0.00  0.00    +0.154 HD
BRANCH  24  26
ATOM     26  C   UNL     1       4.398  -6.738  24.659  0.00  0.00    +0.052 A 
ATOM     27  C   UNL     1       4.891  -6.762  25.977  0.00  0.00    +0.044 A 
ATOM     28  C   UNL     1       4.030  -6.725  27.071  0.00  0.00    +0.043 A 
ATOM     29 CL   UNL     1       4.675  -6.779  28.664  0.00  0.00    -0.083 Cl
ATOM     30  C   UNL     1       2.656  -6.633  26.878  0.00  0.00    +0.021 A 
ATOM     31  C   UNL     1       2.142  -6.599  25.580  0.00  0.00    +0.023 A 
ATOM     32  C   UNL     1       3.007  -6.653  24.480  0.00  0.00    +0.062 A 
ATOM     33 CL   UNL     1       2.322  -6.625  22.892  0.00  0.00    -0.082 Cl
ENDBRANCH  24  26
ENDBRANCH   7  24
TORSDOF 9
ENDMDL
MODEL 5
REMARK VINA RESULT:      -6.6      1.857      2.726
REMARK  Name = 
REMARK  11 active torsions:
REMARK  status: ('A' for Active; 'I' for Inactive)
REMARK    1  A    between atoms: C_2  and  O_3
REMARK    2  A    between atoms: C_2  and  C_4
REMARK    3  A    between atoms: C_2  and  C_28
REMARK    4  A    between atoms: C_4  and  O_5
REMARK    5  A    between atoms: O_5  and  C_6
REMARK    6  A    between atoms: C_9  and  N_10
REMARK    7  A    between atoms: C_13  and  N_14
REMARK    8  A    between atoms: N_14  and  C_15
REMARK    9  A    between atoms: C_28  and  N_29
REMARK   10  A    between atoms: N_29  and  C_30
REMARK   11  A    between atoms: N_29  and  C_31
REMARK                            x       y       z     vdW  Elec       q    Type
REMARK                         _______ _______ _______ _____ _____    ______ ____
ROOT
ATOM      1  N   UNL     1       7.483  -0.512  22.780  0.00  0.00    -0.284 N 
ATOM      2  H   UNL     1       7.138   0.091  22.047  0.00  0.00    +0.155 HD
ATOM      3  C   UNL     1       8.627   0.045  23.354  0.00  0.00    +0.221 A 
ATOM      4  N   UNL     1       9.279  -0.564  24.357  0.00  0.00    -0.223 NA
ATOM      5  C   UNL     1      10.383   0.030  24.835  0.00  0.00    +0.118 A 
ATOM      6  C   UNL     1      10.874   1.208  24.342  0.00  0.00    +0.063 A 
ATOM      7  C   UNL     1      10.127   1.794  23.343  0.00  0.00    +0.128 A 
ATOM      8  N   UNL     1       9.026   1.209  22.835  0.00  0.00    -0.199 NA
ENDROOT
BRANCH   1  12
ATOM      9  C   UNL     1       4.653  -3.297  24.270  0.00  0.00    +0.121 A 
ATOM     10  C   UNL     1       5.042  -2.199  25.040  0.00  0.00    +0.047 A 
ATOM     11  C   UNL     1       5.995  -1.286  24.549  0.00  0.00    +0.027 A 
ATOM     12  C   UNL     1       6.578  -1.454  23.283  0.00  0.00    +0.034 A 
ATOM     13  C   UNL     1       6.150  -2.540  22.522  0.00  0.00    +0.027 A 
ATOM     14  C   UNL     1       5.209  -3.441  23.001  0.00  0.00    +0.047 A 
BRANCH   9  15
ATOM     15  O   UNL     1       3.737  -4.175  24.815  0.00  0.00    -0.489 OA
BRANCH  15  16
ATOM     16  C   UNL     1       3.577  -5.366  24.023  0.00  0.00    +0.261 C 
BRANCH  16  17
ATOM     17  C   UNL     1       3.774  -6.648  24.830  0.00  0.00    +0.166 C 
BRANCH  17  18
ATOM     18  O   UNL     1       3.548  -7.788  23.986  0.00  0.00    -0.387 OA
ATOM     19  H   UNL     1       4.422  -8.043  23.635  0.00  0.00    +0.210 HD
ENDBRANCH  17  18
BRANCH  17  20
ATOM     20  C   UNL     1       5.231  -6.714  25.357  0.00  0.00    +0.118 C 
BRANCH  20  21
ATOM     21  N   UNL     1       5.421  -6.587  26.820  0.00  0.00    -0.306 NA
ATOM     22  C   UNL     1       4.115  -6.531  27.486  0.00  0.00    +0.104 C 
ATOM     23  C   UNL     1       6.210  -5.405  27.171  0.00  0.00    +0.104 C 
ENDBRANCH  20  21
ENDBRANCH  17  20
ENDBRANCH  16  17
ENDBRANCH  15  16
ENDBRANCH   9  15
ENDBRANCH   1  12
BRANCH   7  24
ATOM     24  N   UNL     1      10.495   3.077  22.899  0.00  0.00    -0.298 N 
ATOM     25  H   UNL     1      10.399   3.183  21.894  0.00  0.00    +0.154 HD
BRANCH  24  26
ATOM     26  C   UNL     1      10.330   4.282  23.622  0.00  0.00    +0.052 A 
ATOM     27  C   UNL     1       9.171   4.497  24.390  0.00  0.00    +0.044 A 
ATOM     28  C   UNL     1       9.029   5.637  25.178  0.00  0.00    +0.043 A 
ATOM     29 CL   UNL     1       7.586   5.870  26.086  0.00  0.00    -0.083 Cl
ATOM     30  C   UNL     1      10.052   6.576  25.242  0.00  0.00    +0.021 A 
ATOM     31  C   UNL     1      11.216   6.381  24.496  0.00  0.00    +0.023 A 
ATOM     32  C   UNL     1      11.352   5.244  23.690  0.00  0.00    +0.062 A 
ATOM     33 CL   UNL     1      12.804   5.055  22.771  0.00  0.00    -0.082 Cl
ENDBRANCH  24  26
ENDBRANCH   7  24
TORSDOF 9
ENDMDL
MODEL 6
REMARK VINA RESULT:      -6.6      1.934      3.129
REMARK  Name = 
REMARK  11 active torsions:
REMARK  status: ('A' for Active; 'I' for Inactive)
REMARK    1  A    between atoms: C_2  and  O_3
REMARK    2  A    between atoms: C_2  and  C_4
REMARK    3  A    between atoms: C_2  and  C_28
REMARK    4  A    between atoms: C_4  and  O_5
REMARK    5  A    between atoms: O_5  and  C_6
REMARK    6  A    between atoms: C_9  and  N_10
REMARK    7  A    between atoms: C_13  and  N_14
REMARK    8  A    between atoms: N_14  and  C_15
REMARK    9  A    between atoms: C_28  and  N_29
REMARK   10  A    between atoms: N_29  and  C_30
REMARK   11  A    between atoms: N_29  and  C_31
REMARK                            x       y       z     vdW  Elec       q    Type
REMARK                         _______ _______ _______ _____ _____    ______ ____
ROOT
ATOM      1  N   UNL     1       8.328  -1.801  22.182  0.00  0.00    -0.284 N 
ATOM      2  H   UNL     1       8.389  -1.345  21.283  0.00  0.00    +0.155 HD
ATOM      3  C   UNL     1       8.929  -1.005  23.159  0.00  0.00    +0.221 A 
ATOM      4  N   UNL     1       8.980  -1.386  24.444  0.00  0.00    -0.223 NA
ATOM      5  C   UNL     1       9.597  -0.572  25.314  0.00  0.00    +0.118 A 
ATOM      6  C   UNL     1      10.180   0.611  24.948  0.00  0.00    +0.063 A 
ATOM      7  C   UNL     1      10.049   0.955  23.621  0.00  0.00    +0.128 A 
ATOM      8  N   UNL     1       9.451   0.146  22.726  0.00  0.00    -0.199 NA
ENDROOT
BRANCH   1  12
ATOM      9  C   UNL     1       5.465  -4.896  22.642  0.00  0.00    +0.121 A 
ATOM     10  C   UNL     1       6.812  -5.199  22.433  0.00  0.00    +0.047 A 
ATOM     11  C   UNL     1       7.758  -4.169  22.262  0.00  0.00    +0.027 A 
ATOM     12  C   UNL     1       7.374  -2.819  22.297  0.00  0.00    +0.034 A 
ATOM     13  C   UNL     1       6.031  -2.542  22.539  0.00  0.00    +0.027 A 
ATOM     14  C   UNL     1       5.096  -3.554  22.709  0.00  0.00    +0.047 A 
BRANCH   9  15
ATOM     15  O   UNL     1       4.581  -5.947  22.773  0.00  0.00    -0.489 OA
BRANCH  15  16
ATOM     16  C   UNL     1       3.446  -5.614  23.595  0.00  0.00    +0.261 C 
BRANCH  16  17
ATOM     17  C   UNL     1       3.245  -6.588  24.753  0.00  0.00    +0.166 C 
BRANCH  17  18
ATOM     18  O   UNL     1       3.887  -7.836  24.451  0.00  0.00    -0.387 OA
ATOM     19  H   UNL     1       4.496  -7.656  23.710  0.00  0.00    +0.210 HD
ENDBRANCH  17  18
BRANCH  17  20
ATOM     20  C   UNL     1       3.887  -6.009  26.041  0.00  0.00    +0.118 C 
BRANCH  20  21
ATOM     21  N   UNL     1       5.191  -6.574  26.452  0.00  0.00    -0.306 NA
ATOM     22  C   UNL     1       5.160  -6.903  27.881  0.00  0.00    +0.104 C 
ATOM     23  C   UNL     1       6.298  -5.657  26.177  0.00  0.00    +0.104 C 
ENDBRANCH  20  21
ENDBRANCH  17  20
ENDBRANCH  16  17
ENDBRANCH  15  16
ENDBRANCH   9  15
ENDBRANCH   1  12
BRANCH   7  24
ATOM     24  N   UNL     1      10.494   2.226  23.213  0.00  0.00    -0.298 N 
ATOM     25  H   UNL     1      10.921   2.211  22.291  0.00  0.00    +0.154 HD
BRANCH  24  26
ATOM     26  C   UNL     1       9.891   3.461  23.546  0.00  0.00    +0.052 A 
ATOM     27  C   UNL     1       8.516   3.524  23.842  0.00  0.00    +0.044 A 
ATOM     28  C   UNL     1       7.921   4.713  24.258  0.00  0.00    +0.043 A 
ATOM     29 CL   UNL     1       6.234   4.749  24.588  0.00  0.00    -0.083 Cl
ATOM     30  C   UNL     1       8.688   5.861  24.419  0.00  0.00    +0.021 A 
ATOM     31  C   UNL     1      10.056   5.822  24.140  0.00  0.00    +0.023 A 
ATOM     32  C   UNL     1      10.651   4.631  23.706  0.00  0.00    +0.062 A 
ATOM     33 CL   UNL     1      12.345   4.637  23.357  0.00  0.00    -0.082 Cl
ENDBRANCH  24  26
ENDBRANCH   7  24
TORSDOF 9
ENDMDL
MODEL 7
REMARK VINA RESULT:      -6.6      2.480      3.328
REMARK  Name = 
REMARK  11 active torsions:
REMARK  status: ('A' for Active; 'I' for Inactive)
REMARK    1  A    between atoms: C_2  and  O_3
REMARK    2  A    between atoms: C_2  and  C_4
REMARK    3  A    between atoms: C_2  and  C_28
REMARK    4  A    between atoms: C_4  and  O_5
REMARK    5  A    between atoms: O_5  and  C_6
REMARK    6  A    between atoms: C_9  and  N_10
REMARK    7  A    between atoms: C_13  and  N_14
REMARK    8  A    between atoms: N_14  and  C_15
REMARK    9  A    between atoms: C_28  and  N_29
REMARK   10  A    between atoms: N_29  and  C_30
REMARK   11  A    between atoms: N_29  and  C_31
REMARK                            x       y       z     vdW  Elec       q    Type
REMARK                         _______ _______ _______ _____ _____    ______ ____
ROOT
ATOM      1  N   UNL     1       8.315  -1.700  23.669  0.00  0.00    -0.284 N 
ATOM      2  H   UNL     1       7.592  -1.585  22.973  0.00  0.00    +0.155 HD
ATOM      3  C   UNL     1       9.059  -0.524  23.778  0.00  0.00    +0.221 A 
ATOM      4  N   UNL     1      10.084  -0.417  24.639  0.00  0.00    -0.223 NA
ATOM      5  C   UNL     1      10.760   0.742  24.663  0.00  0.00    +0.118 A 
ATOM      6  C   UNL     1      10.462   1.801  23.850  0.00  0.00    +0.063 A 
ATOM      7  C   UNL     1       9.372   1.631  23.025  0.00  0.00    +0.128 A 
ATOM      8  N   UNL     1       8.689   0.472  22.969  0.00  0.00    -0.199 NA
ENDROOT
BRANCH   1  12
ATOM      9  C   UNL     1       7.699  -4.930  26.346  0.00  0.00    +0.121 A 
ATOM     10  C   UNL     1       7.088  -3.695  26.572  0.00  0.00    +0.047 A 
ATOM     11  C   UNL     1       7.309  -2.618  25.690  0.00  0.00    +0.027 A 
ATOM     12  C   UNL     1       8.145  -2.757  24.570  0.00  0.00    +0.034 A 
ATOM     13  C   UNL     1       8.716  -4.009  24.351  0.00  0.00    +0.027 A 
ATOM     14  C   UNL     1       8.500  -5.072  25.216  0.00  0.00    +0.047 A 
BRANCH   9  15
ATOM     15  O   UNL     1       7.468  -5.938  27.261  0.00  0.00    -0.489 OA
BRANCH  15  16
ATOM     16  C   UNL     1       6.268  -5.724  28.026  0.00  0.00    +0.261 C 
BRANCH  16  17
ATOM     17  C   UNL     1       5.151  -6.703  27.666  0.00  0.00    +0.166 C 
BRANCH  17  18
ATOM     18  O   UNL     1       4.794  -7.473  28.824  0.00  0.00    -0.387 OA
ATOM     19  H   UNL     1       5.265  -7.066  29.577  0.00  0.00    +0.210 HD
ENDBRANCH  17  18
BRANCH  17  20
ATOM     20  C   UNL     1       3.898  -5.916  27.199  0.00  0.00    +0.118 C 
BRANCH  20  21
ATOM     21  N   UNL     1       3.612  -5.913  25.747  0.00  0.00    -0.306 NA
ATOM     22  C   UNL     1       4.472  -6.889  25.070  0.00  0.00    +0.104 C 
ATOM     23  C   UNL     1       3.802  -4.588  25.154  0.00  0.00    +0.104 C 
ENDBRANCH  20  21
ENDBRANCH  17  20
ENDBRANCH  16  17
ENDBRANCH  15  16
ENDBRANCH   9  15
ENDBRANCH   1  12
BRANCH   7  24
ATOM     24  N   UNL     1       8.923   2.734  22.275  0.00  0.00    -0.298 N 
ATOM     25  H   UNL     1       9.076   2.614  21.278  0.00  0.00    +0.154 HD
BRANCH  24  26
ATOM     26  C   UNL     1       7.816   3.555  22.593  0.00  0.00    +0.052 A 
ATOM     27  C   UNL     1       6.509   3.142  22.273  0.00  0.00    +0.044 A 
ATOM     28  C   UNL     1       5.401   3.894  22.655  0.00  0.00    +0.043 A 
ATOM     29 CL   UNL     1       3.822   3.361  22.225  0.00  0.00    -0.083 Cl
ATOM     30  C   UNL     1       5.567   5.061  23.391  0.00  0.00    +0.021 A 
ATOM     31  C   UNL     1       6.853   5.488  23.728  0.00  0.00    +0.023 A 
ATOM     32  C   UNL     1       7.968   4.741  23.330  0.00  0.00    +0.062 A 
ATOM     33 CL   UNL     1       9.541   5.320  23.756  0.00  0.00    -0.082 Cl
ENDBRANCH  24  26
ENDBRANCH   7  24
TORSDOF 9
ENDMDL
MODEL 8
REMARK VINA RESULT:      -6.5      4.956     10.302
REMARK  Name = 
REMARK  11 active torsions:
REMARK  status: ('A' for Active; 'I' for Inactive)
REMARK    1  A    between atoms: C_2  and  O_3
REMARK    2  A    between atoms: C_2  and  C_4
REMARK    3  A    between atoms: C_2  and  C_28
REMARK    4  A    between atoms: C_4  and  O_5
REMARK    5  A    between atoms: O_5  and  C_6
REMARK    6  A    between atoms: C_9  and  N_10
REMARK    7  A    between atoms: C_13  and  N_14
REMARK    8  A    between atoms: N_14  and  C_15
REMARK    9  A    between atoms: C_28  and  N_29
REMARK   10  A    between atoms: N_29  and  C_30
REMARK   11  A    between atoms: N_29  and  C_31
REMARK                            x       y       z     vdW  Elec       q    Type
REMARK                         _______ _______ _______ _____ _____    ______ ____
ROOT
ATOM      1  N   UNL     1       8.057  -3.989  24.797  0.00  0.00    -0.284 N 
ATOM      2  H   UNL     1       7.867  -4.427  25.687  0.00  0.00    +0.155 HD
ATOM      3  C   UNL     1       7.248  -4.552  23.808  0.00  0.00    +0.221 A 
ATOM      4  N   UNL     1       7.308  -4.141  22.532  0.00  0.00    -0.223 NA
ATOM      5  C   UNL     1       6.512  -4.752  21.641  0.00  0.00    +0.118 A 
ATOM      6  C   UNL     1       5.662  -5.772  21.972  0.00  0.00    +0.063 A 
ATOM      7  C   UNL     1       5.625  -6.109  23.308  0.00  0.00    +0.128 A 
ATOM      8  N   UNL     1       6.427  -5.523  24.217  0.00  0.00    -0.199 NA
ENDROOT
BRANCH   1  12
ATOM      9  C   UNL     1       9.960  -0.200  24.864  0.00  0.00    +0.121 A 
ATOM     10  C   UNL     1      10.211  -1.102  23.828  0.00  0.00    +0.047 A 
ATOM     11  C   UNL     1       9.591  -2.367  23.818  0.00  0.00    +0.027 A 
ATOM     12  C   UNL     1       8.712  -2.752  24.843  0.00  0.00    +0.034 A 
ATOM     13  C   UNL     1       8.454  -1.822  25.848  0.00  0.00    +0.027 A 
ATOM     14  C   UNL     1       9.062  -0.574  25.861  0.00  0.00    +0.047 A 
BRANCH   9  15
ATOM     15  O   UNL     1      10.620   1.013  24.836  0.00  0.00    -0.489 OA
BRANCH  15  16
ATOM     16  C   UNL     1       9.803   2.071  24.302  0.00  0.00    +0.261 C 
BRANCH  16  17
ATOM     17  C   UNL     1      10.565   2.985  23.344  0.00  0.00    +0.166 C 
BRANCH  17  18
ATOM     18  O   UNL     1      10.282   2.606  21.988  0.00  0.00    -0.387 OA
ATOM     19  H   UNL     1       9.765   3.340  21.603  0.00  0.00    +0.210 HD
ENDBRANCH  17  18
BRANCH  17  20
ATOM     20  C   UNL     1      10.106   4.452  23.545  0.00  0.00    +0.118 C 
BRANCH  20  21
ATOM     21  N   UNL     1      11.155   5.496  23.495  0.00  0.00    -0.306 NA
ATOM     22  C   UNL     1      12.473   4.867  23.360  0.00  0.00    +0.104 C 
ATOM     23  C   UNL     1      11.132   6.354  24.679  0.00  0.00    +0.104 C 
ENDBRANCH  20  21
ENDBRANCH  17  20
ENDBRANCH  16  17
ENDBRANCH  15  16
ENDBRANCH   9  15
ENDBRANCH   1  12
BRANCH   7  24
ATOM     24  N   UNL     1       4.665  -7.044  23.736  0.00  0.00    -0.298 N 
ATOM     25  H   UNL     1       5.012  -7.998  23.707  0.00  0.00    +0.154 HD
BRANCH  24  26
ATOM     26  C   UNL     1       3.674  -6.821  24.720  0.00  0.00    +0.052 A 
ATOM     27  C   UNL     1       3.988  -6.945  26.086  0.00  0.00    +0.044 A 
ATOM     28  C   UNL     1       3.052  -6.644  27.072  0.00  0.00    +0.043 A 
ATOM     29 CL   UNL     1       3.472  -6.830  28.730  0.00  0.00    -0.083 Cl
ATOM     30  C   UNL     1       1.787  -6.185  26.720  0.00  0.00    +0.021 A 
ATOM     31  C   UNL     1       1.454  -6.046  25.372  0.00  0.00    +0.023 A 
ATOM     32  C   UNL     1       2.390  -6.364  24.380  0.00  0.00    +0.062 A 
ATOM     33 CL   UNL     1       1.924  -6.192  22.723  0.00  0.00    -0.082 Cl
ENDBRANCH  24  26
ENDBRANCH   7  24
TORSDOF 9
ENDMDL
MODEL 9
REMARK VINA RESULT:      -6.5      4.978     10.064
REMARK  Name = 
REMARK  11 active torsions:
REMARK  status: ('A' for Active; 'I' for Inactive)
REMARK    1  A    between atoms: C_2  and  O_3
REMARK    2  A    between atoms: C_2  and  C_4
REMARK    3  A    between atoms: C_2  and  C_28
REMARK    4  A    between atoms: C_4  and  O_5
REMARK    5  A    between atoms: O_5  and  C_6
REMARK    6  A    between atoms: C_9  and  N_10
REMARK    7  A    between atoms: C_13  and  N_14
REMARK    8  A    between atoms: N_14  and  C_15
REMARK    9  A    between atoms: C_28  and  N_29
REMARK   10  A    between atoms: N_29  and  C_30
REMARK   11  A    between atoms: N_29  and  C_31
REMARK                            x       y       z     vdW  Elec       q    Type
REMARK                         _______ _______ _______ _____ _____    ______ ____
ROOT
ATOM      1  N   UNL     1       9.205  -1.989  23.306  0.00  0.00    -0.284 N 
ATOM      2  H   UNL     1       9.841  -2.606  23.791  0.00  0.00    +0.155 HD
ATOM      3  C   UNL     1       7.956  -2.600  23.178  0.00  0.00    +0.221 A 
ATOM      4  N   UNL     1       6.930  -1.985  22.569  0.00  0.00    -0.223 NA
ATOM      5  C   UNL     1       5.771  -2.654  22.469  0.00  0.00    +0.118 A 
ATOM      6  C   UNL     1       5.597  -3.925  22.944  0.00  0.00    +0.063 A 
ATOM      7  C   UNL     1       6.681  -4.474  23.593  0.00  0.00    +0.128 A 
ATOM      8  N   UNL     1       7.859  -3.830  23.691  0.00  0.00    -0.199 NA
ENDROOT
BRANCH   1  12
ATOM      9  C   UNL     1      10.186   2.134  23.154  0.00  0.00    +0.121 A 
ATOM     10  C   UNL     1      10.084   1.385  21.980  0.00  0.00    +0.047 A 
ATOM     11  C   UNL     1       9.775   0.011  22.035  0.00  0.00    +0.027 A 
ATOM     12  C   UNL     1       9.565  -0.637  23.263  0.00  0.00    +0.034 A 
ATOM     13  C   UNL     1       9.642   0.140  24.417  0.00  0.00    +0.027 A 
ATOM     14  C   UNL     1       9.944   1.494  24.367  0.00  0.00    +0.047 A 
BRANCH   9  15
ATOM     15  O   UNL     1      10.521   3.469  23.039  0.00  0.00    -0.489 OA
BRANCH  15  16
ATOM     16  C   UNL     1       9.866   4.287  24.026  0.00  0.00    +0.261 C 
BRANCH  16  17
ATOM     17  C   UNL     1      10.253   5.761  23.928  0.00  0.00    +0.166 C 
BRANCH  17  18
ATOM     18  O   UNL     1      11.149   5.952  22.822  0.00  0.00    -0.387 OA
ATOM     19  H   UNL     1      10.713   5.549  22.047  0.00  0.00    +0.210 HD
ENDBRANCH  17  18
BRANCH  17  20
ATOM     20  C   UNL     1       8.985   6.619  23.681  0.00  0.00    +0.118 C 
BRANCH  20  21
ATOM     21  N   UNL     1       7.751   5.897  23.299  0.00  0.00    -0.306 NA
ATOM     22  C   UNL     1       7.409   6.202  21.906  0.00  0.00    +0.104 C 
ATOM     23  C   UNL     1       6.626   6.234  24.172  0.00  0.00    +0.104 C 
ENDBRANCH  20  21
ENDBRANCH  17  20
ENDBRANCH  16  17
ENDBRANCH  15  16
ENDBRANCH   9  15
ENDBRANCH   1  12
BRANCH   7  24
ATOM     24  N   UNL     1       6.518  -5.716  24.234  0.00  0.00    -0.298 N 
ATOM     25  H   UNL     1       7.362  -6.280  24.209  0.00  0.00    +0.154 HD
BRANCH  24  26
ATOM     26  C   UNL     1       5.692  -5.967  25.355  0.00  0.00    +0.052 A 
ATOM     27  C   UNL     1       4.408  -6.517  25.182  0.00  0.00    +0.044 A 
ATOM     28  C   UNL     1       3.615  -6.854  26.277  0.00  0.00    +0.043 A 
ATOM     29 CL   UNL     1       2.043  -7.504  26.020  0.00  0.00    -0.083 Cl
ATOM     30  C   UNL     1       4.094  -6.677  27.570  0.00  0.00    +0.021 A 
ATOM     31  C   UNL     1       5.368  -6.141  27.767  0.00  0.00    +0.023 A 
ATOM     32  C   UNL     1       6.159  -5.787  26.667  0.00  0.00    +0.062 A 
ATOM     33 CL   UNL     1       7.723  -5.111  26.962  0.00  0.00    -0.082 Cl
ENDBRANCH  24  26
ENDBRANCH   7  24
TORSDOF 9
ENDMDL
