MODEL 1
REMARK VINA RESULT:      -3.3      0.000      0.000
REMARK  Name = 
REMARK  4 active torsions:
REMARK  status: ('A' for Active; 'I' for Inactive)
REMARK    1  A    between atoms: C_1  and  C_2
REMARK    2  A    between atoms: C_2  and  O_4
REMARK    3  A    between atoms: C_2  and  C_5
REMARK    4  A    between atoms: C_5  and  O_6
REMARK                            x       y       z     vdW  Elec       q    Type
REMARK                         _______ _______ _______ _____ _____    ______ ____
ROOT
ATOM      1  C   UNL     1      10.764   6.008  23.684  0.00  0.00    +0.040 C 
ATOM      2  C   UNL     1      12.183   5.553  23.995  0.00  0.00    +0.137 C 
ENDROOT
BRANCH   2   3
ATOM      3  O   UNL     1      12.759   6.510  24.886  0.00  0.00    -0.390 OA
ATOM      4  H   UNL     1      13.626   6.769  24.530  0.00  0.00    +0.210 HD
ENDBRANCH   2   3
BRANCH   2   5
ATOM      5  C   UNL     1      13.046   5.389  22.735  0.00  0.00    +0.186 C 
BRANCH   5   6
ATOM      6  O   UNL     1      14.408   5.109  23.039  0.00  0.00    -0.392 OA
ATOM      7  H   UNL     1      14.451   4.235  23.463  0.00  0.00    +0.210 HD
ENDBRANCH   5   6
ENDBRANCH   2   5
TORSDOF 3
ENDMDL
MODEL 2
REMARK VINA RESULT:      -2.9     11.693     11.941
REMARK  Name = 
REMARK  4 active torsions:
REMARK  status: ('A' for Active; 'I' for Inactive)
REMARK    1  A    between atoms: C_1  and  C_2
REMARK    2  A    between atoms: C_2  and  O_4
REMARK    3  A    between atoms: C_2  and  C_5
REMARK    4  A    between atoms: C_5  and  O_6
REMARK                            x       y       z     vdW  Elec       q    Type
REMARK                         _______ _______ _______ _____ _____    ______ ____
ROOT
ATOM      1  C   UNL     1       8.298  -5.042  24.137  0.00  0.00    +0.040 C 
ATOM      2  C   UNL     1       9.227  -4.699  25.292  0.00  0.00    +0.137 C 
ENDROOT
BRANCH   2   3
ATOM      3  O   UNL     1      10.257  -5.689  25.327  0.00  0.00    -0.390 OA
ATOM      4  H   UNL     1      11.084  -5.254  25.596  0.00  0.00    +0.210 HD
ENDBRANCH   2   3
BRANCH   2   5
ATOM      5  C   UNL     1       8.497  -4.620  26.641  0.00  0.00    +0.186 C 
BRANCH   5   6
ATOM      6  O   UNL     1       8.104  -5.899  27.126  0.00  0.00    -0.392 OA
ATOM      7  H   UNL     1       7.185  -5.837  27.436  0.00  0.00    +0.210 HD
ENDBRANCH   5   6
ENDBRANCH   2   5
TORSDOF 3
ENDMDL
MODEL 3
REMARK VINA RESULT:      -2.9      6.294      6.433
REMARK  Name = 
REMARK  4 active torsions:
REMARK  status: ('A' for Active; 'I' for Inactive)
REMARK    1  A    between atoms: C_1  and  C_2
REMARK    2  A    between atoms: C_2  and  O_4
REMARK    3  A    between atoms: C_2  and  C_5
REMARK    4  A    between atoms: C_5  and  O_6
REMARK                            x       y       z     vdW  Elec       q    Type
REMARK                         _______ _______ _______ _____ _____    ______ ____
ROOT
ATOM      1  C   UNL     1       9.615   1.116  23.590  0.00  0.00    +0.040 C 
ATOM      2  C   UNL     1      10.045   0.887  22.148  0.00  0.00    +0.137 C 
ENDROOT
BRANCH   2   3
ATOM      3  O   UNL     1       9.767   2.084  21.418  0.00  0.00    -0.390 OA
ATOM      4  H   UNL     1       8.805   2.224  21.426  0.00  0.00    +0.210 HD
ENDBRANCH   2   3
BRANCH   2   5
ATOM      5  C   UNL     1       9.351  -0.322  21.504  0.00  0.00    +0.186 C 
BRANCH   5   6
ATOM      6  O   UNL     1      10.192  -1.470  21.449  0.00  0.00    -0.392 OA
ATOM      7  H   UNL     1      10.438  -1.620  20.520  0.00  0.00    +0.210 HD
ENDBRANCH   5   6
ENDBRANCH   2   5
TORSDOF 3
ENDMDL
MODEL 4
REMARK VINA RESULT:      -2.8      6.471      6.840
REMARK  Name = 
REMARK  4 active torsions:
REMARK  status: ('A' for Active; 'I' for Inactive)
REMARK    1  A    between atoms: C_1  and  C_2
REMARK    2  A    between atoms: C_2  and  O_4
REMARK    3  A    between atoms: C_2  and  C_5
REMARK    4  A    between atoms: C_5  and  O_6
REMARK                            x       y       z     vdW  Elec       q    Type
REMARK                         _______ _______ _______ _____ _____    ______ ____
ROOT
ATOM      1  C   UNL     1      10.498  -0.020  23.362  0.00  0.00    +0.040 C 
ATOM      2  C   UNL     1       9.549  -0.416  22.241  0.00  0.00    +0.137 C 
ENDROOT
BRANCH   2   3
ATOM      3  O   UNL     1      10.205  -1.407  21.448  0.00  0.00    -0.390 OA
ATOM      4  H   UNL     1      11.164  -1.252  21.505  0.00  0.00    +0.210 HD
ENDBRANCH   2   3
BRANCH   2   5
ATOM      5  C   UNL     1       9.117   0.778  21.376  0.00  0.00    +0.186 C 
BRANCH   5   6
ATOM      6  O   UNL     1       9.972   1.906  21.536  0.00  0.00    -0.392 OA
ATOM      7  H   UNL     1       9.415   2.689  21.687  0.00  0.00    +0.210 HD
ENDBRANCH   5   6
ENDBRANCH   2   5
TORSDOF 3
ENDMDL
MODEL 5
REMARK VINA RESULT:      -2.8     11.923     12.005
REMARK  Name = 
REMARK  4 active torsions:
REMARK  status: ('A' for Active; 'I' for Inactive)
REMARK    1  A    between atoms: C_1  and  C_2
REMARK    2  A    between atoms: C_2  and  O_4
REMARK    3  A    between atoms: C_2  and  C_5
REMARK    4  A    between atoms: C_5  and  O_6
REMARK                            x       y       z     vdW  Elec       q    Type
REMARK                         _______ _______ _______ _____ _____    ______ ____
ROOT
ATOM      1  C   UNL     1       7.035  -3.959  26.651  0.00  0.00    +0.040 C 
ATOM      2  C   UNL     1       7.912  -5.176  26.398  0.00  0.00    +0.137 C 
ENDROOT
BRANCH   2   3
ATOM      3  O   UNL     1       7.887  -5.980  27.579  0.00  0.00    -0.390 OA
ATOM      4  H   UNL     1       6.962  -6.064  27.867  0.00  0.00    +0.210 HD
ENDBRANCH   2   3
BRANCH   2   5
ATOM      5  C   UNL     1       9.353  -4.804  26.019  0.00  0.00    +0.186 C 
BRANCH   5   6
ATOM      6  O   UNL     1      10.009  -5.835  25.288  0.00  0.00    -0.392 OA
ATOM      7  H   UNL     1       9.612  -5.878  24.402  0.00  0.00    +0.210 HD
ENDBRANCH   5   6
ENDBRANCH   2   5
TORSDOF 3
ENDMDL
MODEL 6
REMARK VINA RESULT:      -2.7     12.955     13.428
REMARK  Name = 
REMARK  4 active torsions:
REMARK  status: ('A' for Active; 'I' for Inactive)
REMARK    1  A    between atoms: C_1  and  C_2
REMARK    2  A    between atoms: C_2  and  O_4
REMARK    3  A    between atoms: C_2  and  C_5
REMARK    4  A    between atoms: C_5  and  O_6
REMARK                            x       y       z     vdW  Elec       q    Type
REMARK                         _______ _______ _______ _____ _____    ______ ____
ROOT
ATOM      1  C   UNL     1       0.995   4.644  14.762  0.00  0.00    +0.040 C 
ATOM      2  C   UNL     1       2.401   5.073  14.371  0.00  0.00    +0.137 C 
ENDROOT
BRANCH   2   3
ATOM      3  O   UNL     1       3.320   4.228  15.066  0.00  0.00    -0.390 OA
ATOM      4  H   UNL     1       2.819   3.487  15.447  0.00  0.00    +0.210 HD
ENDBRANCH   2   3
BRANCH   2   5
ATOM      5  C   UNL     1       2.679   6.553  14.676  0.00  0.00    +0.186 C 
BRANCH   5   6
ATOM      6  O   UNL     1       3.896   6.744  15.391  0.00  0.00    -0.392 OA
ATOM      7  H   UNL     1       4.428   7.401  14.911  0.00  0.00    +0.210 HD
ENDBRANCH   5   6
ENDBRANCH   2   5
TORSDOF 3
ENDMDL
MODEL 7
REMARK VINA RESULT:      -2.7      5.440      5.740
REMARK  Name = 
REMARK  4 active torsions:
REMARK  status: ('A' for Active; 'I' for Inactive)
REMARK    1  A    between atoms: C_1  and  C_2
REMARK    2  A    between atoms: C_2  and  O_4
REMARK    3  A    between atoms: C_2  and  C_5
REMARK    4  A    between atoms: C_5  and  O_6
REMARK                            x       y       z     vdW  Elec       q    Type
REMARK                         _______ _______ _______ _____ _____    ______ ____
ROOT
ATOM      1  C   UNL     1       9.795  -0.039  21.812  0.00  0.00    +0.040 C 
ATOM      2  C   UNL     1       9.766   1.298  22.537  0.00  0.00    +0.137 C 
ENDROOT
BRANCH   2   3
ATOM      3  O   UNL     1      10.264   2.289  21.636  0.00  0.00    -0.390 OA
ATOM      4  H   UNL     1       9.560   2.496  20.997  0.00  0.00    +0.210 HD
ENDBRANCH   2   3
BRANCH   2   5
ATOM      5  C   UNL     1      10.576   1.286  23.842  0.00  0.00    +0.186 C 
BRANCH   5   6
ATOM      6  O   UNL     1       9.756   1.443  24.995  0.00  0.00    -0.392 OA
ATOM      7  H   UNL     1      10.134   0.905  25.711  0.00  0.00    +0.210 HD
ENDBRANCH   5   6
ENDBRANCH   2   5
TORSDOF 3
ENDMDL
MODEL 8
REMARK VINA RESULT:      -2.7     12.873     13.460
REMARK  Name = 
REMARK  4 active torsions:
REMARK  status: ('A' for Active; 'I' for Inactive)
REMARK    1  A    between atoms: C_1  and  C_2
REMARK    2  A    between atoms: C_2  and  O_4
REMARK    3  A    between atoms: C_2  and  C_5
REMARK    4  A    between atoms: C_5  and  O_6
REMARK                            x       y       z     vdW  Elec       q    Type
REMARK                         _______ _______ _______ _____ _____    ______ ____
ROOT
ATOM      1  C   UNL     1       0.777   4.231  14.547  0.00  0.00    +0.040 C 
ATOM      2  C   UNL     1       1.865   4.965  15.315  0.00  0.00    +0.137 C 
ENDROOT
BRANCH   2   3
ATOM      3  O   UNL     1       3.099   4.288  15.072  0.00  0.00    -0.390 OA
ATOM      4  H   UNL     1       3.777   4.958  14.880  0.00  0.00    +0.210 HD
ENDBRANCH   2   3
BRANCH   2   5
ATOM      5  C   UNL     1       1.575   5.052  16.821  0.00  0.00    +0.186 C 
BRANCH   5   6
ATOM      6  O   UNL     1       2.352   4.133  17.582  0.00  0.00    -0.392 OA
ATOM      7  H   UNL     1       2.278   4.376  18.520  0.00  0.00    +0.210 HD
ENDBRANCH   5   6
ENDBRANCH   2   5
TORSDOF 3
ENDMDL
MODEL 9
REMARK VINA RESULT:      -2.6      8.091      8.382
REMARK  Name = 
REMARK  4 active torsions:
REMARK  status: ('A' for Active; 'I' for Inactive)
REMARK    1  A    between atoms: C_1  and  C_2
REMARK    2  A    between atoms: C_2  and  O_4
REMARK    3  A    between atoms: C_2  and  C_5
REMARK    4  A    between atoms: C_5  and  O_6
REMARK                            x       y       z     vdW  Elec       q    Type
REMARK                         _______ _______ _______ _____ _____    ______ ____
ROOT
ATOM      1  C   UNL     1      10.419  -0.197  23.290  0.00  0.00    +0.040 C 
ATOM      2  C   UNL     1      10.375  -1.613  22.736  0.00  0.00    +0.137 C 
ENDROOT
BRANCH   2   3
ATOM      3  O   UNL     1      10.050  -1.525  21.347  0.00  0.00    -0.390 OA
ATOM      4  H   UNL     1      10.546  -0.779  20.969  0.00  0.00    +0.210 HD
ENDBRANCH   2   3
BRANCH   2   5
ATOM      5  C   UNL     1       9.376  -2.514  23.477  0.00  0.00    +0.186 C 
BRANCH   5   6
ATOM      6  O   UNL     1      10.017  -3.532  24.238  0.00  0.00    -0.392 OA
ATOM      7  H   UNL     1       9.776  -3.409  25.171  0.00  0.00    +0.210 HD
ENDBRANCH   5   6
ENDBRANCH   2   5
TORSDOF 3
ENDMDL
