MODEL 1
REMARK VINA RESULT:      -5.7      0.000      0.000
REMARK  Name = 
REMARK  4 active torsions:
REMARK  status: ('A' for Active; 'I' for Inactive)
REMARK    1  A    between atoms: C_1  and  N_2
REMARK    2  A    between atoms: C_4  and  C_5
REMARK    3  A    between atoms: C_6  and  C_7
REMARK    4  A    between atoms: C_7  and  C_8
REMARK                            x       y       z     vdW  Elec       q    Type
REMARK                         _______ _______ _______ _____ _____    ______ ____
ROOT
ATOM      1  C   UNL     1       8.990  -0.592  26.770  0.00  0.00    +0.149 C 
ATOM      2  N   UNL     1       8.864  -0.809  25.345  0.00  0.00    -0.349 N 
ATOM      3  C   UNL     1       9.306   0.061  24.372  0.00  0.00    +0.049 A 
ATOM      4  C   UNL     1       8.995  -0.519  23.137  0.00  0.00    +0.007 A 
ATOM      5  C   UNL     1       9.345   0.179  21.960  0.00  0.00    +0.010 A 
ATOM      6  C   UNL     1       9.989   1.418  22.050  0.00  0.00    +0.001 A 
ATOM      7  C   UNL     1      10.286   1.971  23.291  0.00  0.00    +0.002 A 
ATOM      8  C   UNL     1       8.350  -1.769  23.405  0.00  0.00    +0.000 A 
ATOM      9  C   UNL     1       9.951   1.305  24.473  0.00  0.00    +0.026 A 
ATOM     10  C   UNL     1       8.287  -1.913  24.774  0.00  0.00    +0.094 A 
ENDROOT
BRANCH   8  11
ATOM     11  C   UNL     1       7.861  -2.696  22.429  0.00  0.00    +0.013 C 
ATOM     12  C   UNL     1       7.000  -3.698  22.660  0.00  0.00    +0.046 C 
BRANCH  12  13
ATOM     13  C   UNL     1       6.482  -4.671  21.662  0.00  0.00    +0.153 C 
ATOM     14  O   UNL     1       5.720  -4.249  20.790  0.00  0.00    -0.293 OA
ATOM     15  C   UNL     1       6.863  -6.129  21.696  0.00  0.00    +0.091 C 
ENDBRANCH  12  13
ENDBRANCH   8  11
TORSDOF 2
ENDMDL
MODEL 2
REMARK VINA RESULT:      -5.4      2.573      5.493
REMARK  Name = 
REMARK  4 active torsions:
REMARK  status: ('A' for Active; 'I' for Inactive)
REMARK    1  A    between atoms: C_1  and  N_2
REMARK    2  A    between atoms: C_4  and  C_5
REMARK    3  A    between atoms: C_6  and  C_7
REMARK    4  A    between atoms: C_7  and  C_8
REMARK                            x       y       z     vdW  Elec       q    Type
REMARK                         _______ _______ _______ _____ _____    ______ ____
ROOT
ATOM      1  C   UNL     1       9.460  -5.179  25.372  0.00  0.00    +0.149 C 
ATOM      2  N   UNL     1       8.884  -4.166  24.515  0.00  0.00    -0.349 N 
ATOM      3  C   UNL     1       7.922  -4.398  23.555  0.00  0.00    +0.049 A 
ATOM      4  C   UNL     1       7.642  -3.165  22.956  0.00  0.00    +0.007 A 
ATOM      5  C   UNL     1       6.676  -3.123  21.925  0.00  0.00    +0.010 A 
ATOM      6  C   UNL     1       6.028  -4.298  21.530  0.00  0.00    +0.001 A 
ATOM      7  C   UNL     1       6.327  -5.509  22.143  0.00  0.00    +0.002 A 
ATOM      8  C   UNL     1       8.470  -2.185  23.592  0.00  0.00    +0.000 A 
ATOM      9  C   UNL     1       7.278  -5.583  23.164  0.00  0.00    +0.026 A 
ATOM     10  C   UNL     1       9.221  -2.837  24.545  0.00  0.00    +0.094 A 
ENDROOT
BRANCH   8  11
ATOM     11  C   UNL     1       8.509  -0.785  23.290  0.00  0.00    +0.013 C 
ATOM     12  C   UNL     1       9.085  -0.231  22.212  0.00  0.00    +0.046 C 
BRANCH  12  13
ATOM     13  C   UNL     1       9.138   1.218  21.881  0.00  0.00    +0.153 C 
ATOM     14  O   UNL     1      10.241   1.767  21.872  0.00  0.00    -0.293 OA
ATOM     15  C   UNL     1       7.895   2.009  21.563  0.00  0.00    +0.091 C 
ENDBRANCH  12  13
ENDBRANCH   8  11
TORSDOF 2
ENDMDL
MODEL 3
REMARK VINA RESULT:      -5.3      3.170      6.075
REMARK  Name = 
REMARK  4 active torsions:
REMARK  status: ('A' for Active; 'I' for Inactive)
REMARK    1  A    between atoms: C_1  and  N_2
REMARK    2  A    between atoms: C_4  and  C_5
REMARK    3  A    between atoms: C_6  and  C_7
REMARK    4  A    between atoms: C_7  and  C_8
REMARK                            x       y       z     vdW  Elec       q    Type
REMARK                         _______ _______ _______ _____ _____    ______ ____
ROOT
ATOM      1  C   UNL     1       6.540  -5.641  27.948  0.00  0.00    +0.149 C 
ATOM      2  N   UNL     1       7.019  -5.196  26.657  0.00  0.00    -0.349 N 
ATOM      3  C   UNL     1       6.431  -5.500  25.449  0.00  0.00    +0.049 A 
ATOM      4  C   UNL     1       7.198  -4.879  24.457  0.00  0.00    +0.007 A 
ATOM      5  C   UNL     1       6.806  -5.035  23.108  0.00  0.00    +0.010 A 
ATOM      6  C   UNL     1       5.673  -5.795  22.796  0.00  0.00    +0.001 A 
ATOM      7  C   UNL     1       4.929  -6.400  23.802  0.00  0.00    +0.002 A 
ATOM      8  C   UNL     1       8.268  -4.192  25.115  0.00  0.00    +0.000 A 
ATOM      9  C   UNL     1       5.293  -6.265  25.145  0.00  0.00    +0.026 A 
ATOM     10  C   UNL     1       8.126  -4.409  26.467  0.00  0.00    +0.094 A 
ENDROOT
BRANCH   8  11
ATOM     11  C   UNL     1       9.296  -3.422  24.480  0.00  0.00    +0.013 C 
ATOM     12  C   UNL     1       9.131  -2.228  23.890  0.00  0.00    +0.046 C 
BRANCH  12  13
ATOM     13  C   UNL     1      10.183  -1.414  23.226  0.00  0.00    +0.153 C 
ATOM     14  O   UNL     1      10.743  -1.892  22.238  0.00  0.00    -0.293 OA
ATOM     15  C   UNL     1      10.568  -0.046  23.728  0.00  0.00    +0.091 C 
ENDBRANCH  12  13
ENDBRANCH   8  11
TORSDOF 2
ENDMDL
MODEL 4
REMARK VINA RESULT:      -5.2      3.768      6.457
REMARK  Name = 
REMARK  4 active torsions:
REMARK  status: ('A' for Active; 'I' for Inactive)
REMARK    1  A    between atoms: C_1  and  N_2
REMARK    2  A    between atoms: C_4  and  C_5
REMARK    3  A    between atoms: C_6  and  C_7
REMARK    4  A    between atoms: C_7  and  C_8
REMARK                            x       y       z     vdW  Elec       q    Type
REMARK                         _______ _______ _______ _____ _____    ______ ____
ROOT
ATOM      1  C   UNL     1       7.138  -0.090  25.958  0.00  0.00    +0.149 C 
ATOM      2  N   UNL     1       7.943   0.626  24.992  0.00  0.00    -0.349 N 
ATOM      3  C   UNL     1       8.407   0.099  23.806  0.00  0.00    +0.049 A 
ATOM      4  C   UNL     1       9.136   1.111  23.171  0.00  0.00    +0.007 A 
ATOM      5  C   UNL     1       9.728   0.827  21.919  0.00  0.00    +0.010 A 
ATOM      6  C   UNL     1       9.576  -0.440  21.347  0.00  0.00    +0.001 A 
ATOM      7  C   UNL     1       8.846  -1.426  22.001  0.00  0.00    +0.002 A 
ATOM      8  C   UNL     1       9.091   2.264  24.018  0.00  0.00    +0.000 A 
ATOM      9  C   UNL     1       8.250  -1.177  23.240  0.00  0.00    +0.026 A 
ATOM     10  C   UNL     1       8.349   1.928  25.129  0.00  0.00    +0.094 A 
ENDROOT
BRANCH   8  11
ATOM     11  C   UNL     1       9.706   3.531  23.758  0.00  0.00    +0.013 C 
ATOM     12  C   UNL     1      11.024   3.755  23.647  0.00  0.00    +0.046 C 
BRANCH  12  13
ATOM     13  C   UNL     1      11.682   5.061  23.377  0.00  0.00    +0.153 C 
ATOM     14  O   UNL     1      10.999   6.082  23.480  0.00  0.00    -0.293 OA
ATOM     15  C   UNL     1      13.136   5.157  22.991  0.00  0.00    +0.091 C 
ENDBRANCH  12  13
ENDBRANCH   8  11
TORSDOF 2
ENDMDL
MODEL 5
REMARK VINA RESULT:      -5.2      3.018      5.949
REMARK  Name = 
REMARK  4 active torsions:
REMARK  status: ('A' for Active; 'I' for Inactive)
REMARK    1  A    between atoms: C_1  and  N_2
REMARK    2  A    between atoms: C_4  and  C_5
REMARK    3  A    between atoms: C_6  and  C_7
REMARK    4  A    between atoms: C_7  and  C_8
REMARK                            x       y       z     vdW  Elec       q    Type
REMARK                         _______ _______ _______ _____ _____    ______ ____
ROOT
ATOM      1  C   UNL     1       5.671  -5.022  22.231  0.00  0.00    +0.149 C 
ATOM      2  N   UNL     1       6.725  -4.267  22.875  0.00  0.00    -0.349 N 
ATOM      3  C   UNL     1       7.165  -4.471  24.165  0.00  0.00    +0.049 A 
ATOM      4  C   UNL     1       8.186  -3.541  24.395  0.00  0.00    +0.007 A 
ATOM      5  C   UNL     1       8.817  -3.536  25.660  0.00  0.00    +0.010 A 
ATOM      6  C   UNL     1       8.415  -4.448  26.642  0.00  0.00    +0.001 A 
ATOM      7  C   UNL     1       7.398  -5.360  26.386  0.00  0.00    +0.002 A 
ATOM      8  C   UNL     1       8.342  -2.774  23.197  0.00  0.00    +0.000 A 
ATOM      9  C   UNL     1       6.755  -5.388  25.145  0.00  0.00    +0.026 A 
ATOM     10  C   UNL     1       7.426  -3.249  22.284  0.00  0.00    +0.094 A 
ENDROOT
BRANCH   8  11
ATOM     11  C   UNL     1       9.277  -1.710  22.988  0.00  0.00    +0.013 C 
ATOM     12  C   UNL     1       9.178  -0.469  23.490  0.00  0.00    +0.046 C 
BRANCH  12  13
ATOM     13  C   UNL     1      10.137   0.649  23.286  0.00  0.00    +0.153 C 
ATOM     14  O   UNL     1      11.017   0.815  24.132  0.00  0.00    -0.293 OA
ATOM     15  C   UNL     1      10.053   1.562  22.089  0.00  0.00    +0.091 C 
ENDBRANCH  12  13
ENDBRANCH   8  11
TORSDOF 2
ENDMDL
MODEL 6
REMARK VINA RESULT:      -5.1      3.261      6.090
REMARK  Name = 
REMARK  4 active torsions:
REMARK  status: ('A' for Active; 'I' for Inactive)
REMARK    1  A    between atoms: C_1  and  N_2
REMARK    2  A    between atoms: C_4  and  C_5
REMARK    3  A    between atoms: C_6  and  C_7
REMARK    4  A    between atoms: C_7  and  C_8
REMARK                            x       y       z     vdW  Elec       q    Type
REMARK                         _______ _______ _______ _____ _____    ______ ____
ROOT
ATOM      1  C   UNL     1       3.371  -5.021  23.361  0.00  0.00    +0.149 C 
ATOM      2  N   UNL     1       4.763  -4.668  23.535  0.00  0.00    -0.349 N 
ATOM      3  C   UNL     1       5.516  -4.955  24.654  0.00  0.00    +0.049 A 
ATOM      4  C   UNL     1       6.799  -4.446  24.420  0.00  0.00    +0.007 A 
ATOM      5  C   UNL     1       7.779  -4.609  25.425  0.00  0.00    +0.010 A 
ATOM      6  C   UNL     1       7.453  -5.267  26.616  0.00  0.00    +0.001 A 
ATOM      7  C   UNL     1       6.171  -5.762  26.820  0.00  0.00    +0.002 A 
ATOM      8  C   UNL     1       6.787  -3.844  23.121  0.00  0.00    +0.000 A 
ATOM      9  C   UNL     1       5.179  -5.616  25.846  0.00  0.00    +0.026 A 
ATOM     10  C   UNL     1       5.519  -3.999  22.607  0.00  0.00    +0.094 A 
ENDROOT
BRANCH   8  11
ATOM     11  C   UNL     1       7.893  -3.199  22.478  0.00  0.00    +0.013 C 
ATOM     12  C   UNL     1       8.440  -2.030  22.844  0.00  0.00    +0.046 C 
BRANCH  12  13
ATOM     13  C   UNL     1       9.586  -1.344  22.189  0.00  0.00    +0.153 C 
ATOM     14  O   UNL     1      10.689  -1.892  22.236  0.00  0.00    -0.293 OA
ATOM     15  C   UNL     1       9.426  -0.021  21.485  0.00  0.00    +0.091 C 
ENDBRANCH  12  13
ENDBRANCH   8  11
TORSDOF 2
ENDMDL
MODEL 7
REMARK VINA RESULT:      -5.0      3.401      6.841
REMARK  Name = 
REMARK  4 active torsions:
REMARK  status: ('A' for Active; 'I' for Inactive)
REMARK    1  A    between atoms: C_1  and  N_2
REMARK    2  A    between atoms: C_4  and  C_5
REMARK    3  A    between atoms: C_6  and  C_7
REMARK    4  A    between atoms: C_7  and  C_8
REMARK                            x       y       z     vdW  Elec       q    Type
REMARK                         _______ _______ _______ _____ _____    ______ ____
ROOT
ATOM      1  C   UNL     1       6.095  -5.760  21.165  0.00  0.00    +0.149 C 
ATOM      2  N   UNL     1       6.519  -5.225  22.441  0.00  0.00    -0.349 N 
ATOM      3  C   UNL     1       6.019  -5.615  23.665  0.00  0.00    +0.049 A 
ATOM      4  C   UNL     1       6.691  -4.862  24.635  0.00  0.00    +0.007 A 
ATOM      5  C   UNL     1       6.361  -5.070  25.993  0.00  0.00    +0.010 A 
ATOM      6  C   UNL     1       5.385  -6.011  26.337  0.00  0.00    +0.001 A 
ATOM      7  C   UNL     1       4.734  -6.745  25.352  0.00  0.00    +0.002 A 
ATOM      8  C   UNL     1       7.611  -4.008  23.948  0.00  0.00    +0.000 A 
ATOM      9  C   UNL     1       5.037  -6.561  24.000  0.00  0.00    +0.026 A 
ATOM     10  C   UNL     1       7.477  -4.258  22.600  0.00  0.00    +0.094 A 
ENDROOT
BRANCH   8  11
ATOM     11  C   UNL     1       8.505  -3.066  24.553  0.00  0.00    +0.013 C 
ATOM     12  C   UNL     1       8.162  -1.869  25.053  0.00  0.00    +0.046 C 
BRANCH  12  13
ATOM     13  C   UNL     1       9.074  -0.877  25.684  0.00  0.00    +0.153 C 
ATOM     14  O   UNL     1       9.045  -0.768  26.911  0.00  0.00    -0.293 OA
ATOM     15  C   UNL     1      10.011  -0.024  24.868  0.00  0.00    +0.091 C 
ENDBRANCH  12  13
ENDBRANCH   8  11
TORSDOF 2
ENDMDL
MODEL 8
REMARK VINA RESULT:      -5.0      4.357      7.067
REMARK  Name = 
REMARK  4 active torsions:
REMARK  status: ('A' for Active; 'I' for Inactive)
REMARK    1  A    between atoms: C_1  and  N_2
REMARK    2  A    between atoms: C_4  and  C_5
REMARK    3  A    between atoms: C_6  and  C_7
REMARK    4  A    between atoms: C_7  and  C_8
REMARK                            x       y       z     vdW  Elec       q    Type
REMARK                         _______ _______ _______ _____ _____    ______ ____
ROOT
ATOM      1  C   UNL     1       8.673  -0.899  24.009  0.00  0.00    +0.149 C 
ATOM      2  N   UNL     1       8.989   0.475  23.683  0.00  0.00    -0.349 N 
ATOM      3  C   UNL     1       8.072   1.418  23.270  0.00  0.00    +0.049 A 
ATOM      4  C   UNL     1       8.781   2.607  23.061  0.00  0.00    +0.007 A 
ATOM      5  C   UNL     1       8.066   3.747  22.628  0.00  0.00    +0.010 A 
ATOM      6  C   UNL     1       6.685   3.666  22.421  0.00  0.00    +0.001 A 
ATOM      7  C   UNL     1       6.008   2.472  22.637  0.00  0.00    +0.002 A 
ATOM      8  C   UNL     1      10.154   2.342  23.364  0.00  0.00    +0.000 A 
ATOM      9  C   UNL     1       6.686   1.328  23.064  0.00  0.00    +0.026 A 
ATOM     10  C   UNL     1      10.245   1.021  23.742  0.00  0.00    +0.094 A 
ENDROOT
BRANCH   8  11
ATOM     11  C   UNL     1      11.234   3.280  23.285  0.00  0.00    +0.013 C 
ATOM     12  C   UNL     1      11.167   4.582  23.602  0.00  0.00    +0.046 C 
BRANCH  12  13
ATOM     13  C   UNL     1      12.275   5.571  23.527  0.00  0.00    +0.153 C 
ATOM     14  O   UNL     1      12.408   6.360  24.464  0.00  0.00    -0.293 OA
ATOM     15  C   UNL     1      13.218   5.625  22.352  0.00  0.00    +0.091 C 
ENDBRANCH  12  13
ENDBRANCH   8  11
TORSDOF 2
ENDMDL
MODEL 9
REMARK VINA RESULT:      -4.9      3.749      5.725
REMARK  Name = 
REMARK  4 active torsions:
REMARK  status: ('A' for Active; 'I' for Inactive)
REMARK    1  A    between atoms: C_1  and  N_2
REMARK    2  A    between atoms: C_4  and  C_5
REMARK    3  A    between atoms: C_6  and  C_7
REMARK    4  A    between atoms: C_7  and  C_8
REMARK                            x       y       z     vdW  Elec       q    Type
REMARK                         _______ _______ _______ _____ _____    ______ ____
ROOT
ATOM      1  C   UNL     1      12.626   5.318  23.068  0.00  0.00    +0.149 C 
ATOM      2  N   UNL     1      11.438   4.577  23.431  0.00  0.00    -0.349 N 
ATOM      3  C   UNL     1      10.241   5.143  23.814  0.00  0.00    +0.049 A 
ATOM      4  C   UNL     1       9.359   4.089  24.077  0.00  0.00    +0.007 A 
ATOM      5  C   UNL     1       8.045   4.400  24.493  0.00  0.00    +0.010 A 
ATOM      6  C   UNL     1       7.657   5.737  24.632  0.00  0.00    +0.001 A 
ATOM      7  C   UNL     1       8.554   6.764  24.364  0.00  0.00    +0.002 A 
ATOM      8  C   UNL     1      10.071   2.870  23.837  0.00  0.00    +0.000 A 
ATOM      9  C   UNL     1       9.860   6.488  23.951  0.00  0.00    +0.026 A 
ATOM     10  C   UNL     1      11.346   3.209  23.442  0.00  0.00    +0.094 A 
ENDROOT
BRANCH   8  11
ATOM     11  C   UNL     1       9.550   1.543  23.983  0.00  0.00    +0.013 C 
ATOM     12  C   UNL     1      10.081   0.571  24.741  0.00  0.00    +0.046 C 
BRANCH  12  13
ATOM     13  C   UNL     1       9.558  -0.811  24.905  0.00  0.00    +0.153 C 
ATOM     14  O   UNL     1       8.917  -1.066  25.926  0.00  0.00    -0.293 OA
ATOM     15  C   UNL     1       9.791  -1.880  23.869  0.00  0.00    +0.091 C 
ENDBRANCH  12  13
ENDBRANCH   8  11
TORSDOF 2
ENDMDL
