MODEL 1
REMARK VINA RESULT:      -7.2      0.000      0.000
REMARK  Name = 
REMARK  8 active torsions:
REMARK  status: ('A' for Active; 'I' for Inactive)
REMARK    1  A    between atoms: C_1  and  C_2
REMARK    2  A    between atoms: N_4  and  C_5
REMARK    3  A    between atoms: C_8  and  O_10
REMARK    4  A    between atoms: C_11  and  C_13
REMARK    5  A    between atoms: C_13  and  O_14
REMARK    6  A    between atoms: O_14  and  P_15
REMARK    7  A    between atoms: P_15  and  O_16
REMARK    8  A    between atoms: P_15  and  O_17
REMARK                            x       y       z     vdW  Elec       q    Type
REMARK                         _______ _______ _______ _____ _____    ______ ____
ROOT
ATOM      1  C   UNL     1       9.120  -2.630  24.100  0.00  0.00    +0.226 C 
ATOM      2  O   UNL     1       9.121  -1.258  24.526  0.00  0.00    -0.348 OA
ATOM      3  C   UNL     1       9.119  -0.410  23.351  0.00  0.00    +0.175 C 
ATOM      4  C   UNL     1       8.947  -1.345  22.136  0.00  0.00    +0.150 C 
ATOM      5  C   UNL     1       8.383  -2.599  22.769  0.00  0.00    +0.088 C 
ENDROOT
BRANCH   1  14
ATOM      6  C   UNL     1       5.574  -3.806  27.436  0.00  0.00    +0.051 C 
ATOM      7  C   UNL     1       6.888  -4.014  26.758  0.00  0.00    +0.030 A 
ATOM      8  C   UNL     1       7.659  -5.213  27.143  0.00  0.00    +0.257 A 
ATOM      9  O   UNL     1       7.236  -6.029  27.947  0.00  0.00    -0.267 OA
ATOM     10  N   UNL     1       8.868  -5.356  26.524  0.00  0.00    -0.275 N 
ATOM     11  H   UNL     1       9.393  -6.187  26.741  0.00  0.00    +0.173 HD
ATOM     12  C   UNL     1       9.338  -4.604  25.482  0.00  0.00    +0.331 A 
ATOM     13  O   UNL     1      10.324  -4.980  24.865  0.00  0.00    -0.246 OA
ATOM     14  N   UNL     1       8.589  -3.465  25.171  0.00  0.00    -0.274 N 
ATOM     15  C   UNL     1       7.395  -3.208  25.820  0.00  0.00    +0.101 A 
ENDBRANCH   1  14
BRANCH   4  16
ATOM     16  O   UNL     1      10.211  -1.640  21.537  0.00  0.00    -0.389 OA
ATOM     17  H   UNL     1      10.837  -0.951  21.827  0.00  0.00    +0.210 HD
ENDBRANCH   4  16
BRANCH   3  18
ATOM     18  C   UNL     1       7.945   0.568  23.473  0.00  0.00    +0.206 C 
BRANCH  18  19
ATOM     19  O   UNL     1       8.217   1.801  22.796  0.00  0.00    -0.284 OA
BRANCH  19  20
ATOM     20  P   UNL     1       9.757   2.511  23.142  0.00  0.00    +0.472 P 
ATOM     21  O   UNL     1      11.134   3.146  23.451  0.00  0.00    -0.228 OA
BRANCH  20  22
ATOM     22  O   UNL     1       8.983   3.935  22.943  0.00  0.00    -0.303 OA
ATOM     23  H   UNL     1       8.724   4.082  22.018  0.00  0.00    +0.222 HD
ENDBRANCH  20  22
BRANCH  20  24
ATOM     24  O   UNL     1      10.165   2.244  21.581  0.00  0.00    -0.303 OA
ATOM     25  H   UNL     1       9.456   2.648  21.046  0.00  0.00    +0.222 HD
ENDBRANCH  20  24
ENDBRANCH  19  20
ENDBRANCH  18  19
ENDBRANCH   3  18
TORSDOF 7
ENDMDL
MODEL 2
REMARK VINA RESULT:      -6.6      2.983      7.161
REMARK  Name = 
REMARK  8 active torsions:
REMARK  status: ('A' for Active; 'I' for Inactive)
REMARK    1  A    between atoms: C_1  and  C_2
REMARK    2  A    between atoms: N_4  and  C_5
REMARK    3  A    between atoms: C_8  and  O_10
REMARK    4  A    between atoms: C_11  and  C_13
REMARK    5  A    between atoms: C_13  and  O_14
REMARK    6  A    between atoms: O_14  and  P_15
REMARK    7  A    between atoms: P_15  and  O_16
REMARK    8  A    between atoms: P_15  and  O_17
REMARK                            x       y       z     vdW  Elec       q    Type
REMARK                         _______ _______ _______ _____ _____    ______ ____
ROOT
ATOM      1  C   UNL     1       8.654  -3.278  23.756  0.00  0.00    +0.226 C 
ATOM      2  O   UNL     1       7.373  -3.927  23.725  0.00  0.00    -0.348 OA
ATOM      3  C   UNL     1       7.425  -5.089  24.589  0.00  0.00    +0.175 C 
ATOM      4  C   UNL     1       8.789  -5.041  25.308  0.00  0.00    +0.150 C 
ATOM      5  C   UNL     1       9.191  -3.590  25.144  0.00  0.00    +0.088 C 
ENDROOT
BRANCH   1  14
ATOM      6  C   UNL     1       6.234   1.104  23.941  0.00  0.00    +0.051 C 
ATOM      7  C   UNL     1       7.327   0.204  23.468  0.00  0.00    +0.030 A 
ATOM      8  C   UNL     1       8.373   0.809  22.619  0.00  0.00    +0.257 A 
ATOM      9  O   UNL     1       8.380   1.999  22.343  0.00  0.00    -0.267 OA
ATOM     10  N   UNL     1       9.342  -0.049  22.182  0.00  0.00    -0.275 N 
ATOM     11  H   UNL     1      10.087   0.350  21.635  0.00  0.00    +0.173 HD
ATOM     12  C   UNL     1       9.522  -1.342  22.589  0.00  0.00    +0.331 A 
ATOM     13  O   UNL     1      10.558  -1.925  22.305  0.00  0.00    -0.246 OA
ATOM     14  N   UNL     1       8.493  -1.880  23.370  0.00  0.00    -0.274 N 
ATOM     15  C   UNL     1       7.432  -1.092  23.777  0.00  0.00    +0.101 A 
ENDBRANCH   1  14
BRANCH   4  16
ATOM     16  O   UNL     1       9.743  -5.876  24.648  0.00  0.00    -0.389 OA
ATOM     17  H   UNL     1       9.566  -5.818  23.691  0.00  0.00    +0.210 HD
ENDBRANCH   4  16
BRANCH   3  18
ATOM     18  C   UNL     1       6.265  -4.992  25.586  0.00  0.00    +0.206 C 
BRANCH  18  19
ATOM     19  O   UNL     1       6.167  -6.172  26.392  0.00  0.00    -0.284 OA
BRANCH  19  20
ATOM     20  P   UNL     1       6.067  -5.897  28.098  0.00  0.00    +0.472 P 
ATOM     21  O   UNL     1       5.977  -5.650  29.623  0.00  0.00    -0.228 OA
BRANCH  20  22
ATOM     22  O   UNL     1       7.641  -6.330  28.114  0.00  0.00    -0.303 OA
ATOM     23  H   UNL     1       8.177  -5.774  27.525  0.00  0.00    +0.222 HD
ENDBRANCH  20  22
BRANCH  20  24
ATOM     24  O   UNL     1       5.410  -7.388  28.241  0.00  0.00    -0.303 OA
ATOM     25  H   UNL     1       5.998  -7.883  28.841  0.00  0.00    +0.222 HD
ENDBRANCH  20  24
ENDBRANCH  19  20
ENDBRANCH  18  19
ENDBRANCH   3  18
TORSDOF 7
ENDMDL
MODEL 3
REMARK VINA RESULT:      -6.5      3.598      6.541
REMARK  Name = 
REMARK  8 active torsions:
REMARK  status: ('A' for Active; 'I' for Inactive)
REMARK    1  A    between atoms: C_1  and  C_2
REMARK    2  A    between atoms: N_4  and  C_5
REMARK    3  A    between atoms: C_8  and  O_10
REMARK    4  A    between atoms: C_11  and  C_13
REMARK    5  A    between atoms: C_13  and  O_14
REMARK    6  A    between atoms: O_14  and  P_15
REMARK    7  A    between atoms: P_15  and  O_16
REMARK    8  A    between atoms: P_15  and  O_17
REMARK                            x       y       z     vdW  Elec       q    Type
REMARK                         _______ _______ _______ _____ _____    ______ ____
ROOT
ATOM      1  C   UNL     1       9.376  -2.943  24.234  0.00  0.00    +0.226 C 
ATOM      2  O   UNL     1       8.289  -3.562  23.527  0.00  0.00    -0.348 OA
ATOM      3  C   UNL     1       7.965  -4.812  24.184  0.00  0.00    +0.175 C 
ATOM      4  C   UNL     1       8.818  -4.867  25.468  0.00  0.00    +0.150 C 
ATOM      5  C   UNL     1       9.195  -3.414  25.669  0.00  0.00    +0.088 C 
ENDROOT
BRANCH   1  14
ATOM      6  C   UNL     1       8.111   1.761  25.402  0.00  0.00    +0.051 C 
ATOM      7  C   UNL     1       8.757   0.730  24.536  0.00  0.00    +0.030 A 
ATOM      8  C   UNL     1       9.523   1.217  23.372  0.00  0.00    +0.257 A 
ATOM      9  O   UNL     1       9.666   2.407  23.138  0.00  0.00    -0.267 OA
ATOM     10  N   UNL     1      10.076   0.246  22.586  0.00  0.00    -0.275 N 
ATOM     11  H   UNL     1      10.637   0.555  21.810  0.00  0.00    +0.173 HD
ATOM     12  C   UNL     1      10.130  -1.091  22.870  0.00  0.00    +0.331 A 
ATOM     13  O   UNL     1      10.855  -1.819  22.207  0.00  0.00    -0.246 OA
ATOM     14  N   UNL     1       9.367  -1.509  23.966  0.00  0.00    -0.274 N 
ATOM     15  C   UNL     1       8.706  -0.588  24.756  0.00  0.00    +0.101 A 
ENDBRANCH   1  14
BRANCH   4  16
ATOM     16  O   UNL     1      10.000  -5.642  25.263  0.00  0.00    -0.389 OA
ATOM     17  H   UNL     1      10.758  -5.031  25.301  0.00  0.00    +0.210 HD
ENDBRANCH   4  16
BRANCH   3  18
ATOM     18  C   UNL     1       6.467  -4.803  24.508  0.00  0.00    +0.206 C 
BRANCH  18  19
ATOM     19  O   UNL     1       5.760  -5.792  23.749  0.00  0.00    -0.284 OA
BRANCH  19  20
ATOM     20  P   UNL     1       5.854  -5.611  22.031  0.00  0.00    +0.472 P 
ATOM     21  O   UNL     1       5.937  -5.449  20.494  0.00  0.00    -0.228 OA
BRANCH  20  22
ATOM     22  O   UNL     1       5.343  -4.085  22.308  0.00  0.00    -0.303 OA
ATOM     23  H   UNL     1       5.025  -3.968  23.219  0.00  0.00    +0.222 HD
ENDBRANCH  20  22
BRANCH  20  24
ATOM     24  O   UNL     1       4.391  -6.336  21.934  0.00  0.00    -0.303 OA
ATOM     25  H   UNL     1       4.486  -7.043  21.270  0.00  0.00    +0.222 HD
ENDBRANCH  20  24
ENDBRANCH  19  20
ENDBRANCH  18  19
ENDBRANCH   3  18
TORSDOF 7
ENDMDL
MODEL 4
REMARK VINA RESULT:      -6.4      3.909      7.130
REMARK  Name = 
REMARK  8 active torsions:
REMARK  status: ('A' for Active; 'I' for Inactive)
REMARK    1  A    between atoms: C_1  and  C_2
REMARK    2  A    between atoms: N_4  and  C_5
REMARK    3  A    between atoms: C_8  and  O_10
REMARK    4  A    between atoms: C_11  and  C_13
REMARK    5  A    between atoms: C_13  and  O_14
REMARK    6  A    between atoms: O_14  and  P_15
REMARK    7  A    between atoms: P_15  and  O_16
REMARK    8  A    between atoms: P_15  and  O_17
REMARK                            x       y       z     vdW  Elec       q    Type
REMARK                         _______ _______ _______ _____ _____    ______ ____
ROOT
ATOM      1  C   UNL     1       8.750  -0.691  22.897  0.00  0.00    +0.226 C 
ATOM      2  O   UNL     1       7.813  -1.674  22.428  0.00  0.00    -0.348 OA
ATOM      3  C   UNL     1       8.059  -2.917  23.131  0.00  0.00    +0.175 C 
ATOM      4  C   UNL     1       9.119  -2.609  24.209  0.00  0.00    +0.150 C 
ATOM      5  C   UNL     1       9.025  -1.103  24.335  0.00  0.00    +0.088 C 
ENDROOT
BRANCH   1  14
ATOM      6  C   UNL     1       5.148   2.767  23.293  0.00  0.00    +0.051 C 
ATOM      7  C   UNL     1       6.486   2.282  22.842  0.00  0.00    +0.030 A 
ATOM      8  C   UNL     1       7.364   3.261  22.172  0.00  0.00    +0.257 A 
ATOM      9  O   UNL     1       7.042   4.430  22.023  0.00  0.00    -0.267 OA
ATOM     10  N   UNL     1       8.568   2.776  21.748  0.00  0.00    -0.275 N 
ATOM     11  H   UNL     1       9.200   3.436  21.324  0.00  0.00    +0.173 HD
ATOM     12  C   UNL     1       9.091   1.544  22.034  0.00  0.00    +0.331 A 
ATOM     13  O   UNL     1      10.269   1.320  21.797  0.00  0.00    -0.246 OA
ATOM     14  N   UNL     1       8.214   0.642  22.645  0.00  0.00    -0.274 N 
ATOM     15  C   UNL     1       6.945   1.039  23.023  0.00  0.00    +0.101 A 
ENDBRANCH   1  14
BRANCH   4  16
ATOM     16  O   UNL     1      10.426  -2.969  23.757  0.00  0.00    -0.389 OA
ATOM     17  H   UNL     1      11.066  -2.454  24.281  0.00  0.00    +0.210 HD
ENDBRANCH   4  16
BRANCH   3  18
ATOM     18  C   UNL     1       6.739  -3.376  23.761  0.00  0.00    +0.206 C 
BRANCH  18  19
ATOM     19  O   UNL     1       6.509  -4.772  23.538  0.00  0.00    -0.284 OA
BRANCH  19  20
ATOM     20  P   UNL     1       6.222  -5.222  21.892  0.00  0.00    +0.472 P 
ATOM     21  O   UNL     1       5.965  -5.624  20.420  0.00  0.00    -0.228 OA
BRANCH  20  22
ATOM     22  O   UNL     1       4.870  -4.316  22.032  0.00  0.00    -0.303 OA
ATOM     23  H   UNL     1       4.094  -4.855  22.258  0.00  0.00    +0.222 HD
ENDBRANCH  20  22
BRANCH  20  24
ATOM     24  O   UNL     1       5.616  -6.637  22.446  0.00  0.00    -0.303 OA
ATOM     25  H   UNL     1       6.342  -7.065  22.937  0.00  0.00    +0.222 HD
ENDBRANCH  20  24
ENDBRANCH  19  20
ENDBRANCH  18  19
ENDBRANCH   3  18
TORSDOF 7
ENDMDL
MODEL 5
REMARK VINA RESULT:      -6.3      3.110      6.314
REMARK  Name = 
REMARK  8 active torsions:
REMARK  status: ('A' for Active; 'I' for Inactive)
REMARK    1  A    between atoms: C_1  and  C_2
REMARK    2  A    between atoms: N_4  and  C_5
REMARK    3  A    between atoms: C_8  and  O_10
REMARK    4  A    between atoms: C_11  and  C_13
REMARK    5  A    between atoms: C_13  and  O_14
REMARK    6  A    between atoms: O_14  and  P_15
REMARK    7  A    between atoms: P_15  and  O_16
REMARK    8  A    between atoms: P_15  and  O_17
REMARK                            x       y       z     vdW  Elec       q    Type
REMARK                         _______ _______ _______ _____ _____    ______ ____
ROOT
ATOM      1  C   UNL     1       9.001  -3.019  25.537  0.00  0.00    +0.226 C 
ATOM      2  O   UNL     1       9.411  -3.976  24.548  0.00  0.00    -0.348 OA
ATOM      3  C   UNL     1       8.723  -5.226  24.803  0.00  0.00    +0.175 C 
ATOM      4  C   UNL     1       7.713  -4.946  25.935  0.00  0.00    +0.150 C 
ATOM      5  C   UNL     1       7.582  -3.439  25.889  0.00  0.00    +0.088 C 
ENDROOT
BRANCH   1  14
ATOM      6  C   UNL     1       9.675   0.212  21.769  0.00  0.00    +0.051 C 
ATOM      7  C   UNL     1       9.542  -0.142  23.213  0.00  0.00    +0.030 A 
ATOM      8  C   UNL     1       9.539   0.973  24.180  0.00  0.00    +0.257 A 
ATOM      9  O   UNL     1       9.601   2.141  23.827  0.00  0.00    -0.267 OA
ATOM     10  N   UNL     1       9.444   0.611  25.494  0.00  0.00    -0.275 N 
ATOM     11  H   UNL     1       9.400   1.357  26.168  0.00  0.00    +0.173 HD
ATOM     12  C   UNL     1       9.183  -0.644  25.970  0.00  0.00    +0.331 A 
ATOM     13  O   UNL     1       8.888  -0.793  27.147  0.00  0.00    -0.246 OA
ATOM     14  N   UNL     1       9.221  -1.672  25.022  0.00  0.00    -0.274 N 
ATOM     15  C   UNL     1       9.403  -1.387  23.681  0.00  0.00    +0.101 A 
ENDBRANCH   1  14
BRANCH   4  16
ATOM     16  O   UNL     1       8.244  -5.340  27.202  0.00  0.00    -0.389 OA
ATOM     17  H   UNL     1       8.482  -4.526  27.682  0.00  0.00    +0.210 HD
ENDBRANCH   4  16
BRANCH   3  18
ATOM     18  C   UNL     1       8.013  -5.650  23.513  0.00  0.00    +0.206 C 
BRANCH  18  19
ATOM     19  O   UNL     1       6.639  -5.245  23.513  0.00  0.00    -0.284 OA
BRANCH  19  20
ATOM     20  P   UNL     1       6.097  -4.465  22.066  0.00  0.00    +0.472 P 
ATOM     21  O   UNL     1       5.613  -3.768  20.772  0.00  0.00    -0.228 OA
BRANCH  20  22
ATOM     22  O   UNL     1       6.901  -5.659  21.294  0.00  0.00    -0.303 OA
ATOM     23  H   UNL     1       6.421  -5.971  20.509  0.00  0.00    +0.222 HD
ENDBRANCH  20  22
BRANCH  20  24
ATOM     24  O   UNL     1       7.340  -3.416  22.236  0.00  0.00    -0.303 OA
ATOM     25  H   UNL     1       7.047  -2.758  22.894  0.00  0.00    +0.222 HD
ENDBRANCH  20  24
ENDBRANCH  19  20
ENDBRANCH  18  19
ENDBRANCH   3  18
TORSDOF 7
ENDMDL
MODEL 6
REMARK VINA RESULT:      -6.2      2.838      3.214
REMARK  Name = 
REMARK  8 active torsions:
REMARK  status: ('A' for Active; 'I' for Inactive)
REMARK    1  A    between atoms: C_1  and  C_2
REMARK    2  A    between atoms: N_4  and  C_5
REMARK    3  A    between atoms: C_8  and  O_10
REMARK    4  A    between atoms: C_11  and  C_13
REMARK    5  A    between atoms: C_13  and  O_14
REMARK    6  A    between atoms: O_14  and  P_15
REMARK    7  A    between atoms: P_15  and  O_16
REMARK    8  A    between atoms: P_15  and  O_17
REMARK                            x       y       z     vdW  Elec       q    Type
REMARK                         _______ _______ _______ _____ _____    ______ ____
ROOT
ATOM      1  C   UNL     1       7.855  -3.871  22.957  0.00  0.00    +0.226 C 
ATOM      2  O   UNL     1       8.712  -3.528  24.058  0.00  0.00    -0.348 OA
ATOM      3  C   UNL     1       9.301  -2.230  23.796  0.00  0.00    +0.175 C 
ATOM      4  C   UNL     1       8.624  -1.691  22.518  0.00  0.00    +0.150 C 
ATOM      5  C   UNL     1       7.364  -2.527  22.441  0.00  0.00    +0.088 C 
ENDROOT
BRANCH   1  14
ATOM      6  C   UNL     1       5.005  -5.964  26.504  0.00  0.00    +0.051 C 
ATOM      7  C   UNL     1       5.515  -5.837  25.106  0.00  0.00    +0.030 A 
ATOM      8  C   UNL     1       4.899  -6.708  24.086  0.00  0.00    +0.257 A 
ATOM      9  O   UNL     1       3.984  -7.474  24.349  0.00  0.00    -0.267 OA
ATOM     10  N   UNL     1       5.408  -6.585  22.825  0.00  0.00    -0.275 N 
ATOM     11  H   UNL     1       4.976  -7.140  22.105  0.00  0.00    +0.173 HD
ATOM     12  C   UNL     1       6.291  -5.632  22.398  0.00  0.00    +0.331 A 
ATOM     13  O   UNL     1       6.486  -5.483  21.200  0.00  0.00    -0.246 OA
ATOM     14  N   UNL     1       6.869  -4.848  23.403  0.00  0.00    -0.274 N 
ATOM     15  C   UNL     1       6.465  -4.980  24.719  0.00  0.00    +0.101 A 
ENDBRANCH   1  14
BRANCH   4  16
ATOM     16  O   UNL     1       9.435  -1.943  21.368  0.00  0.00    -0.389 OA
ATOM     17  H   UNL     1       8.835  -2.036  20.606  0.00  0.00    +0.210 HD
ENDBRANCH   4  16
BRANCH   3  18
ATOM     18  C   UNL     1       9.015  -1.327  25.002  0.00  0.00    +0.206 C 
BRANCH  18  19
ATOM     19  O   UNL     1       8.548  -0.036  24.591  0.00  0.00    -0.284 OA
BRANCH  19  20
ATOM     20  P   UNL     1       9.785   1.132  24.274  0.00  0.00    +0.472 P 
ATOM     21  O   UNL     1      10.891   2.176  23.990  0.00  0.00    -0.228 OA
BRANCH  20  22
ATOM     22  O   UNL     1      10.570   0.425  25.519  0.00  0.00    -0.303 OA
ATOM     23  H   UNL     1      11.435   0.073  25.250  0.00  0.00    +0.222 HD
ENDBRANCH  20  22
BRANCH  20  24
ATOM     24  O   UNL     1       8.904   2.210  25.132  0.00  0.00    -0.303 OA
ATOM     25  H   UNL     1       9.489   2.977  25.280  0.00  0.00    +0.222 HD
ENDBRANCH  20  24
ENDBRANCH  19  20
ENDBRANCH  18  19
ENDBRANCH   3  18
TORSDOF 7
ENDMDL
MODEL 7
REMARK VINA RESULT:      -6.2      3.814      7.100
REMARK  Name = 
REMARK  8 active torsions:
REMARK  status: ('A' for Active; 'I' for Inactive)
REMARK    1  A    between atoms: C_1  and  C_2
REMARK    2  A    between atoms: N_4  and  C_5
REMARK    3  A    between atoms: C_8  and  O_10
REMARK    4  A    between atoms: C_11  and  C_13
REMARK    5  A    between atoms: C_13  and  O_14
REMARK    6  A    between atoms: O_14  and  P_15
REMARK    7  A    between atoms: P_15  and  O_16
REMARK    8  A    between atoms: P_15  and  O_17
REMARK                            x       y       z     vdW  Elec       q    Type
REMARK                         _______ _______ _______ _____ _____    ______ ____
ROOT
ATOM      1  C   UNL     1       9.365  -0.973  23.469  0.00  0.00    +0.226 C 
ATOM      2  O   UNL     1       8.683  -1.532  22.336  0.00  0.00    -0.348 OA
ATOM      3  C   UNL     1       8.281  -2.886  22.662  0.00  0.00    +0.175 C 
ATOM      4  C   UNL     1       8.613  -3.094  24.154  0.00  0.00    +0.150 C 
ATOM      5  C   UNL     1       8.731  -1.673  24.662  0.00  0.00    +0.088 C 
ENDROOT
BRANCH   1  14
ATOM      6  C   UNL     1       7.059   3.285  22.187  0.00  0.00    +0.051 C 
ATOM      7  C   UNL     1       8.186   2.506  22.782  0.00  0.00    +0.030 A 
ATOM      8  C   UNL     1       9.265   3.276  23.430  0.00  0.00    +0.257 A 
ATOM      9  O   UNL     1       9.232   4.494  23.521  0.00  0.00    -0.267 OA
ATOM     10  N   UNL     1      10.293   2.534  23.938  0.00  0.00    -0.275 N 
ATOM     11  H   UNL     1      11.020   3.035  24.420  0.00  0.00    +0.173 HD
ATOM     12  C   UNL     1      10.327   1.171  24.052  0.00  0.00    +0.331 A 
ATOM     13  O   UNL     1      11.193   0.645  24.735  0.00  0.00    -0.246 OA
ATOM     14  N   UNL     1       9.298   0.482  23.399  0.00  0.00    -0.274 N 
ATOM     15  C   UNL     1       8.269   1.172  22.786  0.00  0.00    +0.101 A 
ENDBRANCH   1  14
BRANCH   4  16
ATOM     16  O   UNL     1       9.867  -3.762  24.309  0.00  0.00    -0.389 OA
ATOM     17  H   UNL     1      10.526  -3.087  24.557  0.00  0.00    +0.210 HD
ENDBRANCH   4  16
BRANCH   3  18
ATOM     18  C   UNL     1       6.775  -3.011  22.402  0.00  0.00    +0.206 C 
BRANCH  18  19
ATOM     19  O   UNL     1       6.457  -4.243  21.745  0.00  0.00    -0.284 OA
BRANCH  19  20
ATOM     20  P   UNL     1       5.723  -5.448  22.747  0.00  0.00    +0.472 P 
ATOM     21  O   UNL     1       5.067  -6.526  23.643  0.00  0.00    -0.228 OA
BRANCH  20  22
ATOM     22  O   UNL     1       5.661  -6.340  21.381  0.00  0.00    -0.303 OA
ATOM     23  H   UNL     1       6.134  -5.914  20.647  0.00  0.00    +0.222 HD
ENDBRANCH  20  22
BRANCH  20  24
ATOM     24  O   UNL     1       4.308  -4.647  22.572  0.00  0.00    -0.303 OA
ATOM     25  H   UNL     1       4.042  -4.774  21.642  0.00  0.00    +0.222 HD
ENDBRANCH  20  24
ENDBRANCH  19  20
ENDBRANCH  18  19
ENDBRANCH   3  18
TORSDOF 7
ENDMDL
MODEL 8
REMARK VINA RESULT:      -6.1      3.296      7.218
REMARK  Name = 
REMARK  8 active torsions:
REMARK  status: ('A' for Active; 'I' for Inactive)
REMARK    1  A    between atoms: C_1  and  C_2
REMARK    2  A    between atoms: N_4  and  C_5
REMARK    3  A    between atoms: C_8  and  O_10
REMARK    4  A    between atoms: C_11  and  C_13
REMARK    5  A    between atoms: C_13  and  O_14
REMARK    6  A    between atoms: O_14  and  P_15
REMARK    7  A    between atoms: P_15  and  O_16
REMARK    8  A    between atoms: P_15  and  O_17
REMARK                            x       y       z     vdW  Elec       q    Type
REMARK                         _______ _______ _______ _____ _____    ______ ____
ROOT
ATOM      1  C   UNL     1       8.696  -0.619  22.887  0.00  0.00    +0.226 C 
ATOM      2  O   UNL     1       7.607  -1.550  22.983  0.00  0.00    -0.348 OA
ATOM      3  C   UNL     1       8.055  -2.707  23.732  0.00  0.00    +0.175 C 
ATOM      4  C   UNL     1       9.467  -2.371  24.254  0.00  0.00    +0.150 C 
ATOM      5  C   UNL     1       9.499  -0.861  24.156  0.00  0.00    +0.088 C 
ENDROOT
BRANCH   1  14
ATOM      6  C   UNL     1       5.120   2.861  23.333  0.00  0.00    +0.051 C 
ATOM      7  C   UNL     1       6.449   2.368  22.864  0.00  0.00    +0.030 A 
ATOM      8  C   UNL     1       7.325   3.343  22.185  0.00  0.00    +0.257 A 
ATOM      9  O   UNL     1       7.008   4.514  22.042  0.00  0.00    -0.267 OA
ATOM     10  N   UNL     1       8.521   2.851  21.745  0.00  0.00    -0.275 N 
ATOM     11  H   UNL     1       9.151   3.508  21.314  0.00  0.00    +0.173 HD
ATOM     12  C   UNL     1       9.039   1.616  22.022  0.00  0.00    +0.331 A 
ATOM     13  O   UNL     1      10.213   1.385  21.771  0.00  0.00    -0.246 OA
ATOM     14  N   UNL     1       8.165   0.717  22.643  0.00  0.00    -0.274 N 
ATOM     15  C   UNL     1       6.903   1.122  23.038  0.00  0.00    +0.101 A 
ENDBRANCH   1  14
BRANCH   4  16
ATOM     16  O   UNL     1      10.471  -2.926  23.401  0.00  0.00    -0.389 OA
ATOM     17  H   UNL     1      11.324  -2.535  23.665  0.00  0.00    +0.210 HD
ENDBRANCH   4  16
BRANCH   3  18
ATOM     18  C   UNL     1       7.072  -2.934  24.887  0.00  0.00    +0.206 C 
BRANCH  18  19
ATOM     19  O   UNL     1       7.665  -3.710  25.935  0.00  0.00    -0.284 OA
BRANCH  19  20
ATOM     20  P   UNL     1       6.824  -5.167  26.343  0.00  0.00    +0.472 P 
ATOM     21  O   UNL     1       6.072  -6.469  26.708  0.00  0.00    -0.228 OA
BRANCH  20  22
ATOM     22  O   UNL     1       6.632  -4.474  27.809  0.00  0.00    -0.303 OA
ATOM     23  H   UNL     1       7.260  -3.746  27.952  0.00  0.00    +0.222 HD
ENDBRANCH  20  22
BRANCH  20  24
ATOM     24  O   UNL     1       8.280  -5.865  26.600  0.00  0.00    -0.303 OA
ATOM     25  H   UNL     1       8.106  -6.821  26.694  0.00  0.00    +0.222 HD
ENDBRANCH  20  24
ENDBRANCH  19  20
ENDBRANCH  18  19
ENDBRANCH   3  18
TORSDOF 7
ENDMDL
MODEL 9
REMARK VINA RESULT:      -6.1      3.705      7.325
REMARK  Name = 
REMARK  8 active torsions:
REMARK  status: ('A' for Active; 'I' for Inactive)
REMARK    1  A    between atoms: C_1  and  C_2
REMARK    2  A    between atoms: N_4  and  C_5
REMARK    3  A    between atoms: C_8  and  O_10
REMARK    4  A    between atoms: C_11  and  C_13
REMARK    5  A    between atoms: C_13  and  O_14
REMARK    6  A    between atoms: O_14  and  P_15
REMARK    7  A    between atoms: P_15  and  O_16
REMARK    8  A    between atoms: P_15  and  O_17
REMARK                            x       y       z     vdW  Elec       q    Type
REMARK                         _______ _______ _______ _____ _____    ______ ____
ROOT
ATOM      1  C   UNL     1       8.724  -3.108  23.365  0.00  0.00    +0.226 C 
ATOM      2  O   UNL     1       7.576  -3.818  22.872  0.00  0.00    -0.348 OA
ATOM      3  C   UNL     1       7.361  -4.983  23.707  0.00  0.00    +0.175 C 
ATOM      4  C   UNL     1       8.361  -4.875  24.877  0.00  0.00    +0.150 C 
ATOM      5  C   UNL     1       8.726  -3.406  24.857  0.00  0.00    +0.088 C 
ENDROOT
BRANCH   1  14
ATOM      6  C   UNL     1       6.400   1.322  23.114  0.00  0.00    +0.051 C 
ATOM      7  C   UNL     1       7.530   0.390  22.821  0.00  0.00    +0.030 A 
ATOM      8  C   UNL     1       8.700   0.955  22.120  0.00  0.00    +0.257 A 
ATOM      9  O   UNL     1       8.773   2.138  21.824  0.00  0.00    -0.267 OA
ATOM     10  N   UNL     1       9.702   0.070  21.844  0.00  0.00    -0.275 N 
ATOM     11  H   UNL     1      10.527   0.441  21.402  0.00  0.00    +0.173 HD
ATOM     12  C   UNL     1       9.793  -1.217  22.298  0.00  0.00    +0.331 A 
ATOM     13  O   UNL     1      10.846  -1.826  22.178  0.00  0.00    -0.246 OA
ATOM     14  N   UNL     1       8.651  -1.718  22.933  0.00  0.00    -0.274 N 
ATOM     15  C   UNL     1       7.561  -0.900  23.168  0.00  0.00    +0.101 A 
ENDBRANCH   1  14
BRANCH   4  16
ATOM     16  O   UNL     1       9.529  -5.659  24.623  0.00  0.00    -0.389 OA
ATOM     17  H   UNL     1       9.286  -6.333  23.962  0.00  0.00    +0.210 HD
ENDBRANCH   4  16
BRANCH   3  18
ATOM     18  C   UNL     1       5.912  -4.948  24.207  0.00  0.00    +0.206 C 
BRANCH  18  19
ATOM     19  O   UNL     1       5.701  -5.887  25.267  0.00  0.00    -0.284 OA
BRANCH  19  20
ATOM     20  P   UNL     1       4.355  -6.954  25.054  0.00  0.00    +0.472 P 
ATOM     21  O   UNL     1       3.151  -7.908  24.864  0.00  0.00    -0.228 OA
BRANCH  20  22
ATOM     22  O   UNL     1       4.979  -7.211  23.567  0.00  0.00    -0.303 OA
ATOM     23  H   UNL     1       5.950  -7.208  23.576  0.00  0.00    +0.222 HD
ENDBRANCH  20  22
BRANCH  20  24
ATOM     24  O   UNL     1       3.445  -5.640  24.704  0.00  0.00    -0.303 OA
ATOM     25  H   UNL     1       4.010  -5.061  24.160  0.00  0.00    +0.222 HD
ENDBRANCH  20  24
ENDBRANCH  19  20
ENDBRANCH  18  19
ENDBRANCH   3  18
TORSDOF 7
ENDMDL
