MODEL 1
REMARK VINA RESULT:      -5.4      0.000      0.000
REMARK  Name = 
REMARK  2 active torsions:
REMARK  status: ('A' for Active; 'I' for Inactive)
REMARK    1  A    between atoms: C_2  and  O_3
REMARK    2  A    between atoms: N_5  and  C_6
REMARK                            x       y       z     vdW  Elec       q    Type
REMARK                         _______ _______ _______ _____ _____    ______ ____
ROOT
ATOM      1  C   UNL     1       8.825  -4.908  24.864  0.00  0.00    +0.164 C 
ATOM      2  C   UNL     1       7.549  -5.040  24.074  0.00  0.00    +0.007 C 
ATOM      3  C   UNL     1       6.441  -5.200  24.995  0.00  0.00    +0.039 C 
ATOM      4  C   UNL     1       5.185  -5.363  24.569  0.00  0.00    +0.078 C 
ATOM      5  C   UNL     1       4.901  -5.376  23.117  0.00  0.00    +0.227 C 
ATOM      6  C   UNL     1       6.080  -5.199  22.156  0.00  0.00    +0.226 C 
ATOM      7  O   UNL     1       5.921  -5.176  20.943  0.00  0.00    -0.284 OA
ATOM      8  O   UNL     1       3.757  -5.520  22.708  0.00  0.00    -0.284 OA
ATOM      9  N   UNL     1       6.923  -5.163  26.283  0.00  0.00    -0.330 N 
ATOM     10  C   UNL     1       6.171  -5.341  27.506  0.00  0.00    +0.129 C 
ATOM     11  C   UNL     1       7.426  -5.039  22.743  0.00  0.00    +0.062 C 
ATOM     12  C   UNL     1       8.377  -5.016  26.344  0.00  0.00    +0.141 C 
ENDROOT
BRANCH   1  13
ATOM     13  O   UNL     1       9.708  -5.960  24.484  0.00  0.00    -0.386 OA
ATOM     14  H   UNL     1      10.607  -5.695  24.741  0.00  0.00    +0.210 HD
ENDBRANCH   1  13
TORSDOF 1
ENDMDL
MODEL 2
REMARK VINA RESULT:      -5.3      2.074      4.801
REMARK  Name = 
REMARK  2 active torsions:
REMARK  status: ('A' for Active; 'I' for Inactive)
REMARK    1  A    between atoms: C_2  and  O_3
REMARK    2  A    between atoms: N_5  and  C_6
REMARK                            x       y       z     vdW  Elec       q    Type
REMARK                         _______ _______ _______ _____ _____    ______ ____
ROOT
ATOM      1  C   UNL     1       4.472  -6.115  24.135  0.00  0.00    +0.164 C 
ATOM      2  C   UNL     1       5.594  -5.781  25.083  0.00  0.00    +0.007 C 
ATOM      3  C   UNL     1       6.615  -5.044  24.365  0.00  0.00    +0.039 C 
ATOM      4  C   UNL     1       7.741  -4.637  24.957  0.00  0.00    +0.078 C 
ATOM      5  C   UNL     1       7.964  -4.934  26.388  0.00  0.00    +0.227 C 
ATOM      6  C   UNL     1       6.875  -5.707  27.137  0.00  0.00    +0.226 C 
ATOM      7  O   UNL     1       6.978  -5.970  28.328  0.00  0.00    -0.284 OA
ATOM      8  O   UNL     1       8.987  -4.565  26.948  0.00  0.00    -0.284 OA
ATOM      9  N   UNL     1       6.212  -4.883  23.060  0.00  0.00    -0.330 N 
ATOM     10  C   UNL     1       6.951  -4.257  21.985  0.00  0.00    +0.129 C 
ATOM     11  C   UNL     1       5.677  -6.116  26.375  0.00  0.00    +0.062 C 
ATOM     12  C   UNL     1       4.925  -5.517  22.777  0.00  0.00    +0.141 C 
ENDROOT
BRANCH   1  13
ATOM     13  O   UNL     1       4.323  -7.531  24.083  0.00  0.00    -0.386 OA
ATOM     14  H   UNL     1       4.675  -7.832  23.229  0.00  0.00    +0.210 HD
ENDBRANCH   1  13
TORSDOF 1
ENDMDL
MODEL 3
REMARK VINA RESULT:      -5.2      3.500      4.893
REMARK  Name = 
REMARK  2 active torsions:
REMARK  status: ('A' for Active; 'I' for Inactive)
REMARK    1  A    between atoms: C_2  and  O_3
REMARK    2  A    between atoms: N_5  and  C_6
REMARK                            x       y       z     vdW  Elec       q    Type
REMARK                         _______ _______ _______ _____ _____    ______ ____
ROOT
ATOM      1  C   UNL     1       8.896  -4.357  24.756  0.00  0.00    +0.164 C 
ATOM      2  C   UNL     1       9.106  -3.071  24.001  0.00  0.00    +0.007 C 
ATOM      3  C   UNL     1       8.235  -3.059  22.842  0.00  0.00    +0.039 C 
ATOM      4  C   UNL     1       8.227  -2.043  21.975  0.00  0.00    +0.078 C 
ATOM      5  C   UNL     1       9.125  -0.887  22.193  0.00  0.00    +0.227 C 
ATOM      6  C   UNL     1      10.035  -0.910  23.424  0.00  0.00    +0.226 C 
ATOM      7  O   UNL     1      10.787   0.019  23.683  0.00  0.00    -0.284 OA
ATOM      8  O   UNL     1       9.128   0.054  21.411  0.00  0.00    -0.284 OA
ATOM      9  N   UNL     1       7.496  -4.219  22.828  0.00  0.00    -0.330 N 
ATOM     10  C   UNL     1       6.547  -4.642  21.822  0.00  0.00    +0.129 C 
ATOM     11  C   UNL     1       9.965  -2.093  24.307  0.00  0.00    +0.062 C 
ATOM     12  C   UNL     1       7.824  -5.118  23.934  0.00  0.00    +0.141 C 
ENDROOT
BRANCH   1  13
ATOM     13  O   UNL     1      10.134  -5.059  24.818  0.00  0.00    -0.386 OA
ATOM     14  H   UNL     1       9.941  -6.005  24.712  0.00  0.00    +0.210 HD
ENDBRANCH   1  13
TORSDOF 1
ENDMDL
MODEL 4
REMARK VINA RESULT:      -5.1      5.725      6.594
REMARK  Name = 
REMARK  2 active torsions:
REMARK  status: ('A' for Active; 'I' for Inactive)
REMARK    1  A    between atoms: C_2  and  O_3
REMARK    2  A    between atoms: N_5  and  C_6
REMARK                            x       y       z     vdW  Elec       q    Type
REMARK                         _______ _______ _______ _____ _____    ______ ____
ROOT
ATOM      1  C   UNL     1       8.786   1.425  21.389  0.00  0.00    +0.164 C 
ATOM      2  C   UNL     1       8.886   0.232  22.303  0.00  0.00    +0.007 C 
ATOM      3  C   UNL     1       7.810   0.291  23.273  0.00  0.00    +0.039 C 
ATOM      4  C   UNL     1       7.666  -0.633  24.227  0.00  0.00    +0.078 C 
ATOM      5  C   UNL     1       8.623  -1.759  24.305  0.00  0.00    +0.227 C 
ATOM      6  C   UNL     1       9.750  -1.813  23.270  0.00  0.00    +0.226 C 
ATOM      7  O   UNL     1      10.565  -2.726  23.256  0.00  0.00    -0.284 OA
ATOM      8  O   UNL     1       8.505  -2.618  25.168  0.00  0.00    -0.284 OA
ATOM      9  N   UNL     1       7.048   1.409  23.026  0.00  0.00    -0.330 N 
ATOM     10  C   UNL     1       5.912   1.882  23.786  0.00  0.00    +0.129 C 
ATOM     11  C   UNL     1       9.816  -0.728  22.269  0.00  0.00    +0.062 C 
ATOM     12  C   UNL     1       7.555   2.210  21.912  0.00  0.00    +0.141 C 
ENDROOT
BRANCH   1  13
ATOM     13  O   UNL     1       9.992   2.177  21.487  0.00  0.00    -0.386 OA
ATOM     14  H   UNL     1      10.497   2.030  20.669  0.00  0.00    +0.210 HD
ENDBRANCH   1  13
TORSDOF 1
ENDMDL
MODEL 5
REMARK VINA RESULT:      -5.0      5.977      6.672
REMARK  Name = 
REMARK  2 active torsions:
REMARK  status: ('A' for Active; 'I' for Inactive)
REMARK    1  A    between atoms: C_2  and  O_3
REMARK    2  A    between atoms: N_5  and  C_6
REMARK                            x       y       z     vdW  Elec       q    Type
REMARK                         _______ _______ _______ _____ _____    ______ ____
ROOT
ATOM      1  C   UNL     1      10.486  -1.478  22.874  0.00  0.00    +0.164 C 
ATOM      2  C   UNL     1       9.985  -0.173  23.437  0.00  0.00    +0.007 C 
ATOM      3  C   UNL     1       9.153  -0.447  24.592  0.00  0.00    +0.039 C 
ATOM      4  C   UNL     1       8.554   0.529  25.279  0.00  0.00    +0.078 C 
ATOM      5  C   UNL     1       8.740   1.937  24.864  0.00  0.00    +0.227 C 
ATOM      6  C   UNL     1       9.627   2.213  23.646  0.00  0.00    +0.226 C 
ATOM      7  O   UNL     1       9.846   3.352  23.257  0.00  0.00    -0.284 OA
ATOM      8  O   UNL     1       8.202   2.845  25.483  0.00  0.00    -0.284 OA
ATOM      9  N   UNL     1       9.111  -1.806  24.798  0.00  0.00    -0.330 N 
ATOM     10  C   UNL     1       8.353  -2.518  25.805  0.00  0.00    +0.129 C 
ATOM     11  C   UNL     1      10.228   1.051  22.958  0.00  0.00    +0.062 C 
ATOM     12  C   UNL     1       9.865  -2.559  23.797  0.00  0.00    +0.141 C 
ENDROOT
BRANCH   1  13
ATOM     13  O   UNL     1      10.043  -1.594  21.526  0.00  0.00    -0.386 OA
ATOM     14  H   UNL     1      10.292  -0.776  21.064  0.00  0.00    +0.210 HD
ENDBRANCH   1  13
TORSDOF 1
ENDMDL
MODEL 6
REMARK VINA RESULT:      -5.0      1.581      3.960
REMARK  Name = 
REMARK  2 active torsions:
REMARK  status: ('A' for Active; 'I' for Inactive)
REMARK    1  A    between atoms: C_2  and  O_3
REMARK    2  A    between atoms: N_5  and  C_6
REMARK                            x       y       z     vdW  Elec       q    Type
REMARK                         _______ _______ _______ _____ _____    ______ ____
ROOT
ATOM      1  C   UNL     1       5.535  -5.500  22.337  0.00  0.00    +0.164 C 
ATOM      2  C   UNL     1       6.474  -5.353  23.505  0.00  0.00    +0.007 C 
ATOM      3  C   UNL     1       5.731  -5.552  24.734  0.00  0.00    +0.039 C 
ATOM      4  C   UNL     1       6.311  -5.457  25.934  0.00  0.00    +0.078 C 
ATOM      5  C   UNL     1       7.754  -5.145  26.026  0.00  0.00    +0.227 C 
ATOM      6  C   UNL     1       8.529  -4.945  24.720  0.00  0.00    +0.226 C 
ATOM      7  O   UNL     1       9.729  -4.707  24.716  0.00  0.00    -0.284 OA
ATOM      8  O   UNL     1       8.304  -5.058  27.116  0.00  0.00    -0.284 OA
ATOM      9  N   UNL     1       4.420  -5.823  24.422  0.00  0.00    -0.330 N 
ATOM     10  C   UNL     1       3.324  -6.029  25.344  0.00  0.00    +0.129 C 
ATOM     11  C   UNL     1       7.778  -5.063  23.453  0.00  0.00    +0.062 C 
ATOM     12  C   UNL     1       4.157  -5.794  22.984  0.00  0.00    +0.141 C 
ENDROOT
BRANCH   1  13
ATOM     13  O   UNL     1       5.538  -4.285  21.592  0.00  0.00    -0.386 OA
ATOM     14  H   UNL     1       6.460  -4.088  21.356  0.00  0.00    +0.210 HD
ENDBRANCH   1  13
TORSDOF 1
ENDMDL
MODEL 7
REMARK VINA RESULT:      -5.0      1.684      2.427
REMARK  Name = 
REMARK  2 active torsions:
REMARK  status: ('A' for Active; 'I' for Inactive)
REMARK    1  A    between atoms: C_2  and  O_3
REMARK    2  A    between atoms: N_5  and  C_6
REMARK                            x       y       z     vdW  Elec       q    Type
REMARK                         _______ _______ _______ _____ _____    ______ ____
ROOT
ATOM      1  C   UNL     1       6.836  -5.283  26.426  0.00  0.00    +0.164 C 
ATOM      2  C   UNL     1       6.725  -4.891  24.976  0.00  0.00    +0.007 C 
ATOM      3  C   UNL     1       5.593  -5.580  24.388  0.00  0.00    +0.039 C 
ATOM      4  C   UNL     1       5.270  -5.436  23.100  0.00  0.00    +0.078 C 
ATOM      5  C   UNL     1       6.078  -4.547  22.237  0.00  0.00    +0.227 C 
ATOM      6  C   UNL     1       7.266  -3.820  22.873  0.00  0.00    +0.226 C 
ATOM      7  O   UNL     1       7.967  -3.051  22.228  0.00  0.00    -0.284 OA
ATOM      8  O   UNL     1       5.795  -4.400  21.056  0.00  0.00    -0.284 OA
ATOM      9  N   UNL     1       4.990  -6.350  25.355  0.00  0.00    -0.330 N 
ATOM     10  C   UNL     1       3.863  -7.242  25.188  0.00  0.00    +0.129 C 
ATOM     11  C   UNL     1       7.535  -4.066  24.305  0.00  0.00    +0.062 C 
ATOM     12  C   UNL     1       5.670  -6.281  26.647  0.00  0.00    +0.141 C 
ENDROOT
BRANCH   1  13
ATOM     13  O   UNL     1       8.111  -5.880  26.642  0.00  0.00    -0.386 OA
ATOM     14  H   UNL     1       8.286  -5.862  27.598  0.00  0.00    +0.210 HD
ENDBRANCH   1  13
TORSDOF 1
ENDMDL
MODEL 8
REMARK VINA RESULT:      -4.8      4.940      5.821
REMARK  Name = 
REMARK  2 active torsions:
REMARK  status: ('A' for Active; 'I' for Inactive)
REMARK    1  A    between atoms: C_2  and  O_3
REMARK    2  A    between atoms: N_5  and  C_6
REMARK                            x       y       z     vdW  Elec       q    Type
REMARK                         _______ _______ _______ _____ _____    ______ ____
ROOT
ATOM      1  C   UNL     1      10.566   0.460  23.833  0.00  0.00    +0.164 C 
ATOM      2  C   UNL     1       9.686  -0.742  23.610  0.00  0.00    +0.007 C 
ATOM      3  C   UNL     1       8.526  -0.338  22.840  0.00  0.00    +0.039 C 
ATOM      4  C   UNL     1       7.560  -1.201  22.512  0.00  0.00    +0.078 C 
ATOM      5  C   UNL     1       7.666  -2.614  22.936  0.00  0.00    +0.227 C 
ATOM      6  C   UNL     1       8.900  -3.028  23.744  0.00  0.00    +0.226 C 
ATOM      7  O   UNL     1       9.068  -4.183  24.110  0.00  0.00    -0.284 OA
ATOM      8  O   UNL     1       6.793  -3.419  22.642  0.00  0.00    -0.284 OA
ATOM      9  N   UNL     1       8.624   1.004  22.557  0.00  0.00    -0.330 N 
ATOM     10  C   UNL     1       7.659   1.827  21.860  0.00  0.00    +0.129 C 
ATOM     11  C   UNL     1       9.897  -1.984  24.056  0.00  0.00    +0.062 C 
ATOM     12  C   UNL     1       9.817   1.623  23.133  0.00  0.00    +0.141 C 
ENDROOT
BRANCH   1  13
ATOM     13  O   UNL     1      10.707   0.669  25.235  0.00  0.00    -0.386 OA
ATOM     14  H   UNL     1      10.038   1.321  25.503  0.00  0.00    +0.210 HD
ENDBRANCH   1  13
TORSDOF 1
ENDMDL
MODEL 9
REMARK VINA RESULT:      -4.8      2.935      3.360
REMARK  Name = 
REMARK  2 active torsions:
REMARK  status: ('A' for Active; 'I' for Inactive)
REMARK    1  A    between atoms: C_2  and  O_3
REMARK    2  A    between atoms: N_5  and  C_6
REMARK                            x       y       z     vdW  Elec       q    Type
REMARK                         _______ _______ _______ _____ _____    ______ ____
ROOT
ATOM      1  C   UNL     1       9.243  -4.821  26.147  0.00  0.00    +0.164 C 
ATOM      2  C   UNL     1       8.936  -3.748  25.136  0.00  0.00    +0.007 C 
ATOM      3  C   UNL     1       7.528  -3.412  25.217  0.00  0.00    +0.039 C 
ATOM      4  C   UNL     1       6.971  -2.501  24.415  0.00  0.00    +0.078 C 
ATOM      5  C   UNL     1       7.803  -1.801  23.413  0.00  0.00    +0.227 C 
ATOM      6  C   UNL     1       9.291  -2.160  23.342  0.00  0.00    +0.226 C 
ATOM      7  O   UNL     1      10.047  -1.607  22.555  0.00  0.00    -0.284 OA
ATOM      8  O   UNL     1       7.312  -0.960  22.672  0.00  0.00    -0.284 OA
ATOM      9  N   UNL     1       6.945  -4.176  26.202  0.00  0.00    -0.330 N 
ATOM     10  C   UNL     1       5.548  -4.204  26.578  0.00  0.00    +0.129 C 
ATOM     11  C   UNL     1       9.792  -3.192  24.272  0.00  0.00    +0.062 C 
ATOM     12  C   UNL     1       7.881  -5.104  26.834  0.00  0.00    +0.141 C 
ENDROOT
BRANCH   1  13
ATOM     13  O   UNL     1       9.754  -5.961  25.463  0.00  0.00    -0.386 OA
ATOM     14  H   UNL     1       9.023  -6.352  24.956  0.00  0.00    +0.210 HD
ENDBRANCH   1  13
TORSDOF 1
ENDMDL
