MODEL 1
REMARK VINA RESULT:      -5.9      0.000      0.000
REMARK  Name = 
REMARK  14 active torsions:
REMARK  status: ('A' for Active; 'I' for Inactive)
REMARK    1  A    between atoms: C_2  and  C_3
REMARK    2  A    between atoms: C_2  and  N_14
REMARK    3  A    between atoms: C_2  and  C_22
REMARK    4  A    between atoms: C_3  and  C_4
REMARK    5  A    between atoms: C_7  and  C_8
REMARK    6  A    between atoms: C_8  and  SE_9
REMARK    7  A    between atoms: SE_9  and  O_10
REMARK    8  A    between atoms: C_15  and  O_17
REMARK    9  A    between atoms: O_17  and  C_18
REMARK   10  A    between atoms: C_18  and  C_19
REMARK   11  A    between atoms: C_18  and  C_20
REMARK   12  A    between atoms: C_18  and  C_21
REMARK   13  A    between atoms: C_22  and  O_24
REMARK   14  A    between atoms: O_24  and  C_25
REMARK                            x       y       z     vdW  Elec       q    Type
REMARK                         _______ _______ _______ _____ _____    ______ ____
ROOT
ATOM      1  C   UNL     1       6.888  -4.412  25.891  0.00  0.00    +0.000 C 
ENDROOT
BRANCH   1   2
ATOM      2  N   UNL     1       5.762  -5.303  25.671  0.00  0.00    +0.000 N 
ATOM      3  H   UNL     1       5.112  -5.470  26.457  0.00  0.00    +0.000 HD
ATOM      4  C   UNL     1       5.540  -5.944  24.493  0.00  0.00    +0.000 C 
ATOM      5  O   UNL     1       4.581  -6.694  24.402  0.00  0.00    +0.000 OA
BRANCH   4   6
ATOM      6  O   UNL     1       6.385  -5.754  23.438  0.00  0.00    +0.000 OA
BRANCH   6   7
ATOM      7  C   UNL     1       6.280  -4.817  22.416  0.00  0.00    +0.000 C 
ATOM      8  C   UNL     1       7.485  -3.854  22.443  0.00  0.00    +0.000 C 
ATOM      9  C   UNL     1       4.998  -4.000  22.652  0.00  0.00    +0.000 C 
ATOM     10  C   UNL     1       6.171  -5.517  21.048  0.00  0.00    +0.000 C 
ENDBRANCH   6   7
ENDBRANCH   4   6
ENDBRANCH   1   2
BRANCH   1  11
ATOM     11  C   UNL     1       7.845  -5.073  26.865  0.00  0.00    +0.000 C 
ATOM     12  O   UNL     1       7.390  -5.777  27.758  0.00  0.00    +0.000 OA
BRANCH  11  13
ATOM     13  O   UNL     1       9.188  -4.945  26.709  0.00  0.00    +0.000 OA
ATOM     14  C   UNL     1       9.833  -4.979  25.493  0.00  0.00    +0.000 C 
ENDBRANCH  11  13
ENDBRANCH   1  11
BRANCH   1  15
ATOM     15  C   UNL     1       6.365  -3.039  26.383  0.00  0.00    +0.000 C 
BRANCH  15  16
ATOM     16  C   UNL     1       6.971  -1.811  25.720  0.00  0.00    +0.000 A 
ATOM     17  C   UNL     1       8.264  -1.417  26.107  0.00  0.00    +0.000 A 
ATOM     18  C   UNL     1       8.899  -0.339  25.480  0.00  0.00    +0.000 A 
ATOM     19  C   UNL     1       8.253   0.362  24.449  0.00  0.00    +0.000 A 
ATOM     20  C   UNL     1       6.955  -0.006  24.082  0.00  0.00    +0.000 A 
ATOM     21  C   UNL     1       6.315  -1.067  24.716  0.00  0.00    +0.000 A 
BRANCH  19  22
ATOM     22  C   UNL     1       8.946   1.478  23.721  0.00  0.00    +0.000 C 
BRANCH  22  23
ATOM     23 SE   UNL     1       8.903   1.208  21.784  0.00  0.00    +0.000 Se
ATOM     24  O   UNL     1       9.941  -0.065  21.890  0.00  0.00    +0.000 OA
BRANCH  23  25
ATOM     25  O   UNL     1      10.305   2.370  21.545  0.00  0.00    +0.000 OA
ATOM     26  H   UNL     1      11.108   1.823  21.741  0.00  0.00    +0.000 HD
ENDBRANCH  23  25
ENDBRANCH  22  23
ENDBRANCH  19  22
ENDBRANCH  15  16
ENDBRANCH   1  15
TORSDOF 10
ENDMDL
MODEL 2
REMARK VINA RESULT:      -5.9      2.505      4.241
REMARK  Name = 
REMARK  14 active torsions:
REMARK  status: ('A' for Active; 'I' for Inactive)
REMARK    1  A    between atoms: C_2  and  C_3
REMARK    2  A    between atoms: C_2  and  N_14
REMARK    3  A    between atoms: C_2  and  C_22
REMARK    4  A    between atoms: C_3  and  C_4
REMARK    5  A    between atoms: C_7  and  C_8
REMARK    6  A    between atoms: C_8  and  SE_9
REMARK    7  A    between atoms: SE_9  and  O_10
REMARK    8  A    between atoms: C_15  and  O_17
REMARK    9  A    between atoms: O_17  and  C_18
REMARK   10  A    between atoms: C_18  and  C_19
REMARK   11  A    between atoms: C_18  and  C_20
REMARK   12  A    between atoms: C_18  and  C_21
REMARK   13  A    between atoms: C_22  and  O_24
REMARK   14  A    between atoms: O_24  and  C_25
REMARK                            x       y       z     vdW  Elec       q    Type
REMARK                         _______ _______ _______ _____ _____    ______ ____
ROOT
ATOM      1  C   UNL     1       9.270  -1.898  23.941  0.00  0.00    +0.000 C 
ENDROOT
BRANCH   1   2
ATOM      2  N   UNL     1       9.681  -3.258  24.247  0.00  0.00    +0.000 N 
ATOM      3  H   UNL     1      10.692  -3.469  24.263  0.00  0.00    +0.000 HD
ATOM      4  C   UNL     1       8.799  -4.264  24.487  0.00  0.00    +0.000 C 
ATOM      5  O   UNL     1       9.231  -5.383  24.716  0.00  0.00    +0.000 OA
BRANCH   4   6
ATOM      6  O   UNL     1       7.457  -4.021  24.464  0.00  0.00    +0.000 OA
BRANCH   6   7
ATOM      7  C   UNL     1       6.546  -4.334  23.461  0.00  0.00    +0.000 C 
ATOM      8  C   UNL     1       7.286  -4.773  22.181  0.00  0.00    +0.000 C 
ATOM      9  C   UNL     1       5.735  -3.065  23.144  0.00  0.00    +0.000 C 
ATOM     10  C   UNL     1       5.574  -5.431  23.934  0.00  0.00    +0.000 C 
ENDBRANCH   6   7
ENDBRANCH   4   6
ENDBRANCH   1   2
BRANCH   1  11
ATOM     11  C   UNL     1       9.758  -1.549  22.547  0.00  0.00    +0.000 C 
ATOM     12  O   UNL     1      10.910  -1.826  22.234  0.00  0.00    +0.000 OA
BRANCH  11  13
ATOM     13  O   UNL     1       8.913  -1.002  21.636  0.00  0.00    +0.000 OA
ATOM     14  C   UNL     1       9.016   0.287  21.160  0.00  0.00    +0.000 C 
ENDBRANCH  11  13
ENDBRANCH   1  11
BRANCH   1  15
ATOM     15  C   UNL     1       9.809  -0.942  25.035  0.00  0.00    +0.000 C 
BRANCH  15  16
ATOM     16  C   UNL     1       9.584   0.544  24.800  0.00  0.00    +0.000 A 
ATOM     17  C   UNL     1      10.599   1.278  24.162  0.00  0.00    +0.000 A 
ATOM     18  C   UNL     1      10.417   2.631  23.856  0.00  0.00    +0.000 A 
ATOM     19  C   UNL     1       9.211   3.274  24.178  0.00  0.00    +0.000 A 
ATOM     20  C   UNL     1       8.210   2.557  24.841  0.00  0.00    +0.000 A 
ATOM     21  C   UNL     1       8.396   1.215  25.161  0.00  0.00    +0.000 A 
BRANCH  19  22
ATOM     22  C   UNL     1       8.973   4.708  23.797  0.00  0.00    +0.000 C 
BRANCH  22  23
ATOM     23 SE   UNL     1       7.238   4.941  22.925  0.00  0.00    +0.000 Se
ATOM     24  O   UNL     1       7.538   3.698  21.888  0.00  0.00    +0.000 OA
BRANCH  23  25
ATOM     25  O   UNL     1       7.948   6.145  21.734  0.00  0.00    +0.000 OA
ATOM     26  H   UNL     1       8.565   6.692  22.282  0.00  0.00    +0.000 HD
ENDBRANCH  23  25
ENDBRANCH  22  23
ENDBRANCH  19  22
ENDBRANCH  15  16
ENDBRANCH   1  15
TORSDOF 10
ENDMDL
MODEL 3
REMARK VINA RESULT:      -5.8      2.330      4.101
REMARK  Name = 
REMARK  14 active torsions:
REMARK  status: ('A' for Active; 'I' for Inactive)
REMARK    1  A    between atoms: C_2  and  C_3
REMARK    2  A    between atoms: C_2  and  N_14
REMARK    3  A    between atoms: C_2  and  C_22
REMARK    4  A    between atoms: C_3  and  C_4
REMARK    5  A    between atoms: C_7  and  C_8
REMARK    6  A    between atoms: C_8  and  SE_9
REMARK    7  A    between atoms: SE_9  and  O_10
REMARK    8  A    between atoms: C_15  and  O_17
REMARK    9  A    between atoms: O_17  and  C_18
REMARK   10  A    between atoms: C_18  and  C_19
REMARK   11  A    between atoms: C_18  and  C_20
REMARK   12  A    between atoms: C_18  and  C_21
REMARK   13  A    between atoms: C_22  and  O_24
REMARK   14  A    between atoms: O_24  and  C_25
REMARK                            x       y       z     vdW  Elec       q    Type
REMARK                         _______ _______ _______ _____ _____    ______ ____
ROOT
ATOM      1  C   UNL     1       8.528  -3.010  24.097  0.00  0.00    +0.000 C 
ENDROOT
BRANCH   1   2
ATOM      2  N   UNL     1       8.766  -3.928  25.197  0.00  0.00    +0.000 N 
ATOM      3  H   UNL     1       9.563  -4.581  25.123  0.00  0.00    +0.000 HD
ATOM      4  C   UNL     1       7.976  -3.985  26.302  0.00  0.00    +0.000 C 
ATOM      5  O   UNL     1       8.235  -4.803  27.171  0.00  0.00    +0.000 OA
BRANCH   4   6
ATOM      6  O   UNL     1       6.908  -3.144  26.426  0.00  0.00    +0.000 OA
BRANCH   6   7
ATOM      7  C   UNL     1       5.559  -3.443  26.272  0.00  0.00    +0.000 C 
ATOM      8  C   UNL     1       5.386  -4.849  25.660  0.00  0.00    +0.000 C 
ATOM      9  C   UNL     1       4.954  -2.412  25.303  0.00  0.00    +0.000 C 
ATOM     10  C   UNL     1       4.823  -3.339  27.621  0.00  0.00    +0.000 C 
ENDBRANCH   6   7
ENDBRANCH   4   6
ENDBRANCH   1   2
BRANCH   1  11
ATOM     11  C   UNL     1       7.739  -3.736  23.023  0.00  0.00    +0.000 C 
ATOM     12  O   UNL     1       7.160  -3.081  22.166  0.00  0.00    +0.000 OA
BRANCH  11  13
ATOM     13  O   UNL     1       7.731  -5.093  22.970  0.00  0.00    +0.000 OA
ATOM     14  C   UNL     1       7.084  -5.827  22.000  0.00  0.00    +0.000 C 
ENDBRANCH  11  13
ENDBRANCH   1  11
BRANCH   1  15
ATOM     15  C   UNL     1       9.884  -2.457  23.590  0.00  0.00    +0.000 C 
BRANCH  15  16
ATOM     16  C   UNL     1       9.987  -0.944  23.462  0.00  0.00    +0.000 A 
ATOM     17  C   UNL     1      10.245  -0.195  24.622  0.00  0.00    +0.000 A 
ATOM     18  C   UNL     1      10.422   1.192  24.552  0.00  0.00    +0.000 A 
ATOM     19  C   UNL     1      10.348   1.853  23.315  0.00  0.00    +0.000 A 
ATOM     20  C   UNL     1      10.060   1.117  22.162  0.00  0.00    +0.000 A 
ATOM     21  C   UNL     1       9.868  -0.260  22.233  0.00  0.00    +0.000 A 
BRANCH  19  22
ATOM     22  C   UNL     1      10.601   3.331  23.212  0.00  0.00    +0.000 C 
BRANCH  22  23
ATOM     23 SE   UNL     1       9.148   4.366  24.015  0.00  0.00    +0.000 Se
ATOM     24  O   UNL     1       8.097   3.894  22.839  0.00  0.00    +0.000 OA
BRANCH  23  25
ATOM     25  O   UNL     1       9.612   5.855  23.046  0.00  0.00    +0.000 OA
ATOM     26  H   UNL     1      10.296   5.525  22.410  0.00  0.00    +0.000 HD
ENDBRANCH  23  25
ENDBRANCH  22  23
ENDBRANCH  19  22
ENDBRANCH  15  16
ENDBRANCH   1  15
TORSDOF 10
ENDMDL
MODEL 4
REMARK VINA RESULT:      -5.8      3.616      7.649
REMARK  Name = 
REMARK  14 active torsions:
REMARK  status: ('A' for Active; 'I' for Inactive)
REMARK    1  A    between atoms: C_2  and  C_3
REMARK    2  A    between atoms: C_2  and  N_14
REMARK    3  A    between atoms: C_2  and  C_22
REMARK    4  A    between atoms: C_3  and  C_4
REMARK    5  A    between atoms: C_7  and  C_8
REMARK    6  A    between atoms: C_8  and  SE_9
REMARK    7  A    between atoms: SE_9  and  O_10
REMARK    8  A    between atoms: C_15  and  O_17
REMARK    9  A    between atoms: O_17  and  C_18
REMARK   10  A    between atoms: C_18  and  C_19
REMARK   11  A    between atoms: C_18  and  C_20
REMARK   12  A    between atoms: C_18  and  C_21
REMARK   13  A    between atoms: C_22  and  O_24
REMARK   14  A    between atoms: O_24  and  C_25
REMARK                            x       y       z     vdW  Elec       q    Type
REMARK                         _______ _______ _______ _____ _____    ______ ____
ROOT
ATOM      1  C   UNL     1       9.921   2.750  23.607  0.00  0.00    +0.000 C 
ENDROOT
BRANCH   1   2
ATOM      2  N   UNL     1       9.024   2.767  22.464  0.00  0.00    +0.000 N 
ATOM      3  H   UNL     1       9.438   2.694  21.519  0.00  0.00    +0.000 HD
ATOM      4  C   UNL     1       7.677   2.900  22.578  0.00  0.00    +0.000 C 
ATOM      5  O   UNL     1       6.998   2.926  21.563  0.00  0.00    +0.000 OA
BRANCH   4   6
ATOM      6  O   UNL     1       7.100   3.009  23.811  0.00  0.00    +0.000 OA
BRANCH   6   7
ATOM      7  C   UNL     1       6.331   2.065  24.483  0.00  0.00    +0.000 C 
ATOM      8  C   UNL     1       4.844   2.474  24.470  0.00  0.00    +0.000 C 
ATOM      9  C   UNL     1       6.812   2.017  25.944  0.00  0.00    +0.000 C 
ATOM     10  C   UNL     1       6.520   0.669  23.859  0.00  0.00    +0.000 C 
ENDBRANCH   6   7
ENDBRANCH   4   6
ENDBRANCH   1   2
BRANCH   1  11
ATOM     11  C   UNL     1      10.672   4.068  23.651  0.00  0.00    +0.000 C 
ATOM     12  O   UNL     1      10.079   5.077  24.012  0.00  0.00    +0.000 OA
BRANCH  11  13
ATOM     13  O   UNL     1      11.998   4.118  23.364  0.00  0.00    +0.000 OA
ATOM     14  C   UNL     1      12.679   5.273  23.048  0.00  0.00    +0.000 C 
ENDBRANCH  11  13
ENDBRANCH   1  11
BRANCH   1  15
ATOM     15  C   UNL     1      10.855   1.517  23.506  0.00  0.00    +0.000 C 
BRANCH  15  16
ATOM     16  C   UNL     1      10.266   0.189  23.960  0.00  0.00    +0.000 A 
ATOM     17  C   UNL     1       9.809   0.083  25.285  0.00  0.00    +0.000 A 
ATOM     18  C   UNL     1       9.193  -1.090  25.736  0.00  0.00    +0.000 A 
ATOM     19  C   UNL     1       9.019  -2.177  24.865  0.00  0.00    +0.000 A 
ATOM     20  C   UNL     1       9.500  -2.089  23.555  0.00  0.00    +0.000 A 
ATOM     21  C   UNL     1      10.127  -0.929  23.110  0.00  0.00    +0.000 A 
BRANCH  19  22
ATOM     22  C   UNL     1       8.301  -3.419  25.313  0.00  0.00    +0.000 C 
BRANCH  22  23
ATOM     23 SE   UNL     1       9.538  -4.914  25.562  0.00  0.00    +0.000 Se
ATOM     24  O   UNL     1       9.019  -5.637  24.177  0.00  0.00    +0.000 OA
BRANCH  23  25
ATOM     25  O   UNL     1       8.294  -5.839  26.546  0.00  0.00    +0.000 OA
ATOM     26  H   UNL     1       8.491  -5.587  27.483  0.00  0.00    +0.000 HD
ENDBRANCH  23  25
ENDBRANCH  22  23
ENDBRANCH  19  22
ENDBRANCH  15  16
ENDBRANCH   1  15
TORSDOF 10
ENDMDL
MODEL 5
REMARK VINA RESULT:      -5.7      1.058      2.072
REMARK  Name = 
REMARK  14 active torsions:
REMARK  status: ('A' for Active; 'I' for Inactive)
REMARK    1  A    between atoms: C_2  and  C_3
REMARK    2  A    between atoms: C_2  and  N_14
REMARK    3  A    between atoms: C_2  and  C_22
REMARK    4  A    between atoms: C_3  and  C_4
REMARK    5  A    between atoms: C_7  and  C_8
REMARK    6  A    between atoms: C_8  and  SE_9
REMARK    7  A    between atoms: SE_9  and  O_10
REMARK    8  A    between atoms: C_15  and  O_17
REMARK    9  A    between atoms: O_17  and  C_18
REMARK   10  A    between atoms: C_18  and  C_19
REMARK   11  A    between atoms: C_18  and  C_20
REMARK   12  A    between atoms: C_18  and  C_21
REMARK   13  A    between atoms: C_22  and  O_24
REMARK   14  A    between atoms: O_24  and  C_25
REMARK                            x       y       z     vdW  Elec       q    Type
REMARK                         _______ _______ _______ _____ _____    ______ ____
ROOT
ATOM      1  C   UNL     1       6.276  -4.684  26.278  0.00  0.00    +0.000 C 
ENDROOT
BRANCH   1   2
ATOM      2  N   UNL     1       5.214  -5.499  25.713  0.00  0.00    +0.000 N 
ATOM      3  H   UNL     1       4.415  -5.748  26.321  0.00  0.00    +0.000 HD
ATOM      4  C   UNL     1       5.236  -5.970  24.439  0.00  0.00    +0.000 C 
ATOM      5  O   UNL     1       4.312  -6.667  24.052  0.00  0.00    +0.000 OA
BRANCH   4   6
ATOM      6  O   UNL     1       6.281  -5.668  23.614  0.00  0.00    +0.000 OA
BRANCH   6   7
ATOM      7  C   UNL     1       6.274  -4.857  22.484  0.00  0.00    +0.000 C 
ATOM      8  C   UNL     1       6.190  -5.716  21.206  0.00  0.00    +0.000 C 
ATOM      9  C   UNL     1       7.597  -4.071  22.458  0.00  0.00    +0.000 C 
ATOM     10  C   UNL     1       5.108  -3.852  22.546  0.00  0.00    +0.000 C 
ENDBRANCH   6   7
ENDBRANCH   4   6
ENDBRANCH   1   2
BRANCH   1  11
ATOM     11  C   UNL     1       6.593  -5.198  27.669  0.00  0.00    +0.000 C 
ATOM     12  O   UNL     1       7.518  -5.989  27.814  0.00  0.00    +0.000 OA
BRANCH  11  13
ATOM     13  O   UNL     1       5.909  -4.738  28.749  0.00  0.00    +0.000 OA
ATOM     14  C   UNL     1       5.387  -5.545  29.736  0.00  0.00    +0.000 C 
ENDBRANCH  11  13
ENDBRANCH   1  11
BRANCH   1  15
ATOM     15  C   UNL     1       5.842  -3.196  26.260  0.00  0.00    +0.000 C 
BRANCH  15  16
ATOM     16  C   UNL     1       6.778  -2.231  25.549  0.00  0.00    +0.000 A 
ATOM     17  C   UNL     1       6.218  -1.280  24.679  0.00  0.00    +0.000 A 
ATOM     18  C   UNL     1       7.023  -0.321  24.054  0.00  0.00    +0.000 A 
ATOM     19  C   UNL     1       8.407  -0.294  24.293  0.00  0.00    +0.000 A 
ATOM     20  C   UNL     1       8.974  -1.258  25.133  0.00  0.00    +0.000 A 
ATOM     21  C   UNL     1       8.177  -2.221  25.742  0.00  0.00    +0.000 A 
BRANCH  19  22
ATOM     22  C   UNL     1       9.276   0.768  23.683  0.00  0.00    +0.000 C 
BRANCH  22  23
ATOM     23 SE   UNL     1       8.687   1.228  21.875  0.00  0.00    +0.000 Se
ATOM     24  O   UNL     1       9.425  -0.101  21.244  0.00  0.00    +0.000 OA
BRANCH  23  25
ATOM     25  O   UNL     1      10.195   2.237  21.591  0.00  0.00    +0.000 OA
ATOM     26  H   UNL     1      10.486   1.985  20.678  0.00  0.00    +0.000 HD
ENDBRANCH  23  25
ENDBRANCH  22  23
ENDBRANCH  19  22
ENDBRANCH  15  16
ENDBRANCH   1  15
TORSDOF 10
ENDMDL
MODEL 6
REMARK VINA RESULT:      -5.7      1.657      3.833
REMARK  Name = 
REMARK  14 active torsions:
REMARK  status: ('A' for Active; 'I' for Inactive)
REMARK    1  A    between atoms: C_2  and  C_3
REMARK    2  A    between atoms: C_2  and  N_14
REMARK    3  A    between atoms: C_2  and  C_22
REMARK    4  A    between atoms: C_3  and  C_4
REMARK    5  A    between atoms: C_7  and  C_8
REMARK    6  A    between atoms: C_8  and  SE_9
REMARK    7  A    between atoms: SE_9  and  O_10
REMARK    8  A    between atoms: C_15  and  O_17
REMARK    9  A    between atoms: O_17  and  C_18
REMARK   10  A    between atoms: C_18  and  C_19
REMARK   11  A    between atoms: C_18  and  C_20
REMARK   12  A    between atoms: C_18  and  C_21
REMARK   13  A    between atoms: C_22  and  O_24
REMARK   14  A    between atoms: O_24  and  C_25
REMARK                            x       y       z     vdW  Elec       q    Type
REMARK                         _______ _______ _______ _____ _____    ______ ____
ROOT
ATOM      1  C   UNL     1       6.790  -4.510  23.249  0.00  0.00    +0.000 C 
ENDROOT
BRANCH   1   2
ATOM      2  N   UNL     1       7.443  -5.188  24.357  0.00  0.00    +0.000 N 
ATOM      3  H   UNL     1       8.313  -5.711  24.163  0.00  0.00    +0.000 HD
ATOM      4  C   UNL     1       6.948  -5.189  25.623  0.00  0.00    +0.000 C 
ATOM      5  O   UNL     1       7.550  -5.803  26.490  0.00  0.00    +0.000 OA
BRANCH   4   6
ATOM      6  O   UNL     1       5.796  -4.517  25.910  0.00  0.00    +0.000 OA
BRANCH   6   7
ATOM      7  C   UNL     1       5.658  -3.261  26.490  0.00  0.00    +0.000 C 
ATOM      8  C   UNL     1       5.001  -3.379  27.880  0.00  0.00    +0.000 C 
ATOM      9  C   UNL     1       4.740  -2.419  25.586  0.00  0.00    +0.000 C 
ATOM     10  C   UNL     1       7.026  -2.557  26.589  0.00  0.00    +0.000 C 
ENDBRANCH   6   7
ENDBRANCH   4   6
ENDBRANCH   1   2
BRANCH   1  11
ATOM     11  C   UNL     1       6.130  -5.552  22.366  0.00  0.00    +0.000 C 
ATOM     12  O   UNL     1       6.827  -6.409  21.835  0.00  0.00    +0.000 OA
BRANCH  11  13
ATOM     13  O   UNL     1       4.780  -5.580  22.221  0.00  0.00    +0.000 OA
ATOM     14  C   UNL     1       3.892  -5.069  23.141  0.00  0.00    +0.000 C 
ENDBRANCH  11  13
ENDBRANCH   1  11
BRANCH   1  15
ATOM     15  C   UNL     1       7.831  -3.642  22.498  0.00  0.00    +0.000 C 
BRANCH  15  16
ATOM     16  C   UNL     1       8.054  -2.239  23.042  0.00  0.00    +0.000 A 
ATOM     17  C   UNL     1       9.292  -1.947  23.640  0.00  0.00    +0.000 A 
ATOM     18  C   UNL     1       9.580  -0.655  24.093  0.00  0.00    +0.000 A 
ATOM     19  C   UNL     1       8.633   0.372  23.951  0.00  0.00    +0.000 A 
ATOM     20  C   UNL     1       7.388   0.081  23.386  0.00  0.00    +0.000 A 
ATOM     21  C   UNL     1       7.095  -1.208  22.950  0.00  0.00    +0.000 A 
BRANCH  19  22
ATOM     22  C   UNL     1       8.950   1.780  24.371  0.00  0.00    +0.000 C 
BRANCH  22  23
ATOM     23 SE   UNL     1      10.501   2.485  23.411  0.00  0.00    +0.000 Se
ATOM     24  O   UNL     1       9.968   4.033  23.587  0.00  0.00    +0.000 OA
BRANCH  23  25
ATOM     25  O   UNL     1       9.629   2.337  21.801  0.00  0.00    +0.000 OA
ATOM     26  H   UNL     1       9.054   3.143  21.763  0.00  0.00    +0.000 HD
ENDBRANCH  23  25
ENDBRANCH  22  23
ENDBRANCH  19  22
ENDBRANCH  15  16
ENDBRANCH   1  15
TORSDOF 10
ENDMDL
MODEL 7
REMARK VINA RESULT:      -5.6      4.599      8.392
REMARK  Name = 
REMARK  14 active torsions:
REMARK  status: ('A' for Active; 'I' for Inactive)
REMARK    1  A    between atoms: C_2  and  C_3
REMARK    2  A    between atoms: C_2  and  N_14
REMARK    3  A    between atoms: C_2  and  C_22
REMARK    4  A    between atoms: C_3  and  C_4
REMARK    5  A    between atoms: C_7  and  C_8
REMARK    6  A    between atoms: C_8  and  SE_9
REMARK    7  A    between atoms: SE_9  and  O_10
REMARK    8  A    between atoms: C_15  and  O_17
REMARK    9  A    between atoms: O_17  and  C_18
REMARK   10  A    between atoms: C_18  and  C_19
REMARK   11  A    between atoms: C_18  and  C_20
REMARK   12  A    between atoms: C_18  and  C_21
REMARK   13  A    between atoms: C_22  and  O_24
REMARK   14  A    between atoms: O_24  and  C_25
REMARK                            x       y       z     vdW  Elec       q    Type
REMARK                         _______ _______ _______ _____ _____    ______ ____
ROOT
ATOM      1  C   UNL     1       9.851   4.662  23.957  0.00  0.00    +0.000 C 
ENDROOT
BRANCH   1   2
ATOM      2  N   UNL     1       8.774   4.870  23.003  0.00  0.00    +0.000 N 
ATOM      3  H   UNL     1       9.001   5.325  22.104  0.00  0.00    +0.000 HD
ATOM      4  C   UNL     1       7.485   4.518  23.250  0.00  0.00    +0.000 C 
ATOM      5  O   UNL     1       6.638   4.749  22.401  0.00  0.00    +0.000 OA
BRANCH   4   6
ATOM      6  O   UNL     1       7.150   3.924  24.433  0.00  0.00    +0.000 OA
BRANCH   6   7
ATOM      7  C   UNL     1       6.618   2.655  24.633  0.00  0.00    +0.000 C 
ATOM      8  C   UNL     1       6.732   1.814  23.344  0.00  0.00    +0.000 C 
ATOM      9  C   UNL     1       5.127   2.815  24.980  0.00  0.00    +0.000 C 
ATOM     10  C   UNL     1       7.322   1.951  25.809  0.00  0.00    +0.000 C 
ENDBRANCH   6   7
ENDBRANCH   4   6
ENDBRANCH   1   2
BRANCH   1  11
ATOM     11  C   UNL     1      10.400   6.016  24.368  0.00  0.00    +0.000 C 
ATOM     12  O   UNL     1      11.574   6.276  24.134  0.00  0.00    +0.000 OA
BRANCH  11  13
ATOM     13  O   UNL     1       9.587   6.952  24.922  0.00  0.00    +0.000 OA
ATOM     14  C   UNL     1       8.978   6.819  26.150  0.00  0.00    +0.000 C 
ENDBRANCH  11  13
ENDBRANCH   1  11
BRANCH   1  15
ATOM     15  C   UNL     1      10.920   3.734  23.327  0.00  0.00    +0.000 C 
BRANCH  15  16
ATOM     16  C   UNL     1      10.554   2.260  23.223  0.00  0.00    +0.000 A 
ATOM     17  C   UNL     1      10.077   1.779  21.991  0.00  0.00    +0.000 A 
ATOM     18  C   UNL     1       9.794   0.420  21.817  0.00  0.00    +0.000 A 
ATOM     19  C   UNL     1       9.988  -0.485  22.873  0.00  0.00    +0.000 A 
ATOM     20  C   UNL     1      10.432  -0.006  24.110  0.00  0.00    +0.000 A 
ATOM     21  C   UNL     1      10.698   1.348  24.289  0.00  0.00    +0.000 A 
BRANCH  19  22
ATOM     22  C   UNL     1       9.752  -1.956  22.684  0.00  0.00    +0.000 C 
BRANCH  22  23
ATOM     23 SE   UNL     1       8.808  -2.735  24.211  0.00  0.00    +0.000 Se
ATOM     24  O   UNL     1       9.981  -3.871  24.418  0.00  0.00    +0.000 OA
BRANCH  23  25
ATOM     25  O   UNL     1       7.867  -3.864  23.111  0.00  0.00    +0.000 OA
ATOM     26  H   UNL     1       6.920  -3.621  23.268  0.00  0.00    +0.000 HD
ENDBRANCH  23  25
ENDBRANCH  22  23
ENDBRANCH  19  22
ENDBRANCH  15  16
ENDBRANCH   1  15
TORSDOF 10
ENDMDL
MODEL 8
REMARK VINA RESULT:      -5.6      2.490      3.890
REMARK  Name = 
REMARK  14 active torsions:
REMARK  status: ('A' for Active; 'I' for Inactive)
REMARK    1  A    between atoms: C_2  and  C_3
REMARK    2  A    between atoms: C_2  and  N_14
REMARK    3  A    between atoms: C_2  and  C_22
REMARK    4  A    between atoms: C_3  and  C_4
REMARK    5  A    between atoms: C_7  and  C_8
REMARK    6  A    between atoms: C_8  and  SE_9
REMARK    7  A    between atoms: SE_9  and  O_10
REMARK    8  A    between atoms: C_15  and  O_17
REMARK    9  A    between atoms: O_17  and  C_18
REMARK   10  A    between atoms: C_18  and  C_19
REMARK   11  A    between atoms: C_18  and  C_20
REMARK   12  A    between atoms: C_18  and  C_21
REMARK   13  A    between atoms: C_22  and  O_24
REMARK   14  A    between atoms: O_24  and  C_25
REMARK                            x       y       z     vdW  Elec       q    Type
REMARK                         _______ _______ _______ _____ _____    ______ ____
ROOT
ATOM      1  C   UNL     1       8.360  -2.075  24.667  0.00  0.00    +0.000 C 
ENDROOT
BRANCH   1   2
ATOM      2  N   UNL     1       8.132  -3.295  25.423  0.00  0.00    +0.000 N 
ATOM      3  H   UNL     1       8.800  -3.534  26.175  0.00  0.00    +0.000 HD
ATOM      4  C   UNL     1       7.101  -4.144  25.171  0.00  0.00    +0.000 C 
ATOM      5  O   UNL     1       6.996  -5.159  25.841  0.00  0.00    +0.000 OA
BRANCH   4   6
ATOM      6  O   UNL     1       6.207  -3.862  24.179  0.00  0.00    +0.000 OA
BRANCH   6   7
ATOM      7  C   UNL     1       6.015  -4.542  22.981  0.00  0.00    +0.000 C 
ATOM      8  C   UNL     1       4.851  -5.545  23.113  0.00  0.00    +0.000 C 
ATOM      9  C   UNL     1       7.302  -5.326  22.669  0.00  0.00    +0.000 C 
ATOM     10  C   UNL     1       5.754  -3.550  21.831  0.00  0.00    +0.000 C 
ENDBRANCH   6   7
ENDBRANCH   4   6
ENDBRANCH   1   2
BRANCH   1  11
ATOM     11  C   UNL     1       9.275  -2.394  23.499  0.00  0.00    +0.000 C 
ATOM     12  O   UNL     1      10.313  -3.011  23.709  0.00  0.00    +0.000 OA
BRANCH  11  13
ATOM     13  O   UNL     1       8.917  -2.065  22.231  0.00  0.00    +0.000 OA
ATOM     14  C   UNL     1       9.334  -0.925  21.580  0.00  0.00    +0.000 C 
ENDBRANCH  11  13
ENDBRANCH   1  11
BRANCH   1  15
ATOM     15  C   UNL     1       8.931  -0.987  25.612  0.00  0.00    +0.000 C 
BRANCH  15  16
ATOM     16  C   UNL     1       9.339   0.325  24.958  0.00  0.00    +0.000 A 
ATOM     17  C   UNL     1       8.345   1.291  24.729  0.00  0.00    +0.000 A 
ATOM     18  C   UNL     1       8.674   2.543  24.197  0.00  0.00    +0.000 A 
ATOM     19  C   UNL     1      10.009   2.852  23.889  0.00  0.00    +0.000 A 
ATOM     20  C   UNL     1      10.998   1.883  24.085  0.00  0.00    +0.000 A 
ATOM     21  C   UNL     1      10.669   0.632  24.599  0.00  0.00    +0.000 A 
BRANCH  19  22
ATOM     22  C   UNL     1      10.390   4.214  23.380  0.00  0.00    +0.000 C 
BRANCH  22  23
ATOM     23 SE   UNL     1      12.313   4.529  23.542  0.00  0.00    +0.000 Se
ATOM     24  O   UNL     1      12.062   6.008  24.222  0.00  0.00    +0.000 OA
BRANCH  23  25
ATOM     25  O   UNL     1      12.377   5.278  21.866  0.00  0.00    +0.000 OA
ATOM     26  H   UNL     1      11.963   6.170  21.985  0.00  0.00    +0.000 HD
ENDBRANCH  23  25
ENDBRANCH  22  23
ENDBRANCH  19  22
ENDBRANCH  15  16
ENDBRANCH   1  15
TORSDOF 10
ENDMDL
MODEL 9
REMARK VINA RESULT:      -5.6      2.576      3.894
REMARK  Name = 
REMARK  14 active torsions:
REMARK  status: ('A' for Active; 'I' for Inactive)
REMARK    1  A    between atoms: C_2  and  C_3
REMARK    2  A    between atoms: C_2  and  N_14
REMARK    3  A    between atoms: C_2  and  C_22
REMARK    4  A    between atoms: C_3  and  C_4
REMARK    5  A    between atoms: C_7  and  C_8
REMARK    6  A    between atoms: C_8  and  SE_9
REMARK    7  A    between atoms: SE_9  and  O_10
REMARK    8  A    between atoms: C_15  and  O_17
REMARK    9  A    between atoms: O_17  and  C_18
REMARK   10  A    between atoms: C_18  and  C_19
REMARK   11  A    between atoms: C_18  and  C_20
REMARK   12  A    between atoms: C_18  and  C_21
REMARK   13  A    between atoms: C_22  and  O_24
REMARK   14  A    between atoms: O_24  and  C_25
REMARK                            x       y       z     vdW  Elec       q    Type
REMARK                         _______ _______ _______ _____ _____    ______ ____
ROOT
ATOM      1  C   UNL     1       8.398  -2.610  23.352  0.00  0.00    +0.000 C 
ENDROOT
BRANCH   1   2
ATOM      2  N   UNL     1       7.450  -2.657  22.252  0.00  0.00    +0.000 N 
ATOM      3  H   UNL     1       7.423  -1.856  21.598  0.00  0.00    +0.000 HD
ATOM      4  C   UNL     1       6.585  -3.687  22.060  0.00  0.00    +0.000 C 
ATOM      5  O   UNL     1       5.806  -3.635  21.121  0.00  0.00    +0.000 OA
BRANCH   4   6
ATOM      6  O   UNL     1       6.588  -4.754  22.911  0.00  0.00    +0.000 OA
BRANCH   6   7
ATOM      7  C   UNL     1       5.697  -5.029  23.942  0.00  0.00    +0.000 C 
ATOM      8  C   UNL     1       4.853  -6.276  23.606  0.00  0.00    +0.000 C 
ATOM      9  C   UNL     1       4.752  -3.824  24.086  0.00  0.00    +0.000 C 
ATOM     10  C   UNL     1       6.451  -5.223  25.272  0.00  0.00    +0.000 C 
ENDBRANCH   6   7
ENDBRANCH   4   6
ENDBRANCH   1   2
BRANCH   1  11
ATOM     11  C   UNL     1       7.801  -1.774  24.469  0.00  0.00    +0.000 C 
ATOM     12  O   UNL     1       6.965  -0.922  24.192  0.00  0.00    +0.000 OA
BRANCH  11  13
ATOM     13  O   UNL     1       8.134  -2.011  25.764  0.00  0.00    +0.000 OA
ATOM     14  C   UNL     1       8.187  -1.041  26.741  0.00  0.00    +0.000 C 
ENDBRANCH  11  13
ENDBRANCH   1  11
BRANCH   1  15
ATOM     15  C   UNL     1       9.754  -2.063  22.836  0.00  0.00    +0.000 C 
BRANCH  15  16
ATOM     16  C   UNL     1       9.951  -0.557  22.928  0.00  0.00    +0.000 A 
ATOM     17  C   UNL     1      10.514  -0.031  24.103  0.00  0.00    +0.000 A 
ATOM     18  C   UNL     1      10.784   1.337  24.215  0.00  0.00    +0.000 A 
ATOM     19  C   UNL     1      10.501   2.204  23.148  0.00  0.00    +0.000 A 
ATOM     20  C   UNL     1       9.911   1.691  21.988  0.00  0.00    +0.000 A 
ATOM     21  C   UNL     1       9.626   0.333  21.882  0.00  0.00    +0.000 A 
BRANCH  19  22
ATOM     22  C   UNL     1      10.846   3.665  23.225  0.00  0.00    +0.000 C 
BRANCH  22  23
ATOM     23 SE   UNL     1       9.431   4.691  24.103  0.00  0.00    +0.000 Se
ATOM     24  O   UNL     1       8.317   4.192  22.998  0.00  0.00    +0.000 OA
BRANCH  23  25
ATOM     25  O   UNL     1       9.815   6.174  23.089  0.00  0.00    +0.000 OA
ATOM     26  H   UNL     1       9.871   5.825  22.163  0.00  0.00    +0.000 HD
ENDBRANCH  23  25
ENDBRANCH  22  23
ENDBRANCH  19  22
ENDBRANCH  15  16
ENDBRANCH   1  15
TORSDOF 10
ENDMDL
