MODEL 1
REMARK VINA RESULT:      -6.8      0.000      0.000
REMARK  Name = 
REMARK  1 active torsions:
REMARK  status: ('A' for Active; 'I' for Inactive)
REMARK    1  A    between atoms: C_1  and  C_2
REMARK                            x       y       z     vdW  Elec       q    Type
REMARK                         _______ _______ _______ _____ _____    ______ ____
ROOT
ATOM      1  C   UNL     1      11.455   3.798  23.259  0.00  0.00    +0.039 C 
ATOM      2  C   UNL     1      10.588   2.583  23.197  0.00  0.00    -0.074 C 
ATOM      3  C   UNL     1       9.794   2.068  24.505  0.00  0.00    +0.057 C 
ATOM      4  C   UNL     1       8.400   1.215  24.229  0.00  0.00    +0.053 C 
ATOM      5  C   UNL     1       8.100   1.723  22.800  0.00  0.00    +0.021 C 
ATOM      6  C   UNL     1       9.154   1.154  21.808  0.00  0.00    +0.022 C 
ATOM      7  C   UNL     1       9.816  -0.227  22.078  0.00  0.00    +0.061 C 
ATOM      8  C   UNL     1       9.389  -0.953  23.319  0.00  0.00    +0.025 A 
ATOM      9  N   UNL     1       9.742  -2.270  23.400  0.00  0.00    -0.326 N 
ATOM     10  H   UNL     1      10.302  -2.700  22.675  0.00  0.00    +0.169 HD
ATOM     11  C   UNL     1       9.435  -3.105  24.444  0.00  0.00    +0.249 A 
ATOM     12  O   UNL     1       9.757  -4.286  24.485  0.00  0.00    -0.268 OA
ATOM     13  C   UNL     1       8.692  -2.474  25.560  0.00  0.00    +0.070 A 
ATOM     14  C   UNL     1       8.412  -1.159  25.485  0.00  0.00    +0.012 A 
ATOM     15  C   UNL     1       6.753   2.244  22.301  0.00  0.00    +0.007 C 
ATOM     16  C   UNL     1       5.639   1.859  23.227  0.00  0.00    +0.015 C 
ATOM     17  C   UNL     1       6.038   2.131  24.677  0.00  0.00    +0.082 C 
ATOM     18  N   UNL     1       7.254   1.460  25.163  0.00  0.00    -0.306 NA
ATOM     19  H   UNL     1       6.879   0.544  25.419  0.00  0.00    +0.123 HD
ATOM     20  C   UNL     1       8.740  -0.323  24.314  0.00  0.00    -0.007 A 
ATOM     21  C   UNL     1      10.276   2.119  21.960  0.00  0.00    -0.024 C 
ENDROOT
TORSDOF 0
ENDMDL
MODEL 2
REMARK VINA RESULT:      -6.8      4.060      6.283
REMARK  Name = 
REMARK  1 active torsions:
REMARK  status: ('A' for Active; 'I' for Inactive)
REMARK    1  A    between atoms: C_1  and  C_2
REMARK                            x       y       z     vdW  Elec       q    Type
REMARK                         _______ _______ _______ _____ _____    ______ ____
ROOT
ATOM      1  C   UNL     1       8.978  -1.027  24.272  0.00  0.00    +0.039 C 
ATOM      2  C   UNL     1       8.487  -2.391  24.636  0.00  0.00    -0.074 C 
ATOM      3  C   UNL     1       6.914  -2.666  24.873  0.00  0.00    +0.057 C 
ATOM      4  C   UNL     1       6.388  -4.211  24.590  0.00  0.00    +0.053 C 
ATOM      5  C   UNL     1       7.531  -4.675  23.658  0.00  0.00    +0.021 C 
ATOM      6  C   UNL     1       8.849  -4.814  24.472  0.00  0.00    +0.022 C 
ATOM      7  C   UNL     1       8.800  -5.190  25.981  0.00  0.00    +0.061 C 
ATOM      8  C   UNL     1       7.442  -5.403  26.583  0.00  0.00    +0.025 A 
ATOM      9  N   UNL     1       7.412  -6.011  27.805  0.00  0.00    -0.326 N 
ATOM     10  H   UNL     1       8.271  -6.253  28.283  0.00  0.00    +0.169 HD
ATOM     11  C   UNL     1       6.273  -6.304  28.512  0.00  0.00    +0.249 A 
ATOM     12  O   UNL     1       6.277  -6.860  29.604  0.00  0.00    -0.268 OA
ATOM     13  C   UNL     1       5.007  -5.878  27.873  0.00  0.00    +0.070 A 
ATOM     14  C   UNL     1       5.067  -5.223  26.698  0.00  0.00    +0.012 A 
ATOM     15  C   UNL     1       7.359  -5.386  22.317  0.00  0.00    +0.007 C 
ATOM     16  C   UNL     1       5.974  -5.938  22.163  0.00  0.00    +0.015 C 
ATOM     17  C   UNL     1       4.938  -4.892  22.577  0.00  0.00    +0.082 C 
ATOM     18  N   UNL     1       5.043  -4.367  23.947  0.00  0.00    -0.306 NA
ATOM     19  H   UNL     1       4.546  -5.091  24.470  0.00  0.00    +0.123 HD
ATOM     20  C   UNL     1       6.326  -4.970  25.971  0.00  0.00    -0.007 A 
ATOM     21  C   UNL     1       9.361  -3.417  24.475  0.00  0.00    -0.024 C 
ENDROOT
TORSDOF 0
ENDMDL
MODEL 3
REMARK VINA RESULT:      -6.7      3.174      5.245
REMARK  Name = 
REMARK  1 active torsions:
REMARK  status: ('A' for Active; 'I' for Inactive)
REMARK    1  A    between atoms: C_1  and  C_2
REMARK                            x       y       z     vdW  Elec       q    Type
REMARK                         _______ _______ _______ _____ _____    ______ ____
ROOT
ATOM      1  C   UNL     1      10.195  -0.001  23.706  0.00  0.00    +0.039 C 
ATOM      2  C   UNL     1       9.137  -1.055  23.651  0.00  0.00    -0.074 C 
ATOM      3  C   UNL     1       9.517  -2.616  23.802  0.00  0.00    +0.057 C 
ATOM      4  C   UNL     1       8.334  -3.606  24.406  0.00  0.00    +0.053 C 
ATOM      5  C   UNL     1       7.482  -2.533  25.122  0.00  0.00    +0.021 C 
ATOM      6  C   UNL     1       6.785  -1.626  24.069  0.00  0.00    +0.022 C 
ATOM      7  C   UNL     1       6.401  -2.199  22.675  0.00  0.00    +0.061 C 
ATOM      8  C   UNL     1       6.737  -3.638  22.418  0.00  0.00    +0.025 A 
ATOM      9  N   UNL     1       6.145  -4.211  21.328  0.00  0.00    -0.326 N 
ATOM     10  H   UNL     1       5.555  -3.664  20.714  0.00  0.00    +0.169 HD
ATOM     11  C   UNL     1       6.313  -5.514  20.933  0.00  0.00    +0.249 A 
ATOM     12  O   UNL     1       5.761  -6.004  19.956  0.00  0.00    -0.268 OA
ATOM     13  C   UNL     1       7.245  -6.310  21.767  0.00  0.00    +0.070 A 
ATOM     14  C   UNL     1       7.865  -5.705  22.798  0.00  0.00    +0.012 A 
ATOM     15  C   UNL     1       6.957  -2.618  26.554  0.00  0.00    +0.007 C 
ATOM     16  C   UNL     1       7.025  -4.019  27.082  0.00  0.00    +0.015 C 
ATOM     17  C   UNL     1       8.385  -4.641  26.761  0.00  0.00    +0.082 C 
ATOM     18  N   UNL     1       8.766  -4.695  25.341  0.00  0.00    -0.306 NA
ATOM     19  H   UNL     1       8.287  -5.548  25.045  0.00  0.00    +0.123 HD
ATOM     20  C   UNL     1       7.611  -4.306  23.191  0.00  0.00    -0.007 A 
ATOM     21  C   UNL     1       7.851  -0.633  23.760  0.00  0.00    -0.024 C 
ENDROOT
TORSDOF 0
ENDMDL
MODEL 4
REMARK VINA RESULT:      -6.4      2.347      3.781
REMARK  Name = 
REMARK  1 active torsions:
REMARK  status: ('A' for Active; 'I' for Inactive)
REMARK    1  A    between atoms: C_1  and  C_2
REMARK                            x       y       z     vdW  Elec       q    Type
REMARK                         _______ _______ _______ _____ _____    ______ ____
ROOT
ATOM      1  C   UNL     1       7.448   0.301  27.739  0.00  0.00    +0.039 C 
ATOM      2  C   UNL     1       7.747  -0.328  26.417  0.00  0.00    -0.074 C 
ATOM      3  C   UNL     1       6.645  -0.335  25.238  0.00  0.00    +0.057 C 
ATOM      4  C   UNL     1       7.228  -0.398  23.688  0.00  0.00    +0.053 C 
ATOM      5  C   UNL     1       8.652   0.138  23.957  0.00  0.00    +0.021 C 
ATOM      6  C   UNL     1       9.466  -0.913  24.764  0.00  0.00    +0.022 C 
ATOM      7  C   UNL     1       9.166  -2.430  24.597  0.00  0.00    +0.061 C 
ATOM      8  C   UNL     1       8.074  -2.804  23.639  0.00  0.00    +0.025 A 
ATOM      9  N   UNL     1       8.012  -4.119  23.276  0.00  0.00    -0.326 N 
ATOM     10  H   UNL     1       8.647  -4.796  23.680  0.00  0.00    +0.169 HD
ATOM     11  C   UNL     1       7.098  -4.655  22.404  0.00  0.00    +0.249 A 
ATOM     12  O   UNL     1       7.074  -5.838  22.089  0.00  0.00    -0.268 OA
ATOM     13  C   UNL     1       6.102  -3.698  21.869  0.00  0.00    +0.070 A 
ATOM     14  C   UNL     1       6.144  -2.420  22.291  0.00  0.00    +0.012 A 
ATOM     15  C   UNL     1       9.358   1.237  23.165  0.00  0.00    +0.007 C 
ATOM     16  C   UNL     1       8.681   1.488  21.851  0.00  0.00    +0.015 C 
ATOM     17  C   UNL     1       7.167   1.580  22.045  0.00  0.00    +0.082 C 
ATOM     18  N   UNL     1       6.508   0.415  22.655  0.00  0.00    -0.306 NA
ATOM     19  H   UNL     1       6.384  -0.186  21.838  0.00  0.00    +0.123 HD
ATOM     20  C   UNL     1       7.178  -1.899  23.205  0.00  0.00    -0.007 A 
ATOM     21  C   UNL     1       9.047  -0.623  26.162  0.00  0.00    -0.024 C 
ENDROOT
TORSDOF 0
ENDMDL
MODEL 5
REMARK VINA RESULT:      -6.4      3.182      5.768
REMARK  Name = 
REMARK  1 active torsions:
REMARK  status: ('A' for Active; 'I' for Inactive)
REMARK    1  A    between atoms: C_1  and  C_2
REMARK                            x       y       z     vdW  Elec       q    Type
REMARK                         _______ _______ _______ _____ _____    ______ ____
ROOT
ATOM      1  C   UNL     1       6.443  -5.642  21.110  0.00  0.00    +0.039 C 
ATOM      2  C   UNL     1       6.890  -4.808  22.266  0.00  0.00    -0.074 C 
ATOM      3  C   UNL     1       6.229  -3.362  22.546  0.00  0.00    +0.057 C 
ATOM      4  C   UNL     1       6.247  -2.839  24.118  0.00  0.00    +0.053 C 
ATOM      5  C   UNL     1       6.405  -4.210  24.815  0.00  0.00    +0.021 C 
ATOM      6  C   UNL     1       7.824  -4.780  24.537  0.00  0.00    +0.022 C 
ATOM      7  C   UNL     1       9.025  -3.816  24.316  0.00  0.00    +0.061 C 
ATOM      8  C   UNL     1       8.735  -2.345  24.384  0.00  0.00    +0.025 A 
ATOM      9  N   UNL     1       9.818  -1.520  24.485  0.00  0.00    -0.326 N 
ATOM     10  H   UNL     1      10.758  -1.896  24.463  0.00  0.00    +0.169 HD
ATOM     11  C   UNL     1       9.762  -0.152  24.572  0.00  0.00    +0.249 A 
ATOM     12  O   UNL     1      10.751   0.563  24.671  0.00  0.00    -0.268 OA
ATOM     13  C   UNL     1       8.400   0.428  24.514  0.00  0.00    +0.070 A 
ATOM     14  C   UNL     1       7.352  -0.402  24.351  0.00  0.00    +0.012 A 
ATOM     15  C   UNL     1       5.572  -4.716  25.991  0.00  0.00    +0.007 C 
ATOM     16  C   UNL     1       4.832  -3.598  26.661  0.00  0.00    +0.015 C 
ATOM     17  C   UNL     1       4.160  -2.707  25.616  0.00  0.00    +0.082 C 
ATOM     18  N   UNL     1       5.037  -2.099  24.605  0.00  0.00    -0.306 NA
ATOM     19  H   UNL     1       5.376  -1.278  25.112  0.00  0.00    +0.123 HD
ATOM     20  C   UNL     1       7.479  -1.871  24.299  0.00  0.00    -0.007 A 
ATOM     21  C   UNL     1       7.645  -5.428  23.209  0.00  0.00    -0.024 C 
ENDROOT
TORSDOF 0
ENDMDL
MODEL 6
REMARK VINA RESULT:      -6.4      2.821      5.480
REMARK  Name = 
REMARK  1 active torsions:
REMARK  status: ('A' for Active; 'I' for Inactive)
REMARK    1  A    between atoms: C_1  and  C_2
REMARK                            x       y       z     vdW  Elec       q    Type
REMARK                         _______ _______ _______ _____ _____    ______ ____
ROOT
ATOM      1  C   UNL     1       6.734  -5.948  22.319  0.00  0.00    +0.039 C 
ATOM      2  C   UNL     1       7.215  -4.655  22.891  0.00  0.00    -0.074 C 
ATOM      3  C   UNL     1       6.321  -3.316  22.776  0.00  0.00    +0.057 C 
ATOM      4  C   UNL     1       6.552  -2.175  23.954  0.00  0.00    +0.053 C 
ATOM      5  C   UNL     1       7.157  -3.090  25.044  0.00  0.00    +0.021 C 
ATOM      6  C   UNL     1       8.577  -3.553  24.611  0.00  0.00    +0.022 C 
ATOM      7  C   UNL     1       9.456  -2.641  23.709  0.00  0.00    +0.061 C 
ATOM      8  C   UNL     1       8.864  -1.327  23.292  0.00  0.00    +0.025 A 
ATOM      9  N   UNL     1       9.730  -0.416  22.757  0.00  0.00    -0.326 N 
ATOM     10  H   UNL     1      10.704  -0.653  22.614  0.00  0.00    +0.169 HD
ATOM     11  C   UNL     1       9.387   0.842  22.329  0.00  0.00    +0.249 A 
ATOM     12  O   UNL     1      10.189   1.641  21.862  0.00  0.00    -0.268 OA
ATOM     13  C   UNL     1       7.949   1.177  22.446  0.00  0.00    +0.070 A 
ATOM     14  C   UNL     1       7.104   0.240  22.917  0.00  0.00    +0.012 A 
ATOM     15  C   UNL     1       6.727  -3.140  26.509  0.00  0.00    +0.007 C 
ATOM     16  C   UNL     1       5.913  -1.939  26.884  0.00  0.00    +0.015 C 
ATOM     17  C   UNL     1       4.852  -1.664  25.817  0.00  0.00    +0.082 C 
ATOM     18  N   UNL     1       5.338  -1.446  24.446  0.00  0.00    -0.306 NA
ATOM     19  H   UNL     1       5.582  -0.454  24.483  0.00  0.00    +0.123 HD
ATOM     20  C   UNL     1       7.545  -1.085  23.394  0.00  0.00    -0.007 A 
ATOM     21  C   UNL     1       8.272  -4.721  23.741  0.00  0.00    -0.024 C 
ENDROOT
TORSDOF 0
ENDMDL
MODEL 7
REMARK VINA RESULT:      -6.3      2.898      5.839
REMARK  Name = 
REMARK  1 active torsions:
REMARK  status: ('A' for Active; 'I' for Inactive)
REMARK    1  A    between atoms: C_1  and  C_2
REMARK                            x       y       z     vdW  Elec       q    Type
REMARK                         _______ _______ _______ _____ _____    ______ ____
ROOT
ATOM      1  C   UNL     1       4.026  -3.789  23.864  0.00  0.00    +0.039 C 
ATOM      2  C   UNL     1       5.451  -3.356  23.749  0.00  0.00    -0.074 C 
ATOM      3  C   UNL     1       6.220  -2.701  25.008  0.00  0.00    +0.057 C 
ATOM      4  C   UNL     1       7.866  -2.887  25.042  0.00  0.00    +0.053 C 
ATOM      5  C   UNL     1       7.976  -4.117  24.112  0.00  0.00    +0.021 C 
ATOM      6  C   UNL     1       7.621  -3.708  22.655  0.00  0.00    +0.022 C 
ATOM      7  C   UNL     1       7.903  -2.261  22.157  0.00  0.00    +0.061 C 
ATOM      8  C   UNL     1       8.520  -1.314  23.144  0.00  0.00    +0.025 A 
ATOM      9  N   UNL     1       9.031  -0.156  22.631  0.00  0.00    -0.326 N 
ATOM     10  H   UNL     1       8.945   0.054  21.644  0.00  0.00    +0.169 HD
ATOM     11  C   UNL     1       9.645   0.828  23.364  0.00  0.00    +0.249 A 
ATOM     12  O   UNL     1      10.103   1.853  22.875  0.00  0.00    -0.268 OA
ATOM     13  C   UNL     1       9.702   0.583  24.824  0.00  0.00    +0.070 A 
ATOM     14  C   UNL     1       9.135  -0.536  25.313  0.00  0.00    +0.012 A 
ATOM     15  C   UNL     1       8.782  -5.384  24.397  0.00  0.00    +0.007 C 
ATOM     16  C   UNL     1       9.771  -5.168  25.502  0.00  0.00    +0.015 C 
ATOM     17  C   UNL     1       9.107  -4.442  26.672  0.00  0.00    +0.082 C 
ATOM     18  N   UNL     1       8.498  -3.136  26.378  0.00  0.00    -0.306 NA
ATOM     19  H   UNL     1       9.314  -2.524  26.438  0.00  0.00    +0.123 HD
ATOM     20  C   UNL     1       8.520  -1.573  24.463  0.00  0.00    -0.007 A 
ATOM     21  C   UNL     1       6.135  -3.794  22.661  0.00  0.00    -0.024 C 
ENDROOT
TORSDOF 0
ENDMDL
MODEL 8
REMARK VINA RESULT:      -6.3      3.559      6.766
REMARK  Name = 
REMARK  1 active torsions:
REMARK  status: ('A' for Active; 'I' for Inactive)
REMARK    1  A    between atoms: C_1  and  C_2
REMARK                            x       y       z     vdW  Elec       q    Type
REMARK                         _______ _______ _______ _____ _____    ______ ____
ROOT
ATOM      1  C   UNL     1       5.400  -6.154  27.557  0.00  0.00    +0.039 C 
ATOM      2  C   UNL     1       5.784  -5.165  26.505  0.00  0.00    -0.074 C 
ATOM      3  C   UNL     1       7.199  -5.284  25.737  0.00  0.00    +0.057 C 
ATOM      4  C   UNL     1       7.261  -4.647  24.209  0.00  0.00    +0.053 C 
ATOM      5  C   UNL     1       5.748  -4.671  23.889  0.00  0.00    +0.021 C 
ATOM      6  C   UNL     1       5.010  -3.618  24.763  0.00  0.00    +0.022 C 
ATOM      7  C   UNL     1       5.744  -2.323  25.215  0.00  0.00    +0.061 C 
ATOM      8  C   UNL     1       7.168  -2.161  24.770  0.00  0.00    +0.025 A 
ATOM      9  N   UNL     1       7.707  -0.914  24.913  0.00  0.00    -0.326 N 
ATOM     10  H   UNL     1       7.175  -0.168  25.343  0.00  0.00    +0.169 HD
ATOM     11  C   UNL     1       8.983  -0.561  24.555  0.00  0.00    +0.249 A 
ATOM     12  O   UNL     1       9.437   0.569  24.686  0.00  0.00    -0.268 OA
ATOM     13  C   UNL     1       9.811  -1.660  24.006  0.00  0.00    +0.070 A 
ATOM     14  C   UNL     1       9.278  -2.895  23.934  0.00  0.00    +0.012 A 
ATOM     15  C   UNL     1       5.114  -5.213  22.610  0.00  0.00    +0.007 C 
ATOM     16  C   UNL     1       6.129  -5.376  21.520  0.00  0.00    +0.015 C 
ATOM     17  C   UNL     1       7.384  -6.060  22.063  0.00  0.00    +0.082 C 
ATOM     18  N   UNL     1       8.061  -5.398  23.188  0.00  0.00    -0.306 NA
ATOM     19  H   UNL     1       8.630  -4.709  22.692  0.00  0.00    +0.123 HD
ATOM     20  C   UNL     1       7.883  -3.200  24.305  0.00  0.00    -0.007 A 
ATOM     21  C   UNL     1       4.796  -4.363  26.033  0.00  0.00    -0.024 C 
ENDROOT
TORSDOF 0
ENDMDL
MODEL 9
REMARK VINA RESULT:      -6.2      3.184      5.108
REMARK  Name = 
REMARK  1 active torsions:
REMARK  status: ('A' for Active; 'I' for Inactive)
REMARK    1  A    between atoms: C_1  and  C_2
REMARK                            x       y       z     vdW  Elec       q    Type
REMARK                         _______ _______ _______ _____ _____    ______ ____
ROOT
ATOM      1  C   UNL     1      10.504  -1.494  22.287  0.00  0.00    +0.039 C 
ATOM      2  C   UNL     1       9.819  -0.288  22.843  0.00  0.00    -0.074 C 
ATOM      3  C   UNL     1       8.256  -0.016  22.547  0.00  0.00    +0.057 C 
ATOM      4  C   UNL     1       7.437   0.871  23.681  0.00  0.00    +0.053 C 
ATOM      5  C   UNL     1       8.376   0.627  24.885  0.00  0.00    +0.021 C 
ATOM      6  C   UNL     1       9.725   1.365  24.656  0.00  0.00    +0.022 C 
ATOM      7  C   UNL     1       9.768   2.676  23.820  0.00  0.00    +0.061 C 
ATOM      8  C   UNL     1       8.464   3.168  23.263  0.00  0.00    +0.025 A 
ATOM      9  N   UNL     1       8.454   4.449  22.791  0.00  0.00    -0.326 N 
ATOM     10  H   UNL     1       9.302   5.002  22.781  0.00  0.00    +0.169 HD
ATOM     11  C   UNL     1       7.361   5.084  22.257  0.00  0.00    +0.249 A 
ATOM     12  O   UNL     1       7.379   6.238  21.849  0.00  0.00    -0.268 OA
ATOM     13  C   UNL     1       6.131   4.262  22.177  0.00  0.00    +0.070 A 
ATOM     14  C   UNL     1       6.183   2.981  22.590  0.00  0.00    +0.012 A 
ATOM     15  C   UNL     1       7.941   0.203  26.286  0.00  0.00    +0.007 C 
ATOM     16  C   UNL     1       6.472   0.414  26.492  0.00  0.00    +0.015 C 
ATOM     17  C   UNL     1       5.687  -0.113  25.290  0.00  0.00    +0.082 C 
ATOM     18  N   UNL     1       6.026   0.462  23.979  0.00  0.00    -0.306 NA
ATOM     19  H   UNL     1       5.466   1.317  23.992  0.00  0.00    +0.123 HD
ATOM     20  C   UNL     1       7.385   2.369  23.190  0.00  0.00    -0.007 A 
ATOM     21  C   UNL     1      10.476   0.389  23.819  0.00  0.00    -0.024 C 
ENDROOT
TORSDOF 0
ENDMDL
