MODEL 1
REMARK VINA RESULT:      -8.0      0.000      0.000
REMARK  Name = 
REMARK  2 active torsions:
REMARK  status: ('A' for Active; 'I' for Inactive)
REMARK    1  A    between atoms: C_1  and  C_2
REMARK    2  A    between atoms: N_4  and  C_5
REMARK                            x       y       z     vdW  Elec       q    Type
REMARK                         _______ _______ _______ _____ _____    ______ ____
ROOT
ATOM      1  C   UNL     1      10.436   2.518  23.207  0.00  0.00    +0.037 A 
ATOM      2  C   UNL     1       9.881   1.916  24.344  0.00  0.00    +0.072 A 
ATOM      3  C   UNL     1       9.043   0.801  24.212  0.00  0.00    +0.164 A 
ATOM      4  C   UNL     1       8.837   0.222  22.961  0.00  0.00    +0.162 A 
ATOM      5  O   UNL     1       8.026  -0.873  22.854  0.00  0.00    -0.486 OA
ATOM      6  C   UNL     1       8.683  -1.992  22.235  0.00  0.00    +0.257 C 
ATOM      7  C   UNL     1       8.641  -3.178  23.193  0.00  0.00    +0.201 C 
ATOM      8  O   UNL     1       7.330  -3.751  23.202  0.00  0.00    -0.373 OA
ATOM      9  C   UNL     1       7.211  -4.734  24.236  0.00  0.00    +0.201 C 
ATOM     10  C   UNL     1       5.834  -5.390  24.179  0.00  0.00    +0.257 C 
ATOM     11  O   UNL     1       4.856  -4.516  24.768  0.00  0.00    -0.486 OA
ATOM     12  C   UNL     1       4.245  -5.092  25.850  0.00  0.00    +0.162 A 
ATOM     13  C   UNL     1       3.409  -6.199  25.683  0.00  0.00    +0.049 A 
ATOM     14  C   UNL     1       2.778  -6.767  26.789  0.00  0.00    +0.004 A 
ATOM     15  C   UNL     1       2.974  -6.223  28.060  0.00  0.00    +0.004 A 
ATOM     16  C   UNL     1       3.788  -5.101  28.223  0.00  0.00    +0.049 A 
ATOM     17  C   UNL     1       4.402  -4.515  27.113  0.00  0.00    +0.162 A 
ATOM     18  O   UNL     1       5.231  -3.434  27.244  0.00  0.00    -0.486 OA
ATOM     19  C   UNL     1       4.596  -2.302  27.858  0.00  0.00    +0.257 C 
ATOM     20  C   UNL     1       4.657  -1.110  26.904  0.00  0.00    +0.201 C 
ATOM     21  O   UNL     1       5.979  -0.558  26.883  0.00  0.00    -0.373 OA
ATOM     22  C   UNL     1       6.101   0.443  25.864  0.00  0.00    +0.201 C 
ATOM     23  C   UNL     1       7.486   1.088  25.918  0.00  0.00    +0.257 C 
ATOM     24  C   UNL     1       9.394   0.809  21.828  0.00  0.00    +0.051 A 
ATOM     25  O   UNL     1       8.470   0.227  25.319  0.00  0.00    -0.486 OA
ATOM     26  C   UNL     1      10.193   1.947  21.955  0.00  0.00    +0.027 A 
ENDROOT
BRANCH   1  29
ATOM     27  C   UNL     1      11.834   5.983  23.735  0.00  0.00    +0.109 C 
ATOM     28  C   UNL     1      10.758   4.933  23.735  0.00  0.00    +0.214 C 
ATOM     29  N   UNL     1      11.224   3.677  23.381  0.00  0.00    -0.286 N 
ATOM     30  H   UNL     1      12.227   3.550  23.337  0.00  0.00    +0.155 HD
ATOM     31  O   UNL     1       9.604   5.230  24.021  0.00  0.00    -0.276 OA
ENDBRANCH   1  29
TORSDOF 1
ENDMDL
MODEL 2
REMARK VINA RESULT:      -7.9      3.004      9.089
REMARK  Name = 
REMARK  2 active torsions:
REMARK  status: ('A' for Active; 'I' for Inactive)
REMARK    1  A    between atoms: C_1  and  C_2
REMARK    2  A    between atoms: N_4  and  C_5
REMARK                            x       y       z     vdW  Elec       q    Type
REMARK                         _______ _______ _______ _____ _____    ______ ____
ROOT
ATOM      1  C   UNL     1       4.803  -5.031  24.520  0.00  0.00    +0.037 A 
ATOM      2  C   UNL     1       4.625  -3.642  24.553  0.00  0.00    +0.072 A 
ATOM      3  C   UNL     1       5.722  -2.788  24.374  0.00  0.00    +0.164 A 
ATOM      4  C   UNL     1       6.976  -3.312  24.063  0.00  0.00    +0.162 A 
ATOM      5  O   UNL     1       8.031  -2.462  23.880  0.00  0.00    -0.486 OA
ATOM      6  C   UNL     1       8.668  -2.636  22.603  0.00  0.00    +0.257 C 
ATOM      7  C   UNL     1       8.635  -1.309  21.853  0.00  0.00    +0.201 C 
ATOM      8  O   UNL     1       9.613  -0.417  22.397  0.00  0.00    -0.373 OA
ATOM      9  C   UNL     1       9.468   0.896  21.847  0.00  0.00    +0.201 C 
ATOM     10  C   UNL     1      10.568   1.811  22.377  0.00  0.00    +0.257 C 
ATOM     11  O   UNL     1      10.246   2.233  23.713  0.00  0.00    -0.486 OA
ATOM     12  C   UNL     1      10.123   3.595  23.802  0.00  0.00    +0.162 A 
ATOM     13  C   UNL     1      11.239   4.417  23.625  0.00  0.00    +0.049 A 
ATOM     14  C   UNL     1      11.106   5.801  23.735  0.00  0.00    +0.004 A 
ATOM     15  C   UNL     1       9.862   6.362  24.029  0.00  0.00    +0.004 A 
ATOM     16  C   UNL     1       8.752   5.538  24.231  0.00  0.00    +0.049 A 
ATOM     17  C   UNL     1       8.888   4.150  24.147  0.00  0.00    +0.162 A 
ATOM     18  O   UNL     1       7.814   3.318  24.308  0.00  0.00    -0.486 OA
ATOM     19  C   UNL     1       7.161   3.471  25.578  0.00  0.00    +0.257 C 
ATOM     20  C   UNL     1       7.179   2.134  26.319  0.00  0.00    +0.201 C 
ATOM     21  O   UNL     1       6.214   1.241  25.752  0.00  0.00    -0.373 OA
ATOM     22  C   UNL     1       6.338  -0.073  26.313  0.00  0.00    +0.201 C 
ATOM     23  C   UNL     1       5.241  -0.989  25.769  0.00  0.00    +0.257 C 
ATOM     24  C   UNL     1       7.156  -4.692  24.019  0.00  0.00    +0.051 A 
ATOM     25  O   UNL     1       5.562  -1.427  24.438  0.00  0.00    -0.486 OA
ATOM     26  C   UNL     1       6.072  -5.543  24.242  0.00  0.00    +0.027 A 
ENDROOT
BRANCH   1  29
ATOM     27  C   UNL     1       1.609  -7.039  24.430  0.00  0.00    +0.109 C 
ATOM     28  C   UNL     1       2.741  -6.253  23.830  0.00  0.00    +0.214 C 
ATOM     29  N   UNL     1       3.682  -5.854  24.767  0.00  0.00    -0.286 N 
ATOM     30  H   UNL     1       3.619  -6.264  25.690  0.00  0.00    +0.155 HD
ATOM     31  O   UNL     1       2.763  -6.017  22.628  0.00  0.00    -0.276 OA
ENDBRANCH   1  29
TORSDOF 1
ENDMDL
MODEL 3
REMARK VINA RESULT:      -7.1      3.022      9.097
REMARK  Name = 
REMARK  2 active torsions:
REMARK  status: ('A' for Active; 'I' for Inactive)
REMARK    1  A    between atoms: C_1  and  C_2
REMARK    2  A    between atoms: N_4  and  C_5
REMARK                            x       y       z     vdW  Elec       q    Type
REMARK                         _______ _______ _______ _____ _____    ______ ____
ROOT
ATOM      1  C   UNL     1       3.528  -5.975  24.915  0.00  0.00    +0.037 A 
ATOM      2  C   UNL     1       3.492  -4.574  24.924  0.00  0.00    +0.072 A 
ATOM      3  C   UNL     1       4.662  -3.838  24.691  0.00  0.00    +0.164 A 
ATOM      4  C   UNL     1       5.845  -4.491  24.350  0.00  0.00    +0.162 A 
ATOM      5  O   UNL     1       6.973  -3.756  24.115  0.00  0.00    -0.486 OA
ATOM      6  C   UNL     1       7.544  -4.015  22.822  0.00  0.00    +0.257 C 
ATOM      7  C   UNL     1       7.619  -2.704  22.046  0.00  0.00    +0.201 C 
ATOM      8  O   UNL     1       8.699  -1.906  22.538  0.00  0.00    -0.373 OA
ATOM      9  C   UNL     1       8.667  -0.595  21.966  0.00  0.00    +0.201 C 
ATOM     10  C   UNL     1       9.871   0.214  22.441  0.00  0.00    +0.257 C 
ATOM     11  O   UNL     1       9.639   0.690  23.778  0.00  0.00    -0.486 OA
ATOM     12  C   UNL     1       9.656   2.058  23.842  0.00  0.00    +0.162 A 
ATOM     13  C   UNL     1      10.841   2.761  23.611  0.00  0.00    +0.049 A 
ATOM     14  C   UNL     1      10.852   4.153  23.696  0.00  0.00    +0.004 A 
ATOM     15  C   UNL     1       9.681   4.841  24.020  0.00  0.00    +0.004 A 
ATOM     16  C   UNL     1       8.502   4.137  24.275  0.00  0.00    +0.049 A 
ATOM     17  C   UNL     1       8.495   2.741  24.216  0.00  0.00    +0.162 A 
ATOM     18  O   UNL     1       7.349   2.024  24.429  0.00  0.00    -0.486 OA
ATOM     19  C   UNL     1       6.760   2.264  25.717  0.00  0.00    +0.257 C 
ATOM     20  C   UNL     1       6.669   0.945  26.484  0.00  0.00    +0.201 C 
ATOM     21  O   UNL     1       5.601   0.144  25.968  0.00  0.00    -0.373 OA
ATOM     22  C   UNL     1       5.613  -1.165  26.552  0.00  0.00    +0.201 C 
ATOM     23  C   UNL     1       4.412  -1.976  26.064  0.00  0.00    +0.257 C 
ATOM     24  C   UNL     1       5.885  -5.883  24.329  0.00  0.00    +0.051 A 
ATOM     25  O   UNL     1       4.640  -2.467  24.732  0.00  0.00    -0.486 OA
ATOM     26  C   UNL     1       4.730  -6.617  24.605  0.00  0.00    +0.027 A 
ENDROOT
BRANCH   1  29
ATOM     27  C   UNL     1       0.639  -7.843  26.465  0.00  0.00    +0.109 C 
ATOM     28  C   UNL     1       1.883  -6.999  26.484  0.00  0.00    +0.214 C 
ATOM     29  N   UNL     1       2.340  -6.676  25.215  0.00  0.00    -0.286 N 
ATOM     30  H   UNL     1       1.723  -6.872  24.438  0.00  0.00    +0.155 HD
ATOM     31  O   UNL     1       2.394  -6.673  27.549  0.00  0.00    -0.276 OA
ENDBRANCH   1  29
TORSDOF 1
ENDMDL
MODEL 4
REMARK VINA RESULT:      -7.0      3.411      9.405
REMARK  Name = 
REMARK  2 active torsions:
REMARK  status: ('A' for Active; 'I' for Inactive)
REMARK    1  A    between atoms: C_1  and  C_2
REMARK    2  A    between atoms: N_4  and  C_5
REMARK                            x       y       z     vdW  Elec       q    Type
REMARK                         _______ _______ _______ _____ _____    ______ ____
ROOT
ATOM      1  C   UNL     1       3.747  -6.683  28.594  0.00  0.00    +0.037 A 
ATOM      2  C   UNL     1       3.578  -5.645  27.668  0.00  0.00    +0.072 A 
ATOM      3  C   UNL     1       4.685  -4.907  27.228  0.00  0.00    +0.164 A 
ATOM      4  C   UNL     1       5.971  -5.265  27.630  0.00  0.00    +0.162 A 
ATOM      5  O   UNL     1       7.040  -4.540  27.180  0.00  0.00    -0.486 OA
ATOM      6  C   UNL     1       8.021  -5.354  26.516  0.00  0.00    +0.257 C 
ATOM      7  C   UNL     1       8.219  -4.827  25.099  0.00  0.00    +0.201 C 
ATOM      8  O   UNL     1       9.002  -3.629  25.129  0.00  0.00    -0.373 OA
ATOM      9  C   UNL     1       9.033  -3.008  23.840  0.00  0.00    +0.201 C 
ATOM     10  C   UNL     1       9.936  -1.778  23.873  0.00  0.00    +0.257 C 
ATOM     11  O   UNL     1       9.240  -0.681  24.488  0.00  0.00    -0.486 OA
ATOM     12  C   UNL     1       9.106   0.381  23.633  0.00  0.00    +0.162 A 
ATOM     13  C   UNL     1      10.231   1.100  23.219  0.00  0.00    +0.049 A 
ATOM     14  C   UNL     1      10.082   2.191  22.363  0.00  0.00    +0.004 A 
ATOM     15  C   UNL     1       8.810   2.568  21.928  0.00  0.00    +0.004 A 
ATOM     16  C   UNL     1       7.684   1.865  22.362  0.00  0.00    +0.049 A 
ATOM     17  C   UNL     1       7.828   0.788  23.240  0.00  0.00    +0.162 A 
ATOM     18  O   UNL     1       6.748   0.059  23.658  0.00  0.00    -0.486 OA
ATOM     19  C   UNL     1       5.754   0.850  24.328  0.00  0.00    +0.257 C 
ATOM     20  C   UNL     1       5.544   0.306  25.741  0.00  0.00    +0.201 C 
ATOM     21  O   UNL     1       4.781  -0.904  25.698  0.00  0.00    -0.373 OA
ATOM     22  C   UNL     1       4.726  -1.522  26.991  0.00  0.00    +0.201 C 
ATOM     23  C   UNL     1       3.830  -2.761  26.950  0.00  0.00    +0.257 C 
ATOM     24  C   UNL     1       6.147  -6.302  28.542  0.00  0.00    +0.051 A 
ATOM     25  O   UNL     1       4.523  -3.868  26.348  0.00  0.00    -0.486 OA
ATOM     26  C   UNL     1       5.039  -7.008  29.015  0.00  0.00    +0.027 A 
ENDROOT
BRANCH   1  29
ATOM     27  C   UNL     1       0.443  -8.443  29.068  0.00  0.00    +0.109 C 
ATOM     28  C   UNL     1       1.581  -7.875  28.268  0.00  0.00    +0.214 C 
ATOM     29  N   UNL     1       2.597  -7.359  29.057  0.00  0.00    -0.286 N 
ATOM     30  H   UNL     1       2.565  -7.568  30.047  0.00  0.00    +0.155 HD
ATOM     31  O   UNL     1       1.546  -7.891  27.042  0.00  0.00    -0.276 OA
ENDBRANCH   1  29
TORSDOF 1
ENDMDL
MODEL 5
REMARK VINA RESULT:      -6.6      2.069      4.052
REMARK  Name = 
REMARK  2 active torsions:
REMARK  status: ('A' for Active; 'I' for Inactive)
REMARK    1  A    between atoms: C_1  and  C_2
REMARK    2  A    between atoms: N_4  and  C_5
REMARK                            x       y       z     vdW  Elec       q    Type
REMARK                         _______ _______ _______ _____ _____    ______ ____
ROOT
ATOM      1  C   UNL     1      10.246   4.790  23.701  0.00  0.00    +0.037 A 
ATOM      2  C   UNL     1       9.921   3.442  23.503  0.00  0.00    +0.072 A 
ATOM      3  C   UNL     1       9.013   2.804  24.358  0.00  0.00    +0.164 A 
ATOM      4  C   UNL     1       8.351   3.530  25.347  0.00  0.00    +0.162 A 
ATOM      5  O   UNL     1       7.459   2.892  26.164  0.00  0.00    -0.486 OA
ATOM      6  C   UNL     1       6.158   3.502  26.147  0.00  0.00    +0.257 C 
ATOM      7  C   UNL     1       5.132   2.459  25.718  0.00  0.00    +0.201 C 
ATOM      8  O   UNL     1       4.870   1.560  26.800  0.00  0.00    -0.373 OA
ATOM      9  C   UNL     1       4.067   0.458  26.364  0.00  0.00    +0.201 C 
ATOM     10  C   UNL     1       3.731  -0.446  27.547  0.00  0.00    +0.257 C 
ATOM     11  O   UNL     1       4.864  -1.275  27.859  0.00  0.00    -0.486 OA
ATOM     12  C   UNL     1       4.569  -2.607  27.736  0.00  0.00    +0.162 A 
ATOM     13  C   UNL     1       3.664  -3.215  28.610  0.00  0.00    +0.049 A 
ATOM     14  C   UNL     1       3.385  -4.575  28.487  0.00  0.00    +0.004 A 
ATOM     15  C   UNL     1       4.017  -5.330  27.497  0.00  0.00    +0.004 A 
ATOM     16  C   UNL     1       4.941  -4.729  26.640  0.00  0.00    +0.049 A 
ATOM     17  C   UNL     1       5.241  -3.372  26.778  0.00  0.00    +0.162 A 
ATOM     18  O   UNL     1       6.117  -2.746  25.933  0.00  0.00    -0.486 OA
ATOM     19  C   UNL     1       7.427  -3.336  25.934  0.00  0.00    +0.257 C 
ATOM     20  C   UNL     1       8.455  -2.283  26.345  0.00  0.00    +0.201 C 
ATOM     21  O   UNL     1       8.692  -1.373  25.265  0.00  0.00    -0.373 OA
ATOM     22  C   UNL     1       9.515  -0.278  25.687  0.00  0.00    +0.201 C 
ATOM     23  C   UNL     1       9.837   0.632  24.501  0.00  0.00    +0.257 C 
ATOM     24  C   UNL     1       8.663   4.873  25.543  0.00  0.00    +0.051 A 
ATOM     25  O   UNL     1       8.715   1.475  24.190  0.00  0.00    -0.486 OA
ATOM     26  C   UNL     1       9.601   5.497  24.719  0.00  0.00    +0.027 A 
ENDROOT
BRANCH   1  29
ATOM     27  C   UNL     1      13.350   6.054  21.966  0.00  0.00    +0.109 C 
ATOM     28  C   UNL     1      12.586   5.213  22.950  0.00  0.00    +0.214 C 
ATOM     29  N   UNL     1      11.213   5.376  22.855  0.00  0.00    -0.286 N 
ATOM     30  H   UNL     1      10.862   5.879  22.051  0.00  0.00    +0.155 HD
ATOM     31  O   UNL     1      13.182   4.484  23.736  0.00  0.00    -0.276 OA
ENDBRANCH   1  29
TORSDOF 1
ENDMDL
MODEL 6
REMARK VINA RESULT:      -6.5      1.676      3.642
REMARK  Name = 
REMARK  2 active torsions:
REMARK  status: ('A' for Active; 'I' for Inactive)
REMARK    1  A    between atoms: C_1  and  C_2
REMARK    2  A    between atoms: N_4  and  C_5
REMARK                            x       y       z     vdW  Elec       q    Type
REMARK                         _______ _______ _______ _____ _____    ______ ____
ROOT
ATOM      1  C   UNL     1      10.280   4.149  23.394  0.00  0.00    +0.037 A 
ATOM      2  C   UNL     1      10.056   2.809  23.054  0.00  0.00    +0.072 A 
ATOM      3  C   UNL     1       9.210   2.015  23.840  0.00  0.00    +0.164 A 
ATOM      4  C   UNL     1       8.509   2.579  24.905  0.00  0.00    +0.162 A 
ATOM      5  O   UNL     1       7.680   1.791  25.654  0.00  0.00    -0.486 OA
ATOM      6  C   UNL     1       6.336   2.298  25.709  0.00  0.00    +0.257 C 
ATOM      7  C   UNL     1       5.386   1.230  25.177  0.00  0.00    +0.201 C 
ATOM      8  O   UNL     1       5.208   0.203  26.157  0.00  0.00    -0.373 OA
ATOM      9  C   UNL     1       4.485  -0.904  25.610  0.00  0.00    +0.201 C 
ATOM     10  C   UNL     1       4.235  -1.953  26.690  0.00  0.00    +0.257 C 
ATOM     11  O   UNL     1       5.431  -2.720  26.906  0.00  0.00    -0.486 OA
ATOM     12  C   UNL     1       5.237  -4.051  26.643  0.00  0.00    +0.162 A 
ATOM     13  C   UNL     1       4.393  -4.815  27.451  0.00  0.00    +0.049 A 
ATOM     14  C   UNL     1       4.216  -6.173  27.184  0.00  0.00    +0.004 A 
ATOM     15  C   UNL     1       4.890  -6.767  26.116  0.00  0.00    +0.004 A 
ATOM     16  C   UNL     1       5.754  -6.009  25.323  0.00  0.00    +0.049 A 
ATOM     17  C   UNL     1       5.952  -4.654  25.604  0.00  0.00    +0.162 A 
ATOM     18  O   UNL     1       6.767  -3.877  24.827  0.00  0.00    -0.486 OA
ATOM     19  C   UNL     1       8.118  -4.361  24.758  0.00  0.00    +0.257 C 
ATOM     20  C   UNL     1       9.068  -3.281  25.274  0.00  0.00    +0.201 C 
ATOM     21  O   UNL     1       9.221  -2.246  24.296  0.00  0.00    -0.373 OA
ATOM     22  C   UNL     1       9.963  -1.142  24.829  0.00  0.00    +0.201 C 
ATOM     23  C   UNL     1      10.200  -0.089  23.746  0.00  0.00    +0.257 C 
ATOM     24  C   UNL     1       8.721   3.914  25.243  0.00  0.00    +0.051 A 
ATOM     25  O   UNL     1       9.012   0.693  23.532  0.00  0.00    -0.486 OA
ATOM     26  C   UNL     1       9.598   4.692  24.485  0.00  0.00    +0.027 A 
ENDROOT
BRANCH   1  29
ATOM     27  C   UNL     1      13.218   5.982  21.893  0.00  0.00    +0.109 C 
ATOM     28  C   UNL     1      12.546   5.038  22.850  0.00  0.00    +0.214 C 
ATOM     29  N   UNL     1      11.188   4.895  22.610  0.00  0.00    -0.286 N 
ATOM     30  H   UNL     1      10.829   5.276  21.745  0.00  0.00    +0.155 HD
ATOM     31  O   UNL     1      13.193   4.489  23.735  0.00  0.00    -0.276 OA
ENDBRANCH   1  29
TORSDOF 1
ENDMDL
MODEL 7
REMARK VINA RESULT:      -6.3      2.065      3.088
REMARK  Name = 
REMARK  2 active torsions:
REMARK  status: ('A' for Active; 'I' for Inactive)
REMARK    1  A    between atoms: C_1  and  C_2
REMARK    2  A    between atoms: N_4  and  C_5
REMARK                            x       y       z     vdW  Elec       q    Type
REMARK                         _______ _______ _______ _____ _____    ______ ____
ROOT
ATOM      1  C   UNL     1       9.930  -0.267  23.928  0.00  0.00    +0.037 A 
ATOM      2  C   UNL     1       9.006  -0.221  24.980  0.00  0.00    +0.072 A 
ATOM      3  C   UNL     1       8.221  -1.344  25.277  0.00  0.00    +0.164 A 
ATOM      4  C   UNL     1       8.425  -2.542  24.596  0.00  0.00    +0.162 A 
ATOM      5  O   UNL     1       7.659  -3.631  24.908  0.00  0.00    -0.486 OA
ATOM      6  C   UNL     1       8.446  -4.777  25.272  0.00  0.00    +0.257 C 
ATOM      7  C   UNL     1       8.044  -5.223  26.674  0.00  0.00    +0.201 C 
ATOM      8  O   UNL     1       6.786  -5.903  26.628  0.00  0.00    -0.373 OA
ATOM      9  C   UNL     1       6.294  -6.154  27.948  0.00  0.00    +0.201 C 
ATOM     10  C   UNL     1       4.993  -6.949  27.880  0.00  0.00    +0.257 C 
ATOM     11  O   UNL     1       3.906  -6.073  27.540  0.00  0.00    -0.486 OA
ATOM     12  C   UNL     1       2.948  -6.046  28.519  0.00  0.00    +0.162 A 
ATOM     13  C   UNL     1       2.178  -7.181  28.785  0.00  0.00    +0.049 A 
ATOM     14  C   UNL     1       1.193  -7.138  29.771  0.00  0.00    +0.004 A 
ATOM     15  C   UNL     1       0.972  -5.958  30.485  0.00  0.00    +0.004 A 
ATOM     16  C   UNL     1       1.724  -4.816  30.202  0.00  0.00    +0.049 A 
ATOM     17  C   UNL     1       2.693  -4.850  29.196  0.00  0.00    +0.162 A 
ATOM     18  O   UNL     1       3.469  -3.758  28.916  0.00  0.00    -0.486 OA
ATOM     19  C   UNL     1       2.705  -2.599  28.547  0.00  0.00    +0.257 C 
ATOM     20  C   UNL     1       3.124  -2.143  27.149  0.00  0.00    +0.201 C 
ATOM     21  O   UNL     1       4.394  -1.485  27.202  0.00  0.00    -0.373 OA
ATOM     22  C   UNL     1       4.885  -1.211  25.883  0.00  0.00    +0.201 C 
ATOM     23  C   UNL     1       6.195  -0.424  25.958  0.00  0.00    +0.257 C 
ATOM     24  C   UNL     1       9.350  -2.597  23.555  0.00  0.00    +0.051 A 
ATOM     25  O   UNL     1       7.291  -1.296  26.284  0.00  0.00    -0.486 OA
ATOM     26  C   UNL     1      10.100  -1.465  23.230  0.00  0.00    +0.027 A 
ENDROOT
BRANCH   1  29
ATOM     27  C   UNL     1      11.190   3.239  23.327  0.00  0.00    +0.109 C 
ATOM     28  C   UNL     1      10.238   2.207  23.864  0.00  0.00    +0.214 C 
ATOM     29  N   UNL     1      10.654   0.907  23.624  0.00  0.00    -0.286 N 
ATOM     30  H   UNL     1      11.601   0.778  23.290  0.00  0.00    +0.155 HD
ATOM     31  O   UNL     1       9.212   2.551  24.439  0.00  0.00    -0.276 OA
ENDBRANCH   1  29
TORSDOF 1
ENDMDL
MODEL 8
REMARK VINA RESULT:      -6.1      2.025      4.339
REMARK  Name = 
REMARK  2 active torsions:
REMARK  status: ('A' for Active; 'I' for Inactive)
REMARK    1  A    between atoms: C_1  and  C_2
REMARK    2  A    between atoms: N_4  and  C_5
REMARK                            x       y       z     vdW  Elec       q    Type
REMARK                         _______ _______ _______ _____ _____    ______ ____
ROOT
ATOM      1  C   UNL     1       9.600   0.517  24.564  0.00  0.00    +0.037 A 
ATOM      2  C   UNL     1       8.713  -0.203  23.753  0.00  0.00    +0.072 A 
ATOM      3  C   UNL     1       7.893  -1.191  24.312  0.00  0.00    +0.164 A 
ATOM      4  C   UNL     1       7.880  -1.396  25.691  0.00  0.00    +0.162 A 
ATOM      5  O   UNL     1       7.064  -2.356  26.219  0.00  0.00    -0.486 OA
ATOM      6  C   UNL     1       6.173  -1.837  27.221  0.00  0.00    +0.257 C 
ATOM      7  C   UNL     1       4.736  -2.129  26.799  0.00  0.00    +0.201 C 
ATOM      8  O   UNL     1       4.435  -3.511  27.020  0.00  0.00    -0.373 OA
ATOM      9  C   UNL     1       3.167  -3.853  26.450  0.00  0.00    +0.201 C 
ATOM     10  C   UNL     1       2.827  -5.307  26.765  0.00  0.00    +0.257 C 
ATOM     11  O   UNL     1       3.561  -6.178  25.888  0.00  0.00    -0.486 OA
ATOM     12  C   UNL     1       2.728  -6.946  25.118  0.00  0.00    +0.162 A 
ATOM     13  C   UNL     1       1.928  -7.928  25.707  0.00  0.00    +0.049 A 
ATOM     14  C   UNL     1       1.097  -8.716  24.911  0.00  0.00    +0.004 A 
ATOM     15  C   UNL     1       1.072  -8.529  23.528  0.00  0.00    +0.004 A 
ATOM     16  C   UNL     1       1.891  -7.564  22.937  0.00  0.00    +0.049 A 
ATOM     17  C   UNL     1       2.743  -6.791  23.729  0.00  0.00    +0.162 A 
ATOM     18  O   UNL     1       3.534  -5.816  23.184  0.00  0.00    -0.486 OA
ATOM     19  C   UNL     1       4.436  -6.310  22.181  0.00  0.00    +0.257 C 
ATOM     20  C   UNL     1       5.873  -5.999  22.597  0.00  0.00    +0.201 C 
ATOM     21  O   UNL     1       6.158  -4.610  22.395  0.00  0.00    -0.373 OA
ATOM     22  C   UNL     1       7.436  -4.263  22.944  0.00  0.00    +0.201 C 
ATOM     23  C   UNL     1       7.766  -2.802  22.637  0.00  0.00    +0.257 C 
ATOM     24  C   UNL     1       8.752  -0.676  26.504  0.00  0.00    +0.051 A 
ATOM     25  O   UNL     1       7.046  -1.923  23.519  0.00  0.00    -0.486 OA
ATOM     26  C   UNL     1       9.602   0.278  25.940  0.00  0.00    +0.027 A 
ENDROOT
BRANCH   1  29
ATOM     27  C   UNL     1      11.275   3.544  23.056  0.00  0.00    +0.109 C 
ATOM     28  C   UNL     1      10.233   2.827  23.868  0.00  0.00    +0.214 C 
ATOM     29  N   UNL     1      10.453   1.460  23.949  0.00  0.00    -0.286 N 
ATOM     30  H   UNL     1      11.348   1.116  23.627  0.00  0.00    +0.155 HD
ATOM     31  O   UNL     1       9.305   3.448  24.372  0.00  0.00    -0.276 OA
ENDBRANCH   1  29
TORSDOF 1
ENDMDL
MODEL 9
REMARK VINA RESULT:      -5.9      4.008      8.277
REMARK  Name = 
REMARK  2 active torsions:
REMARK  status: ('A' for Active; 'I' for Inactive)
REMARK    1  A    between atoms: C_1  and  C_2
REMARK    2  A    between atoms: N_4  and  C_5
REMARK                            x       y       z     vdW  Elec       q    Type
REMARK                         _______ _______ _______ _____ _____    ______ ____
ROOT
ATOM      1  C   UNL     1       7.271  -2.790  22.512  0.00  0.00    +0.037 A 
ATOM      2  C   UNL     1       6.375  -2.131  23.364  0.00  0.00    +0.072 A 
ATOM      3  C   UNL     1       6.765  -0.957  24.023  0.00  0.00    +0.164 A 
ATOM      4  C   UNL     1       8.007  -0.383  23.758  0.00  0.00    +0.162 A 
ATOM      5  O   UNL     1       8.365   0.769  24.401  0.00  0.00    -0.486 OA
ATOM      6  C   UNL     1       8.719   1.824  23.492  0.00  0.00    +0.257 C 
ATOM      7  C   UNL     1       7.816   3.025  23.757  0.00  0.00    +0.201 C 
ATOM      8  O   UNL     1       8.235   3.696  24.949  0.00  0.00    -0.373 OA
ATOM      9  C   UNL     1       7.289   4.701  25.327  0.00  0.00    +0.201 C 
ATOM     10  C   UNL     1       7.791   5.459  26.553  0.00  0.00    +0.257 C 
ATOM     11  O   UNL     1       7.569   4.672  27.735  0.00  0.00    -0.486 OA
ATOM     12  C   UNL     1       6.744   5.309  28.624  0.00  0.00    +0.162 A 
ATOM     13  C   UNL     1       7.166   6.474  29.269  0.00  0.00    +0.049 A 
ATOM     14  C   UNL     1       6.325   7.105  30.185  0.00  0.00    +0.004 A 
ATOM     15  C   UNL     1       5.067   6.568  30.463  0.00  0.00    +0.004 A 
ATOM     16  C   UNL     1       4.655   5.389  29.837  0.00  0.00    +0.049 A 
ATOM     17  C   UNL     1       5.506   4.741  28.938  0.00  0.00    +0.162 A 
ATOM     18  O   UNL     1       5.119   3.603  28.285  0.00  0.00    -0.486 OA
ATOM     19  C   UNL     1       4.763   2.531  29.172  0.00  0.00    +0.257 C 
ATOM     20  C   UNL     1       5.656   1.324  28.891  0.00  0.00    +0.201 C 
ATOM     21  O   UNL     1       5.244   0.673  27.684  0.00  0.00    -0.373 OA
ATOM     22  C   UNL     1       6.176  -0.350  27.309  0.00  0.00    +0.201 C 
ATOM     23  C   UNL     1       5.674  -1.099  26.074  0.00  0.00    +0.257 C 
ATOM     24  C   UNL     1       8.899  -1.029  22.904  0.00  0.00    +0.051 A 
ATOM     25  O   UNL     1       5.904  -0.324  24.884  0.00  0.00    -0.486 OA
ATOM     26  C   UNL     1       8.526  -2.222  22.283  0.00  0.00    +0.027 A 
ENDROOT
BRANCH   1  29
ATOM     27  C   UNL     1       6.687  -6.360  21.437  0.00  0.00    +0.109 C 
ATOM     28  C   UNL     1       7.199  -5.277  22.345  0.00  0.00    +0.214 C 
ATOM     29  N   UNL     1       6.858  -4.003  21.918  0.00  0.00    -0.286 N 
ATOM     30  H   UNL     1       6.175  -3.932  21.175  0.00  0.00    +0.155 HD
ATOM     31  O   UNL     1       7.854  -5.563  23.341  0.00  0.00    -0.276 OA
ENDBRANCH   1  29
TORSDOF 1
ENDMDL
