MODEL 1
REMARK VINA RESULT:      -6.5      0.000      0.000
REMARK  Name = 
REMARK  5 active torsions:
REMARK  status: ('A' for Active; 'I' for Inactive)
REMARK    1  A    between atoms: C_1  and  C_2
REMARK    2  A    between atoms: C_2  and  O_4
REMARK    3  A    between atoms: C_2  and  C_5
REMARK    4  A    between atoms: C_5  and  O_7
REMARK    5  A    between atoms: C_5  and  C_8
REMARK                            x       y       z     vdW  Elec       q    Type
REMARK                         _______ _______ _______ _____ _____    ______ ____
ROOT
ATOM      1  C   UNL     1       8.852  -0.055  22.549  0.00  0.00    +0.177 C 
ATOM      2  N   UNL     1       8.024  -0.624  23.780  0.00  0.00    -0.261 NA
ATOM      3  C   UNL     1       8.301  -1.858  24.194  0.00  0.00    +0.231 C 
ATOM      4  C   UNL     1       9.519  -2.553  23.753  0.00  0.00    +0.350 C 
ATOM      5  N   UNL     1       9.948  -3.652  24.188  0.00  0.00    +0.026 NA
ATOM      6  C   UNL     1       9.318  -4.266  25.203  0.00  0.00    +0.450 C 
ATOM      7  N   UNL     1       8.162  -3.926  25.668  0.00  0.00    +0.011 NA
ATOM      8  N   UNL     1      10.139  -5.236  25.662  0.00  0.00    -0.241 N 
ATOM      9  H   UNL     1       9.725  -6.139  25.804  0.00  0.00    +0.242 HD
ATOM     10  H   UNL     1      10.929  -5.293  25.016  0.00  0.00    +0.242 HD
ATOM     11  N   UNL     1      10.311  -1.899  22.848  0.00  0.00    -0.229 N 
ATOM     12  H   UNL     1      10.681  -1.182  23.464  0.00  0.00    +0.291 HD
ATOM     13  C   UNL     1       7.511  -2.787  25.170  0.00  0.00    +0.367 C 
ATOM     14  O   UNL     1       6.361  -2.509  25.462  0.00  0.00    -0.246 OA
ATOM     15  C   UNL     1       9.494  -1.262  21.824  0.00  0.00    +0.252 C 
ENDROOT
BRANCH   1  16
ATOM     16  C   UNL     1      10.088   0.939  22.778  0.00  0.00    +0.171 C 
BRANCH  16  18
ATOM     17  C   UNL     1       9.280   2.618  24.425  0.00  0.00    +0.040 C 
ATOM     18  C   UNL     1      10.406   1.687  24.067  0.00  0.00    +0.142 C 
BRANCH  18  19
ATOM     19  O   UNL     1      10.515   0.647  25.082  0.00  0.00    -0.389 OA
ATOM     20  H   UNL     1      11.007  -0.109  24.716  0.00  0.00    +0.210 HD
ENDBRANCH  18  19
ENDBRANCH  16  18
BRANCH  16  21
ATOM     21  O   UNL     1      10.078   1.960  21.740  0.00  0.00    -0.387 OA
ATOM     22  H   UNL     1       9.132   2.202  21.627  0.00  0.00    +0.210 HD
ENDBRANCH  16  21
ENDBRANCH   1  16
TORSDOF 4
ENDMDL
MODEL 2
REMARK VINA RESULT:      -6.0      1.606      1.733
REMARK  Name = 
REMARK  5 active torsions:
REMARK  status: ('A' for Active; 'I' for Inactive)
REMARK    1  A    between atoms: C_1  and  C_2
REMARK    2  A    between atoms: C_2  and  O_4
REMARK    3  A    between atoms: C_2  and  C_5
REMARK    4  A    between atoms: C_5  and  O_7
REMARK    5  A    between atoms: C_5  and  C_8
REMARK                            x       y       z     vdW  Elec       q    Type
REMARK                         _______ _______ _______ _____ _____    ______ ____
ROOT
ATOM      1  C   UNL     1       8.671  -0.589  22.460  0.00  0.00    +0.177 C 
ATOM      2  N   UNL     1       7.622  -1.766  22.652  0.00  0.00    -0.261 NA
ATOM      3  C   UNL     1       8.061  -2.906  23.180  0.00  0.00    +0.231 C 
ATOM      4  C   UNL     1       9.369  -2.982  23.847  0.00  0.00    +0.350 C 
ATOM      5  N   UNL     1       9.816  -3.959  24.499  0.00  0.00    +0.026 NA
ATOM      6  C   UNL     1       9.047  -5.041  24.703  0.00  0.00    +0.450 C 
ATOM      7  N   UNL     1       7.921  -5.268  24.112  0.00  0.00    +0.011 NA
ATOM      8  N   UNL     1       9.640  -5.784  25.662  0.00  0.00    -0.241 N 
ATOM      9  H   UNL     1       9.725  -6.767  25.476  0.00  0.00    +0.242 HD
ATOM     10  H   UNL     1      10.554  -5.367  25.846  0.00  0.00    +0.242 HD
ATOM     11  N   UNL     1      10.135  -1.848  23.836  0.00  0.00    -0.229 N 
ATOM     12  H   UNL     1       9.590  -1.292  24.489  0.00  0.00    +0.291 HD
ATOM     13  C   UNL     1       7.373  -4.307  23.249  0.00  0.00    +0.367 C 
ATOM     14  O   UNL     1       6.398  -4.530  22.554  0.00  0.00    -0.246 OA
ATOM     15  C   UNL     1      10.086  -1.213  22.526  0.00  0.00    +0.252 C 
ENDROOT
BRANCH   1  16
ATOM     16  C   UNL     1       8.752   0.621  23.510  0.00  0.00    +0.171 C 
BRANCH  16  18
ATOM     17  C   UNL     1       9.704   2.876  23.949  0.00  0.00    +0.040 C 
ATOM     18  C   UNL     1      10.007   1.404  23.873  0.00  0.00    +0.142 C 
BRANCH  18  19
ATOM     19  O   UNL     1      10.378   0.917  25.195  0.00  0.00    -0.389 OA
ATOM     20  H   UNL     1      11.219   1.326  25.465  0.00  0.00    +0.210 HD
ENDBRANCH  18  19
ENDBRANCH  16  18
BRANCH  16  21
ATOM     21  O   UNL     1       8.194   0.187  24.782  0.00  0.00    -0.387 OA
ATOM     22  H   UNL     1       8.290  -0.792  24.785  0.00  0.00    +0.210 HD
ENDBRANCH  16  21
ENDBRANCH   1  16
TORSDOF 4
ENDMDL
MODEL 3
REMARK VINA RESULT:      -5.8      3.728      6.535
REMARK  Name = 
REMARK  5 active torsions:
REMARK  status: ('A' for Active; 'I' for Inactive)
REMARK    1  A    between atoms: C_1  and  C_2
REMARK    2  A    between atoms: C_2  and  O_4
REMARK    3  A    between atoms: C_2  and  C_5
REMARK    4  A    between atoms: C_5  and  O_7
REMARK    5  A    between atoms: C_5  and  C_8
REMARK                            x       y       z     vdW  Elec       q    Type
REMARK                         _______ _______ _______ _____ _____    ______ ____
ROOT
ATOM      1  C   UNL     1       4.649  -4.184  23.618  0.00  0.00    +0.177 C 
ATOM      2  N   UNL     1       6.012  -3.589  23.062  0.00  0.00    -0.261 NA
ATOM      3  C   UNL     1       7.119  -3.814  23.766  0.00  0.00    +0.231 C 
ATOM      4  C   UNL     1       7.148  -4.823  24.835  0.00  0.00    +0.350 C 
ATOM      5  N   UNL     1       8.165  -5.215  25.461  0.00  0.00    +0.026 NA
ATOM      6  C   UNL     1       9.382  -4.760  25.121  0.00  0.00    +0.450 C 
ATOM      7  N   UNL     1       9.602  -3.777  24.311  0.00  0.00    +0.011 NA
ATOM      8  N   UNL     1      10.294  -5.550  25.726  0.00  0.00    -0.241 N 
ATOM      9  H   UNL     1      11.042  -5.082  26.205  0.00  0.00    +0.242 HD
ATOM     10  H   UNL     1       9.785  -6.169  26.361  0.00  0.00    +0.242 HD
ATOM     11  N   UNL     1       5.971  -5.464  25.114  0.00  0.00    -0.229 N 
ATOM     12  H   UNL     1       5.910  -6.036  24.277  0.00  0.00    +0.291 HD
ATOM     13  C   UNL     1       8.532  -3.161  23.646  0.00  0.00    +0.367 C 
ATOM     14  O   UNL     1       8.666  -2.140  22.994  0.00  0.00    -0.246 OA
ATOM     15  C   UNL     1       4.864  -4.516  25.115  0.00  0.00    +0.252 C 
ENDROOT
BRANCH   1  16
ATOM     16  C   UNL     1       4.038  -5.542  23.022  0.00  0.00    +0.171 C 
BRANCH  16  18
ATOM     17  C   UNL     1       1.961  -6.902  22.902  0.00  0.00    +0.040 C 
ATOM     18  C   UNL     1       3.130  -6.514  23.764  0.00  0.00    +0.142 C 
BRANCH  18  19
ATOM     19  O   UNL     1       3.962  -7.685  24.010  0.00  0.00    -0.389 OA
ATOM     20  H   UNL     1       3.462  -8.330  24.538  0.00  0.00    +0.210 HD
ENDBRANCH  18  19
ENDBRANCH  16  18
BRANCH  16  21
ATOM     21  O   UNL     1       5.121  -6.360  22.496  0.00  0.00    -0.387 OA
ATOM     22  H   UNL     1       5.649  -5.756  21.928  0.00  0.00    +0.210 HD
ENDBRANCH  16  21
ENDBRANCH   1  16
TORSDOF 4
ENDMDL
MODEL 4
REMARK VINA RESULT:      -5.7      2.273      3.151
REMARK  Name = 
REMARK  5 active torsions:
REMARK  status: ('A' for Active; 'I' for Inactive)
REMARK    1  A    between atoms: C_1  and  C_2
REMARK    2  A    between atoms: C_2  and  O_4
REMARK    3  A    between atoms: C_2  and  C_5
REMARK    4  A    between atoms: C_5  and  O_7
REMARK    5  A    between atoms: C_5  and  C_8
REMARK                            x       y       z     vdW  Elec       q    Type
REMARK                         _______ _______ _______ _____ _____    ______ ____
ROOT
ATOM      1  C   UNL     1       9.823  -1.066  23.944  0.00  0.00    +0.177 C 
ATOM      2  N   UNL     1       9.843  -2.653  23.879  0.00  0.00    -0.261 NA
ATOM      3  C   UNL     1       8.672  -3.286  23.849  0.00  0.00    +0.231 C 
ATOM      4  C   UNL     1       7.423  -2.561  23.571  0.00  0.00    +0.350 C 
ATOM      5  N   UNL     1       6.292  -3.074  23.379  0.00  0.00    +0.026 NA
ATOM      6  C   UNL     1       6.156  -4.410  23.341  0.00  0.00    +0.450 C 
ATOM      7  N   UNL     1       7.071  -5.255  23.685  0.00  0.00    +0.011 NA
ATOM      8  N   UNL     1       4.936  -4.679  22.828  0.00  0.00    -0.241 N 
ATOM      9  H   UNL     1       4.385  -5.356  23.323  0.00  0.00    +0.242 HD
ATOM     10  H   UNL     1       4.439  -3.790  22.749  0.00  0.00    +0.242 HD
ATOM     11  N   UNL     1       7.516  -1.204  23.416  0.00  0.00    -0.229 N 
ATOM     12  H   UNL     1       7.982  -1.189  22.513  0.00  0.00    +0.291 HD
ATOM     13  C   UNL     1       8.347  -4.800  24.052  0.00  0.00    +0.367 C 
ATOM     14  O   UNL     1       9.193  -5.535  24.528  0.00  0.00    -0.246 OA
ATOM     15  C   UNL     1       8.412  -0.638  24.415  0.00  0.00    +0.252 C 
ENDROOT
BRANCH   1  16
ATOM     16  C   UNL     1      10.056  -0.185  22.625  0.00  0.00    +0.171 C 
BRANCH  16  18
ATOM     17  C   UNL     1      10.352   2.280  22.488  0.00  0.00    +0.040 C 
ATOM     18  C   UNL     1       9.382   1.144  22.309  0.00  0.00    +0.142 C 
BRANCH  18  19
ATOM     19  O   UNL     1       9.006   1.044  20.905  0.00  0.00    -0.389 OA
ATOM     20  H   UNL     1       8.040   1.129  20.823  0.00  0.00    +0.210 HD
ENDBRANCH  18  19
ENDBRANCH  16  18
BRANCH  16  21
ATOM     21  O   UNL     1       9.827  -1.015  21.451  0.00  0.00    -0.387 OA
ATOM     22  H   UNL     1       9.459  -0.407  20.773  0.00  0.00    +0.210 HD
ENDBRANCH  16  21
ENDBRANCH   1  16
TORSDOF 4
ENDMDL
MODEL 5
REMARK VINA RESULT:      -5.6      3.212      4.933
REMARK  Name = 
REMARK  5 active torsions:
REMARK  status: ('A' for Active; 'I' for Inactive)
REMARK    1  A    between atoms: C_1  and  C_2
REMARK    2  A    between atoms: C_2  and  O_4
REMARK    3  A    between atoms: C_2  and  C_5
REMARK    4  A    between atoms: C_5  and  O_7
REMARK    5  A    between atoms: C_5  and  C_8
REMARK                            x       y       z     vdW  Elec       q    Type
REMARK                         _______ _______ _______ _____ _____    ______ ____
ROOT
ATOM      1  C   UNL     1       8.287  -4.778  24.045  0.00  0.00    +0.177 C 
ATOM      2  N   UNL     1       6.793  -5.232  24.335  0.00  0.00    -0.261 NA
ATOM      3  C   UNL     1       6.504  -5.660  25.562  0.00  0.00    +0.231 C 
ATOM      4  C   UNL     1       7.427  -5.432  26.684  0.00  0.00    +0.350 C 
ATOM      5  N   UNL     1       7.194  -5.663  27.898  0.00  0.00    +0.026 NA
ATOM      6  C   UNL     1       5.981  -6.092  28.281  0.00  0.00    +0.450 C 
ATOM      7  N   UNL     1       5.051  -6.491  27.476  0.00  0.00    +0.011 NA
ATOM      8  N   UNL     1       5.911  -5.967  29.624  0.00  0.00    -0.241 N 
ATOM      9  H   UNL     1       5.561  -6.761  30.128  0.00  0.00    +0.242 HD
ATOM     10  H   UNL     1       6.845  -5.709  29.951  0.00  0.00    +0.242 HD
ATOM     11  N   UNL     1       8.619  -4.826  26.392  0.00  0.00    -0.229 N 
ATOM     12  H   UNL     1       8.269  -3.891  26.205  0.00  0.00    +0.291 HD
ATOM     13  C   UNL     1       5.240  -6.410  26.089  0.00  0.00    +0.367 C 
ATOM     14  O   UNL     1       4.465  -6.909  25.292  0.00  0.00    -0.246 OA
ATOM     15  C   UNL     1       9.179  -5.371  25.162  0.00  0.00    +0.252 C 
ENDROOT
BRANCH   1  16
ATOM     16  C   UNL     1       8.689  -3.226  24.036  0.00  0.00    +0.171 C 
BRANCH  16  18
ATOM     17  C   UNL     1       9.303  -1.698  22.173  0.00  0.00    +0.040 C 
ATOM     18  C   UNL     1       8.182  -2.178  23.054  0.00  0.00    +0.142 C 
BRANCH  18  19
ATOM     19  O   UNL     1       7.194  -2.878  22.243  0.00  0.00    -0.389 OA
ATOM     20  H   UNL     1       6.301  -2.619  22.529  0.00  0.00    +0.210 HD
ENDBRANCH  18  19
ENDBRANCH  16  18
BRANCH  16  21
ATOM     21  O   UNL     1      10.139  -3.109  24.001  0.00  0.00    -0.387 OA
ATOM     22  H   UNL     1      10.373  -3.079  23.047  0.00  0.00    +0.210 HD
ENDBRANCH  16  21
ENDBRANCH   1  16
TORSDOF 4
ENDMDL
MODEL 6
REMARK VINA RESULT:      -5.5      2.930      5.695
REMARK  Name = 
REMARK  5 active torsions:
REMARK  status: ('A' for Active; 'I' for Inactive)
REMARK    1  A    between atoms: C_1  and  C_2
REMARK    2  A    between atoms: C_2  and  O_4
REMARK    3  A    between atoms: C_2  and  C_5
REMARK    4  A    between atoms: C_5  and  O_7
REMARK    5  A    between atoms: C_5  and  C_8
REMARK                            x       y       z     vdW  Elec       q    Type
REMARK                         _______ _______ _______ _____ _____    ______ ____
ROOT
ATOM      1  C   UNL     1       7.189  -2.774  23.589  0.00  0.00    +0.177 C 
ATOM      2  N   UNL     1       6.537  -1.364  23.258  0.00  0.00    -0.261 NA
ATOM      3  C   UNL     1       7.357  -0.335  23.058  0.00  0.00    +0.231 C 
ATOM      4  C   UNL     1       8.796  -0.540  22.838  0.00  0.00    +0.350 C 
ATOM      5  N   UNL     1       9.630   0.338  22.501  0.00  0.00    +0.026 NA
ATOM      6  C   UNL     1       9.221   1.588  22.230  0.00  0.00    +0.450 C 
ATOM      7  N   UNL     1       8.038   2.046  22.477  0.00  0.00    +0.011 NA
ATOM      8  N   UNL     1      10.239   2.224  21.614  0.00  0.00    -0.241 N 
ATOM      9  H   UNL     1      10.465   3.140  21.957  0.00  0.00    +0.242 HD
ATOM     10  H   UNL     1      11.053   1.607  21.659  0.00  0.00    +0.242 HD
ATOM     11  N   UNL     1       9.257  -1.826  22.919  0.00  0.00    -0.229 N 
ATOM     12  H   UNL     1       8.853  -2.184  22.059  0.00  0.00    +0.291 HD
ATOM     13  C   UNL     1       7.045   1.194  22.985  0.00  0.00    +0.367 C 
ATOM     14  O   UNL     1       5.966   1.604  23.376  0.00  0.00    -0.246 OA
ATOM     15  C   UNL     1       8.645  -2.516  24.047  0.00  0.00    +0.252 C 
ENDROOT
BRANCH   1  16
ATOM     16  C   UNL     1       7.352  -3.892  22.452  0.00  0.00    +0.171 C 
BRANCH  16  18
ATOM     17  C   UNL     1       6.143  -5.999  21.920  0.00  0.00    +0.040 C 
ATOM     18  C   UNL     1       6.221  -4.521  21.649  0.00  0.00    +0.142 C 
BRANCH  18  19
ATOM     19  O   UNL     1       5.012  -3.873  22.142  0.00  0.00    -0.389 OA
ATOM     20  H   UNL     1       4.253  -4.469  22.018  0.00  0.00    +0.210 HD
ENDBRANCH  18  19
ENDBRANCH  16  18
BRANCH  16  21
ATOM     21  O   UNL     1       8.104  -5.016  22.992  0.00  0.00    -0.387 OA
ATOM     22  H   UNL     1       7.428  -5.691  23.222  0.00  0.00    +0.210 HD
ENDBRANCH  16  21
ENDBRANCH   1  16
TORSDOF 4
ENDMDL
MODEL 7
REMARK VINA RESULT:      -5.5      3.890      6.606
REMARK  Name = 
REMARK  5 active torsions:
REMARK  status: ('A' for Active; 'I' for Inactive)
REMARK    1  A    between atoms: C_1  and  C_2
REMARK    2  A    between atoms: C_2  and  O_4
REMARK    3  A    between atoms: C_2  and  C_5
REMARK    4  A    between atoms: C_5  and  O_7
REMARK    5  A    between atoms: C_5  and  C_8
REMARK                            x       y       z     vdW  Elec       q    Type
REMARK                         _______ _______ _______ _____ _____    ______ ____
ROOT
ATOM      1  C   UNL     1       8.427   1.629  23.707  0.00  0.00    +0.177 C 
ATOM      2  N   UNL     1       8.271   3.200  23.539  0.00  0.00    -0.261 NA
ATOM      3  C   UNL     1       9.371   3.944  23.624  0.00  0.00    +0.231 C 
ATOM      4  C   UNL     1      10.708   3.335  23.561  0.00  0.00    +0.350 C 
ATOM      5  N   UNL     1      11.803   3.948  23.487  0.00  0.00    +0.026 NA
ATOM      6  C   UNL     1      11.819   5.287  23.382  0.00  0.00    +0.450 C 
ATOM      7  N   UNL     1      10.791   6.052  23.548  0.00  0.00    +0.011 NA
ATOM      8  N   UNL     1      13.068   5.650  23.019  0.00  0.00    -0.241 N 
ATOM      9  H   UNL     1      13.482   6.403  23.538  0.00  0.00    +0.242 HD
ATOM     10  H   UNL     1      13.651   4.811  23.064  0.00  0.00    +0.242 HD
ATOM     11  N   UNL     1      10.762   1.969  23.481  0.00  0.00    -0.229 N 
ATOM     12  H   UNL     1      10.429   1.862  22.528  0.00  0.00    +0.291 HD
ATOM     13  C   UNL     1       9.525   5.491  23.772  0.00  0.00    +0.367 C 
ATOM     14  O   UNL     1       8.557   6.162  24.084  0.00  0.00    -0.246 OA
ATOM     15  C   UNL     1       9.793   1.368  24.387  0.00  0.00    +0.252 C 
ENDROOT
BRANCH   1  16
ATOM     16  C   UNL     1       8.460   0.663  22.428  0.00  0.00    +0.171 C 
BRANCH  16  18
ATOM     17  C   UNL     1       8.067  -1.792  22.428  0.00  0.00    +0.040 C 
ATOM     18  C   UNL     1       9.112  -0.712  22.364  0.00  0.00    +0.142 C 
BRANCH  18  19
ATOM     19  O   UNL     1       9.770  -0.750  21.065  0.00  0.00    -0.389 OA
ATOM     20  H   UNL     1       9.285  -0.183  20.441  0.00  0.00    +0.210 HD
ENDBRANCH  18  19
ENDBRANCH  16  18
BRANCH  16  21
ATOM     21  O   UNL     1       9.005   1.394  21.293  0.00  0.00    -0.387 OA
ATOM     22  H   UNL     1       8.627   2.299  21.364  0.00  0.00    +0.210 HD
ENDBRANCH  16  21
ENDBRANCH   1  16
TORSDOF 4
ENDMDL
MODEL 8
REMARK VINA RESULT:      -5.5      2.100      3.225
REMARK  Name = 
REMARK  5 active torsions:
REMARK  status: ('A' for Active; 'I' for Inactive)
REMARK    1  A    between atoms: C_1  and  C_2
REMARK    2  A    between atoms: C_2  and  O_4
REMARK    3  A    between atoms: C_2  and  C_5
REMARK    4  A    between atoms: C_5  and  O_7
REMARK    5  A    between atoms: C_5  and  C_8
REMARK                            x       y       z     vdW  Elec       q    Type
REMARK                         _______ _______ _______ _____ _____    ______ ____
ROOT
ATOM      1  C   UNL     1       9.698  -1.254  24.200  0.00  0.00    +0.177 C 
ATOM      2  N   UNL     1       9.682  -2.840  24.135  0.00  0.00    -0.261 NA
ATOM      3  C   UNL     1       9.000  -3.491  25.075  0.00  0.00    +0.231 C 
ATOM      4  C   UNL     1       8.048  -2.789  25.948  0.00  0.00    +0.350 C 
ATOM      5  N   UNL     1       7.253  -3.321  26.763  0.00  0.00    +0.026 NA
ATOM      6  C   UNL     1       7.166  -4.659  26.843  0.00  0.00    +0.450 C 
ATOM      7  N   UNL     1       7.985  -5.486  26.282  0.00  0.00    +0.011 NA
ATOM      8  N   UNL     1       6.054  -4.952  27.551  0.00  0.00    -0.241 N 
ATOM      9  H   UNL     1       6.157  -5.633  28.281  0.00  0.00    +0.242 HD
ATOM     10  H   UNL     1       5.691  -4.071  27.921  0.00  0.00    +0.242 HD
ATOM     11  N   UNL     1       7.951  -1.432  25.792  0.00  0.00    -0.229 N 
ATOM     12  H   UNL     1       7.475  -1.418  24.895  0.00  0.00    +0.291 HD
ATOM     13  C   UNL     1       9.007  -5.008  25.447  0.00  0.00    +0.367 C 
ATOM     14  O   UNL     1       9.892  -5.726  25.018  0.00  0.00    -0.246 OA
ATOM     15  C   UNL     1       9.273  -0.843  25.631  0.00  0.00    +0.252 C 
ENDROOT
BRANCH   1  16
ATOM     16  C   UNL     1       8.733  -0.381  23.263  0.00  0.00    +0.171 C 
BRANCH  16  18
ATOM     17  C   UNL     1       9.790   1.319  21.789  0.00  0.00    +0.040 C 
ATOM     18  C   UNL     1       9.018   0.029  21.824  0.00  0.00    +0.142 C 
BRANCH  18  19
ATOM     19  O   UNL     1       9.844  -1.045  21.289  0.00  0.00    -0.389 OA
ATOM     20  H   UNL     1       9.888  -0.966  20.320  0.00  0.00    +0.210 HD
ENDBRANCH  18  19
ENDBRANCH  16  18
BRANCH  16  21
ATOM     21  O   UNL     1       8.392   0.855  23.950  0.00  0.00    -0.387 OA
ATOM     22  H   UNL     1       7.949   0.575  24.782  0.00  0.00    +0.210 HD
ENDBRANCH  16  21
ENDBRANCH   1  16
TORSDOF 4
ENDMDL
MODEL 9
REMARK VINA RESULT:      -5.5      3.656      6.603
REMARK  Name = 
REMARK  5 active torsions:
REMARK  status: ('A' for Active; 'I' for Inactive)
REMARK    1  A    between atoms: C_1  and  C_2
REMARK    2  A    between atoms: C_2  and  O_4
REMARK    3  A    between atoms: C_2  and  C_5
REMARK    4  A    between atoms: C_5  and  O_7
REMARK    5  A    between atoms: C_5  and  C_8
REMARK                            x       y       z     vdW  Elec       q    Type
REMARK                         _______ _______ _______ _____ _____    ______ ____
ROOT
ATOM      1  C   UNL     1       6.400  -5.718  22.779  0.00  0.00    +0.177 C 
ATOM      2  N   UNL     1       7.595  -5.063  23.595  0.00  0.00    -0.261 NA
ATOM      3  C   UNL     1       7.839  -3.769  23.402  0.00  0.00    +0.231 C 
ATOM      4  C   UNL     1       6.867  -2.905  22.717  0.00  0.00    +0.350 C 
ATOM      5  N   UNL     1       6.929  -1.654  22.609  0.00  0.00    +0.026 NA
ATOM      6  C   UNL     1       7.915  -0.974  23.216  0.00  0.00    +0.450 C 
ATOM      7  N   UNL     1       8.956  -1.513  23.761  0.00  0.00    +0.011 NA
ATOM      8  N   UNL     1       7.578   0.333  23.196  0.00  0.00    -0.241 N 
ATOM      9  H   UNL     1       8.292   0.973  22.900  0.00  0.00    +0.242 HD
ATOM     10  H   UNL     1       6.744   0.421  22.612  0.00  0.00    +0.242 HD
ATOM     11  N   UNL     1       5.740  -3.509  22.228  0.00  0.00    -0.229 N 
ATOM     12  H   UNL     1       5.276  -3.698  23.112  0.00  0.00    +0.291 HD
ATOM     13  C   UNL     1       9.072  -2.909  23.828  0.00  0.00    +0.367 C 
ATOM     14  O   UNL     1      10.093  -3.466  24.191  0.00  0.00    -0.246 OA
ATOM     15  C   UNL     1       6.075  -4.776  21.594  0.00  0.00    +0.252 C 
ENDROOT
BRANCH   1  16
ATOM     16  C   UNL     1       4.970  -5.958  23.463  0.00  0.00    +0.171 C 
BRANCH  16  18
ATOM     17  C   UNL     1       4.202  -6.356  25.794  0.00  0.00    +0.040 C 
ATOM     18  C   UNL     1       4.649  -7.011  24.516  0.00  0.00    +0.142 C 
BRANCH  18  19
ATOM     19  O   UNL     1       3.545  -7.776  23.951  0.00  0.00    -0.389 OA
ATOM     20  H   UNL     1       2.702  -7.366  24.212  0.00  0.00    +0.210 HD
ENDBRANCH  18  19
ENDBRANCH  16  18
BRANCH  16  21
ATOM     21  O   UNL     1       3.969  -6.144  22.423  0.00  0.00    -0.387 OA
ATOM     22  H   UNL     1       3.131  -5.804  22.808  0.00  0.00    +0.210 HD
ENDBRANCH  16  21
ENDBRANCH   1  16
TORSDOF 4
ENDMDL
