MODEL 1
REMARK VINA RESULT:      -7.0      0.000      0.000
REMARK  Name = 
REMARK  8 active torsions:
REMARK  status: ('A' for Active; 'I' for Inactive)
REMARK    1  A    between atoms: C_1  and  C_2
REMARK    2  A    between atoms: C_2  and  C_3
REMARK    3  A    between atoms: C_2  and  O_4
REMARK    4  A    between atoms: C_2  and  C_23
REMARK    5  A    between atoms: O_4  and  C_5
REMARK    6  A    between atoms: C_8  and  N_9
REMARK    7  A    between atoms: N_12  and  C_13
REMARK    8  A    between atoms: C_23  and  O_24
REMARK                            x       y       z     vdW  Elec       q    Type
REMARK                         _______ _______ _______ _____ _____    ______ ____
ROOT
ATOM      1  C   UNL     1      10.208   2.160  23.131  0.00  0.00    +0.122 A 
ATOM      2  C   UNL     1      10.711   1.452  24.219  0.00  0.00    +0.047 A 
ATOM      3  C   UNL     1      10.514   0.071  24.326  0.00  0.00    +0.027 A 
ATOM      4  C   UNL     1       9.882  -0.635  23.302  0.00  0.00    +0.035 A 
ATOM      5  C   UNL     1       9.472   0.065  22.166  0.00  0.00    +0.027 A 
ATOM      6  C   UNL     1       9.634   1.452  22.080  0.00  0.00    +0.047 A 
ENDROOT
BRANCH   4   7
ATOM      7  N   UNL     1       9.704  -2.025  23.480  0.00  0.00    -0.269 N 
ATOM      8  H   UNL     1      10.396  -2.633  23.068  0.00  0.00    +0.156 HD
ATOM      9  C   UNL     1       8.651  -2.619  24.146  0.00  0.00    +0.308 C 
ATOM     10  N   UNL     1       8.713  -4.007  24.092  0.00  0.00    -0.269 N 
ATOM     11  H   UNL     1       9.158  -4.380  23.265  0.00  0.00    +0.156 HD
ATOM     12  O   UNL     1       7.725  -2.014  24.674  0.00  0.00    -0.252 OA
BRANCH  10  13
ATOM     13  C   UNL     1       7.653  -4.771  24.636  0.00  0.00    +0.038 A 
ATOM     14  C   UNL     1       7.598  -5.069  26.004  0.00  0.00    +0.043 A 
ATOM     15  C   UNL     1       6.476  -5.700  26.536  0.00  0.00    +0.044 A 
ATOM     16 CL   UNL     1       6.406  -6.040  28.221  0.00  0.00    -0.083 Cl
ATOM     17  C   UNL     1       5.404  -6.037  25.716  0.00  0.00    +0.040 A 
ATOM     18  C   UNL     1       5.481  -5.772  24.351  0.00  0.00    +0.044 A 
ATOM     19 CL   UNL     1       4.141  -6.143  23.336  0.00  0.00    -0.083 Cl
ATOM     20  C   UNL     1       6.612  -5.169  23.799  0.00  0.00    +0.043 A 
ENDBRANCH  10  13
ENDBRANCH   4   7
BRANCH   1  21
ATOM     21  O   UNL     1      10.231   3.518  22.992  0.00  0.00    -0.475 OA
BRANCH  21  23
ATOM     22  C   UNL     1       8.572   3.617  24.886  0.00  0.00    +0.067 C 
ATOM     23  C   UNL     1       9.295   4.337  23.737  0.00  0.00    +0.200 C 
ATOM     24  C   UNL     1       9.971   5.644  24.158  0.00  0.00    +0.067 C 
BRANCH  23  25
ATOM     25  C   UNL     1       8.187   4.738  22.735  0.00  0.00    +0.348 C 
ATOM     26  O   UNL     1       7.265   4.007  22.392  0.00  0.00    -0.247 OA
BRANCH  25  27
ATOM     27  O   UNL     1       8.316   6.002  22.261  0.00  0.00    -0.478 OA
ATOM     28  H   UNL     1       7.707   6.128  21.505  0.00  0.00    +0.295 HD
ENDBRANCH  25  27
ENDBRANCH  23  25
ENDBRANCH  21  23
ENDBRANCH   1  21
TORSDOF 6
ENDMDL
MODEL 2
REMARK VINA RESULT:      -6.9      4.762      9.419
REMARK  Name = 
REMARK  8 active torsions:
REMARK  status: ('A' for Active; 'I' for Inactive)
REMARK    1  A    between atoms: C_1  and  C_2
REMARK    2  A    between atoms: C_2  and  C_3
REMARK    3  A    between atoms: C_2  and  O_4
REMARK    4  A    between atoms: C_2  and  C_23
REMARK    5  A    between atoms: O_4  and  C_5
REMARK    6  A    between atoms: C_8  and  N_9
REMARK    7  A    between atoms: N_12  and  C_13
REMARK    8  A    between atoms: C_23  and  O_24
REMARK                            x       y       z     vdW  Elec       q    Type
REMARK                         _______ _______ _______ _____ _____    ______ ____
ROOT
ATOM      1  C   UNL     1       6.241  -3.035  22.801  0.00  0.00    +0.122 A 
ATOM      2  C   UNL     1       5.905  -2.063  23.739  0.00  0.00    +0.047 A 
ATOM      3  C   UNL     1       6.847  -1.114  24.154  0.00  0.00    +0.027 A 
ATOM      4  C   UNL     1       8.115  -1.074  23.573  0.00  0.00    +0.035 A 
ATOM      5  C   UNL     1       8.410  -1.987  22.559  0.00  0.00    +0.027 A 
ATOM      6  C   UNL     1       7.481  -2.961  22.175  0.00  0.00    +0.047 A 
ENDROOT
BRANCH   4   7
ATOM      7  N   UNL     1       9.021  -0.100  24.048  0.00  0.00    -0.269 N 
ATOM      8  H   UNL     1       9.609  -0.362  24.825  0.00  0.00    +0.156 HD
ATOM      9  C   UNL     1       9.148   1.183  23.556  0.00  0.00    +0.308 C 
ATOM     10  N   UNL     1      10.073   1.930  24.277  0.00  0.00    -0.269 N 
ATOM     11  H   UNL     1      10.162   1.673  25.250  0.00  0.00    +0.156 HD
ATOM     12  O   UNL     1       8.487   1.650  22.637  0.00  0.00    -0.252 OA
BRANCH  10  13
ATOM     13  C   UNL     1      10.249   3.301  23.970  0.00  0.00    +0.038 A 
ATOM     14  C   UNL     1       9.299   4.259  24.346  0.00  0.00    +0.043 A 
ATOM     15  C   UNL     1       9.562   5.614  24.156  0.00  0.00    +0.044 A 
ATOM     16 CL   UNL     1       8.400   6.785  24.644  0.00  0.00    -0.083 Cl
ATOM     17  C   UNL     1      10.765   6.025  23.593  0.00  0.00    +0.040 A 
ATOM     18  C   UNL     1      11.689   5.065  23.187  0.00  0.00    +0.044 A 
ATOM     19 CL   UNL     1      13.201   5.564  22.533  0.00  0.00    -0.083 Cl
ATOM     20  C   UNL     1      11.427   3.703  23.342  0.00  0.00    +0.043 A 
ENDBRANCH  10  13
ENDBRANCH   4   7
BRANCH   1  21
ATOM     21  O   UNL     1       5.446  -4.079  22.424  0.00  0.00    -0.475 OA
BRANCH  21  23
ATOM     22  C   UNL     1       6.486  -6.328  21.968  0.00  0.00    +0.067 C 
ATOM     23  C   UNL     1       5.714  -5.411  22.929  0.00  0.00    +0.200 C 
ATOM     24  C   UNL     1       6.335  -5.320  24.326  0.00  0.00    +0.067 C 
BRANCH  23  25
ATOM     25  C   UNL     1       4.333  -6.079  23.123  0.00  0.00    +0.348 C 
ATOM     26  O   UNL     1       3.266  -5.574  22.796  0.00  0.00    -0.247 OA
BRANCH  25  27
ATOM     27  O   UNL     1       4.400  -7.309  23.692  0.00  0.00    -0.478 OA
ATOM     28  H   UNL     1       3.891  -7.307  24.527  0.00  0.00    +0.295 HD
ENDBRANCH  25  27
ENDBRANCH  23  25
ENDBRANCH  21  23
ENDBRANCH   1  21
TORSDOF 6
ENDMDL
MODEL 3
REMARK VINA RESULT:      -6.9      4.346      9.140
REMARK  Name = 
REMARK  8 active torsions:
REMARK  status: ('A' for Active; 'I' for Inactive)
REMARK    1  A    between atoms: C_1  and  C_2
REMARK    2  A    between atoms: C_2  and  C_3
REMARK    3  A    between atoms: C_2  and  O_4
REMARK    4  A    between atoms: C_2  and  C_23
REMARK    5  A    between atoms: O_4  and  C_5
REMARK    6  A    between atoms: C_8  and  N_9
REMARK    7  A    between atoms: N_12  and  C_13
REMARK    8  A    between atoms: C_23  and  O_24
REMARK                            x       y       z     vdW  Elec       q    Type
REMARK                         _______ _______ _______ _____ _____    ______ ____
ROOT
ATOM      1  C   UNL     1       8.073  -4.155  23.971  0.00  0.00    +0.122 A 
ATOM      2  C   UNL     1       7.549  -3.489  22.867  0.00  0.00    +0.047 A 
ATOM      3  C   UNL     1       8.090  -2.269  22.444  0.00  0.00    +0.027 A 
ATOM      4  C   UNL     1       9.218  -1.740  23.073  0.00  0.00    +0.035 A 
ATOM      5  C   UNL     1       9.800  -2.465  24.114  0.00  0.00    +0.027 A 
ATOM      6  C   UNL     1       9.234  -3.664  24.561  0.00  0.00    +0.047 A 
ENDROOT
BRANCH   4   7
ATOM      7  N   UNL     1       9.704  -0.499  22.605  0.00  0.00    -0.269 N 
ATOM      8  H   UNL     1      10.307  -0.518  21.796  0.00  0.00    +0.156 HD
ATOM      9  C   UNL     1       9.445   0.730  23.178  0.00  0.00    +0.308 C 
ATOM     10  N   UNL     1      10.124   1.760  22.535  0.00  0.00    -0.269 N 
ATOM     11  H   UNL     1      11.002   1.493  22.114  0.00  0.00    +0.156 HD
ATOM     12  O   UNL     1       8.755   0.907  24.175  0.00  0.00    -0.252 OA
BRANCH  10  13
ATOM     13  C   UNL     1      10.051   3.072  23.061  0.00  0.00    +0.038 A 
ATOM     14  C   UNL     1      11.208   3.799  23.369  0.00  0.00    +0.043 A 
ATOM     15  C   UNL     1      11.112   5.135  23.751  0.00  0.00    +0.044 A 
ATOM     16 CL   UNL     1      12.540   6.027  24.103  0.00  0.00    -0.083 Cl
ATOM     17  C   UNL     1       9.870   5.757  23.829  0.00  0.00    +0.040 A 
ATOM     18  C   UNL     1       8.721   5.018  23.558  0.00  0.00    +0.044 A 
ATOM     19 CL   UNL     1       7.184   5.790  23.606  0.00  0.00    -0.083 Cl
ATOM     20  C   UNL     1       8.800   3.670  23.204  0.00  0.00    +0.043 A 
ENDBRANCH  10  13
ENDBRANCH   4   7
BRANCH   1  21
ATOM     21  O   UNL     1       7.545  -5.277  24.542  0.00  0.00    -0.475 OA
BRANCH  21  23
ATOM     22  C   UNL     1       5.932  -3.767  25.756  0.00  0.00    +0.067 C 
ATOM     23  C   UNL     1       6.321  -5.187  25.314  0.00  0.00    +0.200 C 
ATOM     24  C   UNL     1       5.198  -5.937  24.593  0.00  0.00    +0.067 C 
BRANCH  23  25
ATOM     25  C   UNL     1       6.582  -5.973  26.621  0.00  0.00    +0.348 C 
ATOM     26  O   UNL     1       5.744  -6.656  27.198  0.00  0.00    -0.247 OA
BRANCH  25  27
ATOM     27  O   UNL     1       7.851  -5.850  27.084  0.00  0.00    -0.478 OA
ATOM     28  H   UNL     1       8.074  -6.632  27.628  0.00  0.00    +0.295 HD
ENDBRANCH  25  27
ENDBRANCH  23  25
ENDBRANCH  21  23
ENDBRANCH   1  21
TORSDOF 6
ENDMDL
MODEL 4
REMARK VINA RESULT:      -6.6      4.480      9.261
REMARK  Name = 
REMARK  8 active torsions:
REMARK  status: ('A' for Active; 'I' for Inactive)
REMARK    1  A    between atoms: C_1  and  C_2
REMARK    2  A    between atoms: C_2  and  C_3
REMARK    3  A    between atoms: C_2  and  O_4
REMARK    4  A    between atoms: C_2  and  C_23
REMARK    5  A    between atoms: O_4  and  C_5
REMARK    6  A    between atoms: C_8  and  N_9
REMARK    7  A    between atoms: N_12  and  C_13
REMARK    8  A    between atoms: C_23  and  O_24
REMARK                            x       y       z     vdW  Elec       q    Type
REMARK                         _______ _______ _______ _____ _____    ______ ____
ROOT
ATOM      1  C   UNL     1       8.423  -2.955  23.842  0.00  0.00    +0.122 A 
ATOM      2  C   UNL     1       7.488  -2.182  23.159  0.00  0.00    +0.047 A 
ATOM      3  C   UNL     1       7.772  -0.858  22.810  0.00  0.00    +0.027 A 
ATOM      4  C   UNL     1       9.032  -0.314  23.065  0.00  0.00    +0.035 A 
ATOM      5  C   UNL     1      10.000  -1.127  23.657  0.00  0.00    +0.027 A 
ATOM      6  C   UNL     1       9.699  -2.438  24.043  0.00  0.00    +0.047 A 
ENDROOT
BRANCH   4   7
ATOM      7  N   UNL     1       9.248   1.033  22.699  0.00  0.00    -0.269 N 
ATOM      8  H   UNL     1       9.531   1.210  21.747  0.00  0.00    +0.156 HD
ATOM      9  C   UNL     1       9.130   2.121  23.540  0.00  0.00    +0.308 C 
ATOM     10  N   UNL     1       9.478   3.311  22.909  0.00  0.00    -0.269 N 
ATOM     11  H   UNL     1      10.169   3.218  22.178  0.00  0.00    +0.156 HD
ATOM     12  O   UNL     1       8.820   2.061  24.724  0.00  0.00    -0.252 OA
BRANCH  10  13
ATOM     13  C   UNL     1       9.512   4.510  23.660  0.00  0.00    +0.038 A 
ATOM     14  C   UNL     1       8.359   5.022  24.269  0.00  0.00    +0.043 A 
ATOM     15  C   UNL     1       8.447   6.123  25.116  0.00  0.00    +0.044 A 
ATOM     16 CL   UNL     1       7.030   6.729  25.880  0.00  0.00    -0.083 Cl
ATOM     17  C   UNL     1       9.678   6.723  25.364  0.00  0.00    +0.040 A 
ATOM     18  C   UNL     1      10.815   6.233  24.726  0.00  0.00    +0.044 A 
ATOM     19 CL   UNL     1      12.348   6.937  25.063  0.00  0.00    -0.083 Cl
ATOM     20  C   UNL     1      10.736   5.149  23.850  0.00  0.00    +0.043 A 
ENDBRANCH  10  13
ENDBRANCH   4   7
BRANCH   1  21
ATOM     21  O   UNL     1       8.203  -4.206  24.341  0.00  0.00    -0.475 OA
BRANCH  21  23
ATOM     22  C   UNL     1       7.123  -3.108  26.336  0.00  0.00    +0.067 C 
ATOM     23  C   UNL     1       7.361  -4.381  25.508  0.00  0.00    +0.200 C 
ATOM     24  C   UNL     1       6.073  -5.108  25.113  0.00  0.00    +0.067 C 
BRANCH  23  25
ATOM     25  C   UNL     1       8.123  -5.349  26.443  0.00  0.00    +0.348 C 
ATOM     26  O   UNL     1       7.681  -5.781  27.502  0.00  0.00    -0.247 OA
BRANCH  25  27
ATOM     27  O   UNL     1       9.348  -5.701  25.979  0.00  0.00    -0.478 OA
ATOM     28  H   UNL     1       9.327  -5.732  25.002  0.00  0.00    +0.295 HD
ENDBRANCH  25  27
ENDBRANCH  23  25
ENDBRANCH  21  23
ENDBRANCH   1  21
TORSDOF 6
ENDMDL
MODEL 5
REMARK VINA RESULT:      -6.5      0.994      2.283
REMARK  Name = 
REMARK  8 active torsions:
REMARK  status: ('A' for Active; 'I' for Inactive)
REMARK    1  A    between atoms: C_1  and  C_2
REMARK    2  A    between atoms: C_2  and  C_3
REMARK    3  A    between atoms: C_2  and  O_4
REMARK    4  A    between atoms: C_2  and  C_23
REMARK    5  A    between atoms: O_4  and  C_5
REMARK    6  A    between atoms: C_8  and  N_9
REMARK    7  A    between atoms: N_12  and  C_13
REMARK    8  A    between atoms: C_23  and  O_24
REMARK                            x       y       z     vdW  Elec       q    Type
REMARK                         _______ _______ _______ _____ _____    ______ ____
ROOT
ATOM      1  C   UNL     1       9.872   1.955  23.413  0.00  0.00    +0.122 A 
ATOM      2  C   UNL     1      10.458   1.292  24.486  0.00  0.00    +0.047 A 
ATOM      3  C   UNL     1      10.233  -0.075  24.691  0.00  0.00    +0.027 A 
ATOM      4  C   UNL     1       9.485  -0.814  23.774  0.00  0.00    +0.035 A 
ATOM      5  C   UNL     1       8.987  -0.163  22.644  0.00  0.00    +0.027 A 
ATOM      6  C   UNL     1       9.178   1.211  22.463  0.00  0.00    +0.047 A 
ENDROOT
BRANCH   4   7
ATOM      7  N   UNL     1       9.286  -2.185  24.048  0.00  0.00    -0.269 N 
ATOM      8  H   UNL     1       9.985  -2.828  23.705  0.00  0.00    +0.156 HD
ATOM      9  C   UNL     1       8.205  -2.719  24.721  0.00  0.00    +0.308 C 
ATOM     10  N   UNL     1       8.254  -4.108  24.770  0.00  0.00    -0.269 N 
ATOM     11  H   UNL     1       8.722  -4.545  23.989  0.00  0.00    +0.156 HD
ATOM     12  O   UNL     1       7.270  -2.069  25.172  0.00  0.00    -0.252 OA
BRANCH  10  13
ATOM     13  C   UNL     1       7.169  -4.820  25.335  0.00  0.00    +0.038 A 
ATOM     14  C   UNL     1       6.158  -5.364  24.531  0.00  0.00    +0.043 A 
ATOM     15  C   UNL     1       5.180  -6.178  25.096  0.00  0.00    +0.044 A 
ATOM     16 CL   UNL     1       3.957  -6.862  24.098  0.00  0.00    -0.083 Cl
ATOM     17  C   UNL     1       5.197  -6.457  26.459  0.00  0.00    +0.040 A 
ATOM     18  C   UNL     1       6.183  -5.882  27.258  0.00  0.00    +0.044 A 
ATOM     19 CL   UNL     1       6.242  -6.259  28.937  0.00  0.00    -0.083 Cl
ATOM     20  C   UNL     1       7.152  -5.040  26.711  0.00  0.00    +0.043 A 
ENDBRANCH  10  13
ENDBRANCH   4   7
BRANCH   1  21
ATOM     21  O   UNL     1       9.919   3.302  23.194  0.00  0.00    -0.475 OA
BRANCH  21  23
ATOM     22  C   UNL     1       7.737   4.492  22.778  0.00  0.00    +0.067 C 
ATOM     23  C   UNL     1       8.887   4.160  23.742  0.00  0.00    +0.200 C 
ATOM     24  C   UNL     1       8.419   3.610  25.092  0.00  0.00    +0.067 C 
BRANCH  23  25
ATOM     25  C   UNL     1       9.574   5.511  24.051  0.00  0.00    +0.348 C 
ATOM     26  O   UNL     1       9.582   6.048  25.152  0.00  0.00    -0.247 OA
BRANCH  25  27
ATOM     27  O   UNL     1      10.194   6.062  22.978  0.00  0.00    -0.478 OA
ATOM     28  H   UNL     1      10.044   5.499  22.192  0.00  0.00    +0.295 HD
ENDBRANCH  25  27
ENDBRANCH  23  25
ENDBRANCH  21  23
ENDBRANCH   1  21
TORSDOF 6
ENDMDL
MODEL 6
REMARK VINA RESULT:      -6.5      4.456      9.126
REMARK  Name = 
REMARK  8 active torsions:
REMARK  status: ('A' for Active; 'I' for Inactive)
REMARK    1  A    between atoms: C_1  and  C_2
REMARK    2  A    between atoms: C_2  and  C_3
REMARK    3  A    between atoms: C_2  and  O_4
REMARK    4  A    between atoms: C_2  and  C_23
REMARK    5  A    between atoms: O_4  and  C_5
REMARK    6  A    between atoms: C_8  and  N_9
REMARK    7  A    between atoms: N_12  and  C_13
REMARK    8  A    between atoms: C_23  and  O_24
REMARK                            x       y       z     vdW  Elec       q    Type
REMARK                         _______ _______ _______ _____ _____    ______ ____
ROOT
ATOM      1  C   UNL     1       9.521  -2.389  23.589  0.00  0.00    +0.122 A 
ATOM      2  C   UNL     1       9.092  -1.960  22.335  0.00  0.00    +0.047 A 
ATOM      3  C   UNL     1       9.018  -0.596  22.033  0.00  0.00    +0.027 A 
ATOM      4  C   UNL     1       9.453   0.358  22.955  0.00  0.00    +0.035 A 
ATOM      5  C   UNL     1       9.978  -0.084  24.170  0.00  0.00    +0.027 A 
ATOM      6  C   UNL     1      10.013  -1.447  24.486  0.00  0.00    +0.047 A 
ENDROOT
BRANCH   4   7
ATOM      7  N   UNL     1       9.338   1.717  22.591  0.00  0.00    -0.269 N 
ATOM      8  H   UNL     1      10.005   2.071  21.922  0.00  0.00    +0.156 HD
ATOM      9  C   UNL     1       8.408   2.605  23.093  0.00  0.00    +0.308 C 
ATOM     10  N   UNL     1       8.593   3.892  22.598  0.00  0.00    -0.269 N 
ATOM     11  H   UNL     1       9.547   4.125  22.365  0.00  0.00    +0.156 HD
ATOM     12  O   UNL     1       7.554   2.329  23.927  0.00  0.00    -0.252 OA
BRANCH  10  13
ATOM     13  C   UNL     1       7.788   4.947  23.091  0.00  0.00    +0.038 A 
ATOM     14  C   UNL     1       6.621   5.346  22.426  0.00  0.00    +0.043 A 
ATOM     15  C   UNL     1       5.776   6.288  23.006  0.00  0.00    +0.044 A 
ATOM     16 CL   UNL     1       4.332   6.754  22.194  0.00  0.00    -0.083 Cl
ATOM     17  C   UNL     1       6.082   6.840  24.246  0.00  0.00    +0.040 A 
ATOM     18  C   UNL     1       7.262   6.467  24.884  0.00  0.00    +0.044 A 
ATOM     19 CL   UNL     1       7.626   7.107  26.439  0.00  0.00    -0.083 Cl
ATOM     20  C   UNL     1       8.135   5.547  24.301  0.00  0.00    +0.043 A 
ENDBRANCH  10  13
ENDBRANCH   4   7
BRANCH   1  21
ATOM     21  O   UNL     1       9.509  -3.681  24.030  0.00  0.00    -0.475 OA
BRANCH  21  23
ATOM     22  C   UNL     1       7.270  -3.315  25.128  0.00  0.00    +0.067 C 
ATOM     23  C   UNL     1       8.265  -4.283  24.469  0.00  0.00    +0.200 C 
ATOM     24  C   UNL     1       7.659  -5.108  23.330  0.00  0.00    +0.067 C 
BRANCH  23  25
ATOM     25  C   UNL     1       8.648  -5.300  25.569  0.00  0.00    +0.348 C 
ATOM     26  O   UNL     1       7.874  -5.728  26.417  0.00  0.00    -0.247 OA
BRANCH  25  27
ATOM     27  O   UNL     1       9.943  -5.698  25.513  0.00  0.00    -0.478 OA
ATOM     28  H   UNL     1      10.023  -6.594  25.898  0.00  0.00    +0.295 HD
ENDBRANCH  25  27
ENDBRANCH  23  25
ENDBRANCH  21  23
ENDBRANCH   1  21
TORSDOF 6
ENDMDL
MODEL 7
REMARK VINA RESULT:      -6.5      4.106      9.291
REMARK  Name = 
REMARK  8 active torsions:
REMARK  status: ('A' for Active; 'I' for Inactive)
REMARK    1  A    between atoms: C_1  and  C_2
REMARK    2  A    between atoms: C_2  and  C_3
REMARK    3  A    between atoms: C_2  and  O_4
REMARK    4  A    between atoms: C_2  and  C_23
REMARK    5  A    between atoms: O_4  and  C_5
REMARK    6  A    between atoms: C_8  and  N_9
REMARK    7  A    between atoms: N_12  and  C_13
REMARK    8  A    between atoms: C_23  and  O_24
REMARK                            x       y       z     vdW  Elec       q    Type
REMARK                         _______ _______ _______ _____ _____    ______ ____
ROOT
ATOM      1  C   UNL     1       6.301  -5.718  25.875  0.00  0.00    +0.122 A 
ATOM      2  C   UNL     1       5.539  -5.266  24.802  0.00  0.00    +0.047 A 
ATOM      3  C   UNL     1       6.037  -4.288  23.933  0.00  0.00    +0.027 A 
ATOM      4  C   UNL     1       7.340  -3.809  24.079  0.00  0.00    +0.035 A 
ATOM      5  C   UNL     1       8.134  -4.343  25.096  0.00  0.00    +0.027 A 
ATOM      6  C   UNL     1       7.620  -5.291  25.987  0.00  0.00    +0.047 A 
ENDROOT
BRANCH   4   7
ATOM      7  N   UNL     1       7.774  -2.813  23.177  0.00  0.00    -0.269 N 
ATOM      8  H   UNL     1       8.217  -3.126  22.326  0.00  0.00    +0.156 HD
ATOM      9  C   UNL     1       7.668  -1.451  23.376  0.00  0.00    +0.308 C 
ATOM     10  N   UNL     1       8.252  -0.725  22.343  0.00  0.00    -0.269 N 
ATOM     11  H   UNL     1       9.027  -1.183  21.887  0.00  0.00    +0.156 HD
ATOM     12  O   UNL     1       7.180  -0.923  24.368  0.00  0.00    -0.252 OA
BRANCH  10  13
ATOM     13  C   UNL     1       8.323   0.686  22.441  0.00  0.00    +0.038 A 
ATOM     14  C   UNL     1       7.179   1.483  22.307  0.00  0.00    +0.043 A 
ATOM     15  C   UNL     1       7.252   2.853  22.547  0.00  0.00    +0.044 A 
ATOM     16 CL   UNL     1       5.837   3.821  22.406  0.00  0.00    -0.083 Cl
ATOM     17  C   UNL     1       8.457   3.439  22.920  0.00  0.00    +0.040 A 
ATOM     18  C   UNL     1       9.599   2.646  23.014  0.00  0.00    +0.044 A 
ATOM     19 CL   UNL     1      11.084   3.353  23.521  0.00  0.00    -0.083 Cl
ATOM     20  C   UNL     1       9.547   1.277  22.747  0.00  0.00    +0.043 A 
ENDBRANCH  10  13
ENDBRANCH   4   7
BRANCH   1  21
ATOM     21  O   UNL     1       5.867  -6.569  26.851  0.00  0.00    -0.475 OA
BRANCH  21  23
ATOM     22  C   UNL     1       5.200  -4.504  28.133  0.00  0.00    +0.067 C 
ATOM     23  C   UNL     1       5.249  -6.037  28.050  0.00  0.00    +0.200 C 
ATOM     24  C   UNL     1       3.891  -6.709  28.274  0.00  0.00    +0.067 C 
BRANCH  23  25
ATOM     25  C   UNL     1       6.143  -6.490  29.228  0.00  0.00    +0.348 C 
ATOM     26  O   UNL     1       6.688  -7.585  29.303  0.00  0.00    -0.247 OA
BRANCH  25  27
ATOM     27  O   UNL     1       6.288  -5.547  30.192  0.00  0.00    -0.478 OA
ATOM     28  H   UNL     1       5.467  -5.019  30.255  0.00  0.00    +0.295 HD
ENDBRANCH  25  27
ENDBRANCH  23  25
ENDBRANCH  21  23
ENDBRANCH   1  21
TORSDOF 6
ENDMDL
MODEL 8
REMARK VINA RESULT:      -6.3      4.732      9.281
REMARK  Name = 
REMARK  8 active torsions:
REMARK  status: ('A' for Active; 'I' for Inactive)
REMARK    1  A    between atoms: C_1  and  C_2
REMARK    2  A    between atoms: C_2  and  C_3
REMARK    3  A    between atoms: C_2  and  O_4
REMARK    4  A    between atoms: C_2  and  C_23
REMARK    5  A    between atoms: O_4  and  C_5
REMARK    6  A    between atoms: C_8  and  N_9
REMARK    7  A    between atoms: N_12  and  C_13
REMARK    8  A    between atoms: C_23  and  O_24
REMARK                            x       y       z     vdW  Elec       q    Type
REMARK                         _______ _______ _______ _____ _____    ______ ____
ROOT
ATOM      1  C   UNL     1       5.958  -2.808  22.840  0.00  0.00    +0.122 A 
ATOM      2  C   UNL     1       5.759  -1.945  23.914  0.00  0.00    +0.047 A 
ATOM      3  C   UNL     1       6.765  -1.060  24.316  0.00  0.00    +0.027 A 
ATOM      4  C   UNL     1       7.955  -0.966  23.593  0.00  0.00    +0.035 A 
ATOM      5  C   UNL     1       8.106  -1.761  22.455  0.00  0.00    +0.027 A 
ATOM      6  C   UNL     1       7.115  -2.675  22.080  0.00  0.00    +0.047 A 
ENDROOT
BRANCH   4   7
ATOM      7  N   UNL     1       8.934  -0.062  24.060  0.00  0.00    -0.269 N 
ATOM      8  H   UNL     1       9.555  -0.391  24.785  0.00  0.00    +0.156 HD
ATOM      9  C   UNL     1       9.094   1.239  23.628  0.00  0.00    +0.308 C 
ATOM     10  N   UNL     1      10.096   1.903  24.328  0.00  0.00    -0.269 N 
ATOM     11  H   UNL     1      10.230   1.590  25.279  0.00  0.00    +0.156 HD
ATOM     12  O   UNL     1       8.403   1.785  22.776  0.00  0.00    -0.252 OA
BRANCH  10  13
ATOM     13  C   UNL     1      10.320   3.279  24.081  0.00  0.00    +0.038 A 
ATOM     14  C   UNL     1      11.494   3.726  23.462  0.00  0.00    +0.043 A 
ATOM     15  C   UNL     1      11.627   5.066  23.104  0.00  0.00    +0.044 A 
ATOM     16 CL   UNL     1      13.063   5.602  22.322  0.00  0.00    -0.083 Cl
ATOM     17  C   UNL     1      10.599   5.967  23.356  0.00  0.00    +0.040 A 
ATOM     18  C   UNL     1       9.449   5.523  24.006  0.00  0.00    +0.044 A 
ATOM     19 CL   UNL     1       8.151   6.620  24.280  0.00  0.00    -0.083 Cl
ATOM     20  C   UNL     1       9.314   4.191  24.398  0.00  0.00    +0.043 A 
ENDBRANCH  10  13
ENDBRANCH   4   7
BRANCH   1  21
ATOM     21  O   UNL     1       5.099  -3.794  22.447  0.00  0.00    -0.475 OA
BRANCH  21  23
ATOM     22  C   UNL     1       6.208  -5.333  24.106  0.00  0.00    +0.067 C 
ATOM     23  C   UNL     1       5.343  -5.166  22.847  0.00  0.00    +0.200 C 
ATOM     24  C   UNL     1       4.019  -5.933  22.903  0.00  0.00    +0.067 C 
BRANCH  23  25
ATOM     25  C   UNL     1       6.154  -5.808  21.697  0.00  0.00    +0.348 C 
ATOM     26  O   UNL     1       5.764  -5.894  20.538  0.00  0.00    -0.247 OA
BRANCH  25  27
ATOM     27  O   UNL     1       7.369  -6.271  22.082  0.00  0.00    -0.478 OA
ATOM     28  H   UNL     1       7.419  -6.275  23.059  0.00  0.00    +0.295 HD
ENDBRANCH  25  27
ENDBRANCH  23  25
ENDBRANCH  21  23
ENDBRANCH   1  21
TORSDOF 6
ENDMDL
MODEL 9
REMARK VINA RESULT:      -6.3      1.602      2.034
REMARK  Name = 
REMARK  8 active torsions:
REMARK  status: ('A' for Active; 'I' for Inactive)
REMARK    1  A    between atoms: C_1  and  C_2
REMARK    2  A    between atoms: C_2  and  C_3
REMARK    3  A    between atoms: C_2  and  O_4
REMARK    4  A    between atoms: C_2  and  C_23
REMARK    5  A    between atoms: O_4  and  C_5
REMARK    6  A    between atoms: C_8  and  N_9
REMARK    7  A    between atoms: N_12  and  C_13
REMARK    8  A    between atoms: C_23  and  O_24
REMARK                            x       y       z     vdW  Elec       q    Type
REMARK                         _______ _______ _______ _____ _____    ______ ____
ROOT
ATOM      1  C   UNL     1       9.940   2.729  23.282  0.00  0.00    +0.122 A 
ATOM      2  C   UNL     1      10.191   2.095  24.496  0.00  0.00    +0.047 A 
ATOM      3  C   UNL     1      10.100   0.703  24.608  0.00  0.00    +0.027 A 
ATOM      4  C   UNL     1       9.837  -0.081  23.484  0.00  0.00    +0.035 A 
ATOM      5  C   UNL     1       9.689   0.554  22.250  0.00  0.00    +0.027 A 
ATOM      6  C   UNL     1       9.740   1.949  22.148  0.00  0.00    +0.047 A 
ENDROOT
BRANCH   4   7
ATOM      7  N   UNL     1       9.745  -1.478  23.670  0.00  0.00    -0.269 N 
ATOM      8  H   UNL     1      10.601  -1.971  23.875  0.00  0.00    +0.156 HD
ATOM      9  C   UNL     1       8.589  -2.226  23.568  0.00  0.00    +0.308 C 
ATOM     10  N   UNL     1       8.829  -3.586  23.732  0.00  0.00    -0.269 N 
ATOM     11  H   UNL     1       9.744  -3.894  23.437  0.00  0.00    +0.156 HD
ATOM     12  O   UNL     1       7.482  -1.772  23.302  0.00  0.00    -0.252 OA
BRANCH  10  13
ATOM     13  C   UNL     1       7.766  -4.504  23.555  0.00  0.00    +0.038 A 
ATOM     14  C   UNL     1       6.961  -4.903  24.630  0.00  0.00    +0.043 A 
ATOM     15  C   UNL     1       5.838  -5.695  24.403  0.00  0.00    +0.044 A 
ATOM     16 CL   UNL     1       4.840  -6.159  25.726  0.00  0.00    -0.083 Cl
ATOM     17  C   UNL     1       5.508  -6.095  23.113  0.00  0.00    +0.040 A 
ATOM     18  C   UNL     1       6.333  -5.727  22.054  0.00  0.00    +0.044 A 
ATOM     19 CL   UNL     1       5.908  -6.177  20.448  0.00  0.00    -0.083 Cl
ATOM     20  C   UNL     1       7.479  -4.959  22.269  0.00  0.00    +0.043 A 
ENDBRANCH  10  13
ENDBRANCH   4   7
BRANCH   1  21
ATOM     21  O   UNL     1       9.875   4.080  23.093  0.00  0.00    -0.475 OA
BRANCH  21  23
ATOM     22  C   UNL     1       8.368   6.063  22.716  0.00  0.00    +0.067 C 
ATOM     23  C   UNL     1       8.713   4.818  23.547  0.00  0.00    +0.200 C 
ATOM     24  C   UNL     1       7.535   3.861  23.741  0.00  0.00    +0.067 C 
BRANCH  23  25
ATOM     25  C   UNL     1       9.066   5.344  24.958  0.00  0.00    +0.348 C 
ATOM     26  O   UNL     1       8.578   4.919  25.998  0.00  0.00    -0.247 OA
BRANCH  25  27
ATOM     27  O   UNL     1       9.994   6.334  24.952  0.00  0.00    -0.478 OA
ATOM     28  H   UNL     1      10.230   6.550  24.028  0.00  0.00    +0.295 HD
ENDBRANCH  25  27
ENDBRANCH  23  25
ENDBRANCH  21  23
ENDBRANCH   1  21
TORSDOF 6
ENDMDL
