MODEL 1
REMARK VINA RESULT:      -5.5      0.000      0.000
REMARK  Name = 
REMARK  18 active torsions:
REMARK  status: ('A' for Active; 'I' for Inactive)
REMARK    1  A    between atoms: C_1  and  C_2
REMARK    2  A    between atoms: C_2  and  C_3
REMARK    3  A    between atoms: C_2  and  C_4
REMARK    4  A    between atoms: C_2  and  C_19
REMARK    5  A    between atoms: C_4  and  C_5
REMARK    6  A    between atoms: C_5  and  C_6
REMARK    7  A    between atoms: C_6  and  C_7
REMARK    8  A    between atoms: C_7  and  O_8
REMARK    9  A    between atoms: O_8  and  C_9
REMARK   10  A    between atoms: C_9  and  C_10
REMARK   11  A    between atoms: C_10  and  C_11
REMARK   12  A    between atoms: C_11  and  C_12
REMARK   13  A    between atoms: C_12  and  C_13
REMARK   14  A    between atoms: C_13  and  C_14
REMARK   15  A    between atoms: C_13  and  C_15
REMARK   16  A    between atoms: C_13  and  C_16
REMARK   17  A    between atoms: C_16  and  O_17
REMARK   18  A    between atoms: C_19  and  O_20
REMARK                            x       y       z     vdW  Elec       q    Type
REMARK                         _______ _______ _______ _____ _____    ______ ____
ROOT
ATOM      1  O   UNL     1       8.737  -1.887  23.581  0.00  0.00    -0.380 OA
ENDROOT
BRANCH   1   2
ATOM      2  C   UNL     1       8.649  -1.882  22.162  0.00  0.00    +0.160 C 
BRANCH   2   3
ATOM      3  C   UNL     1       9.714  -0.946  21.599  0.00  0.00    +0.028 C 
BRANCH   3   4
ATOM      4  C   UNL     1       9.133   0.457  21.458  0.00  0.00    +0.003 C 
BRANCH   4   5
ATOM      5  C   UNL     1      10.068   1.551  21.985  0.00  0.00    +0.017 C 
BRANCH   5   7
ATOM      6  C   UNL     1       8.292   1.686  23.801  0.00  0.00    +0.022 C 
ATOM      7  C   UNL     1       9.770   1.960  23.453  0.00  0.00    +0.062 C 
ATOM      8  C   UNL     1      10.631   1.131  24.422  0.00  0.00    +0.022 C 
BRANCH   7   9
ATOM      9  C   UNL     1      10.070   3.448  23.673  0.00  0.00    +0.310 C 
ATOM     10  O   UNL     1       9.373   4.205  24.332  0.00  0.00    -0.250 OA
BRANCH   9  11
ATOM     11  O   UNL     1      11.187   3.894  23.050  0.00  0.00    -0.480 OA
ATOM     12  H   UNL     1      11.930   3.265  23.031  0.00  0.00    +0.295 HD
ENDBRANCH   9  11
ENDBRANCH   7   9
ENDBRANCH   5   7
ENDBRANCH   4   5
ENDBRANCH   3   4
ENDBRANCH   2   3
ENDBRANCH   1   2
BRANCH   1  13
ATOM     13  C   UNL     1       9.623  -2.909  24.040  0.00  0.00    +0.160 C 
BRANCH  13  14
ATOM     14  C   UNL     1       8.863  -3.832  24.987  0.00  0.00    +0.028 C 
BRANCH  14  15
ATOM     15  C   UNL     1       8.173  -4.953  24.205  0.00  0.00    +0.003 C 
BRANCH  15  16
ATOM     16  C   UNL     1       6.647  -4.836  24.237  0.00  0.00    +0.017 C 
BRANCH  16  17
ATOM     17  C   UNL     1       5.966  -5.003  22.852  0.00  0.00    +0.062 C 
ATOM     18  C   UNL     1       6.897  -5.669  21.825  0.00  0.00    +0.022 C 
ATOM     19  C   UNL     1       5.539  -3.628  22.297  0.00  0.00    +0.022 C 
BRANCH  17  20
ATOM     20  C   UNL     1       4.704  -5.861  23.014  0.00  0.00    +0.310 C 
ATOM     21  O   UNL     1       3.566  -5.471  22.791  0.00  0.00    -0.250 OA
BRANCH  20  22
ATOM     22  O   UNL     1       4.931  -7.130  23.431  0.00  0.00    -0.480 OA
ATOM     23  H   UNL     1       5.757  -7.529  23.100  0.00  0.00    +0.295 HD
ENDBRANCH  20  22
ENDBRANCH  17  20
ENDBRANCH  16  17
ENDBRANCH  15  16
ENDBRANCH  14  15
ENDBRANCH  13  14
ENDBRANCH   1  13
TORSDOF 14
ENDMDL
MODEL 2
REMARK VINA RESULT:      -5.4      1.952      7.226
REMARK  Name = 
REMARK  18 active torsions:
REMARK  status: ('A' for Active; 'I' for Inactive)
REMARK    1  A    between atoms: C_1  and  C_2
REMARK    2  A    between atoms: C_2  and  C_3
REMARK    3  A    between atoms: C_2  and  C_4
REMARK    4  A    between atoms: C_2  and  C_19
REMARK    5  A    between atoms: C_4  and  C_5
REMARK    6  A    between atoms: C_5  and  C_6
REMARK    7  A    between atoms: C_6  and  C_7
REMARK    8  A    between atoms: C_7  and  O_8
REMARK    9  A    between atoms: O_8  and  C_9
REMARK   10  A    between atoms: C_9  and  C_10
REMARK   11  A    between atoms: C_10  and  C_11
REMARK   12  A    between atoms: C_11  and  C_12
REMARK   13  A    between atoms: C_12  and  C_13
REMARK   14  A    between atoms: C_13  and  C_14
REMARK   15  A    between atoms: C_13  and  C_15
REMARK   16  A    between atoms: C_13  and  C_16
REMARK   17  A    between atoms: C_16  and  O_17
REMARK   18  A    between atoms: C_19  and  O_20
REMARK                            x       y       z     vdW  Elec       q    Type
REMARK                         _______ _______ _______ _____ _____    ______ ____
ROOT
ATOM      1  O   UNL     1       7.901  -1.671  26.250  0.00  0.00    -0.380 OA
ENDROOT
BRANCH   1   2
ATOM      2  C   UNL     1       8.033  -3.077  26.091  0.00  0.00    +0.160 C 
BRANCH   2   3
ATOM      3  C   UNL     1       9.032  -3.362  24.974  0.00  0.00    +0.028 C 
BRANCH   3   4
ATOM      4  C   UNL     1       8.277  -3.659  23.682  0.00  0.00    +0.003 C 
BRANCH   4   5
ATOM      5  C   UNL     1       6.970  -4.425  23.912  0.00  0.00    +0.017 C 
BRANCH   5   7
ATOM      6  C   UNL     1       6.007  -3.562  21.721  0.00  0.00    +0.022 C 
ATOM      7  C   UNL     1       6.244  -4.812  22.594  0.00  0.00    +0.062 C 
ATOM      8  C   UNL     1       7.109  -5.786  21.776  0.00  0.00    +0.022 C 
BRANCH   7   9
ATOM      9  C   UNL     1       4.896  -5.478  22.894  0.00  0.00    +0.310 C 
ATOM     10  O   UNL     1       3.815  -4.911  22.835  0.00  0.00    -0.250 OA
BRANCH   9  11
ATOM     11  O   UNL     1       4.982  -6.779  23.263  0.00  0.00    -0.480 OA
ATOM     12  H   UNL     1       5.886  -7.135  23.319  0.00  0.00    +0.295 HD
ENDBRANCH   9  11
ENDBRANCH   7   9
ENDBRANCH   5   7
ENDBRANCH   4   5
ENDBRANCH   3   4
ENDBRANCH   2   3
ENDBRANCH   1   2
BRANCH   1  13
ATOM     13  C   UNL     1       6.528  -1.291  26.363  0.00  0.00    +0.160 C 
BRANCH  13  14
ATOM     14  C   UNL     1       5.979  -1.004  24.969  0.00  0.00    +0.028 C 
BRANCH  14  15
ATOM     15  C   UNL     1       6.769   0.126  24.303  0.00  0.00    +0.003 C 
BRANCH  15  16
ATOM     16  C   UNL     1       7.204  -0.225  22.877  0.00  0.00    +0.017 C 
BRANCH  16  17
ATOM     17  C   UNL     1       8.665   0.174  22.540  0.00  0.00    +0.062 C 
ATOM     18  C   UNL     1       9.347  -0.849  21.616  0.00  0.00    +0.022 C 
ATOM     19  C   UNL     1       9.500   0.288  23.834  0.00  0.00    +0.022 C 
BRANCH  17  20
ATOM     20  C   UNL     1       8.665   1.546  21.853  0.00  0.00    +0.310 C 
ATOM     21  O   UNL     1       7.659   2.190  21.588  0.00  0.00    -0.250 OA
BRANCH  20  22
ATOM     22  O   UNL     1       9.894   2.026  21.547  0.00  0.00    -0.480 OA
ATOM     23  H   UNL     1       9.934   2.990  21.404  0.00  0.00    +0.295 HD
ENDBRANCH  20  22
ENDBRANCH  17  20
ENDBRANCH  16  17
ENDBRANCH  15  16
ENDBRANCH  14  15
ENDBRANCH  13  14
ENDBRANCH   1  13
TORSDOF 14
ENDMDL
MODEL 3
REMARK VINA RESULT:      -5.4      1.712      7.327
REMARK  Name = 
REMARK  18 active torsions:
REMARK  status: ('A' for Active; 'I' for Inactive)
REMARK    1  A    between atoms: C_1  and  C_2
REMARK    2  A    between atoms: C_2  and  C_3
REMARK    3  A    between atoms: C_2  and  C_4
REMARK    4  A    between atoms: C_2  and  C_19
REMARK    5  A    between atoms: C_4  and  C_5
REMARK    6  A    between atoms: C_5  and  C_6
REMARK    7  A    between atoms: C_6  and  C_7
REMARK    8  A    between atoms: C_7  and  O_8
REMARK    9  A    between atoms: O_8  and  C_9
REMARK   10  A    between atoms: C_9  and  C_10
REMARK   11  A    between atoms: C_10  and  C_11
REMARK   12  A    between atoms: C_11  and  C_12
REMARK   13  A    between atoms: C_12  and  C_13
REMARK   14  A    between atoms: C_13  and  C_14
REMARK   15  A    between atoms: C_13  and  C_15
REMARK   16  A    between atoms: C_13  and  C_16
REMARK   17  A    between atoms: C_16  and  O_17
REMARK   18  A    between atoms: C_19  and  O_20
REMARK                            x       y       z     vdW  Elec       q    Type
REMARK                         _______ _______ _______ _____ _____    ______ ____
ROOT
ATOM      1  O   UNL     1       8.381  -1.921  23.472  0.00  0.00    -0.380 OA
ENDROOT
BRANCH   1   2
ATOM      2  C   UNL     1       9.456  -2.617  24.089  0.00  0.00    +0.160 C 
BRANCH   2   3
ATOM      3  C   UNL     1       8.893  -3.719  24.981  0.00  0.00    +0.028 C 
BRANCH   3   4
ATOM      4  C   UNL     1       8.307  -4.826  24.111  0.00  0.00    +0.003 C 
BRANCH   4   5
ATOM      5  C   UNL     1       6.796  -4.997  24.294  0.00  0.00    +0.017 C 
BRANCH   5   7
ATOM      6  C   UNL     1       6.895  -6.100  22.002  0.00  0.00    +0.022 C 
ATOM      7  C   UNL     1       6.038  -5.244  22.960  0.00  0.00    +0.062 C 
ATOM      8  C   UNL     1       4.734  -6.017  23.223  0.00  0.00    +0.022 C 
BRANCH   7   9
ATOM      9  C   UNL     1       5.697  -3.915  22.276  0.00  0.00    +0.310 C 
ATOM     10  O   UNL     1       5.693  -3.739  21.067  0.00  0.00    -0.250 OA
BRANCH   9  11
ATOM     11  O   UNL     1       5.410  -2.902  23.129  0.00  0.00    -0.480 OA
ATOM     12  H   UNL     1       5.790  -2.038  22.888  0.00  0.00    +0.295 HD
ENDBRANCH   9  11
ENDBRANCH   7   9
ENDBRANCH   5   7
ENDBRANCH   4   5
ENDBRANCH   3   4
ENDBRANCH   2   3
ENDBRANCH   1   2
BRANCH   1  13
ATOM     13  C   UNL     1       8.596  -1.778  22.067  0.00  0.00    +0.160 C 
BRANCH  13  14
ATOM     14  C   UNL     1       9.839  -0.923  21.844  0.00  0.00    +0.028 C 
BRANCH  14  15
ATOM     15  C   UNL     1       9.447   0.523  21.528  0.00  0.00    +0.003 C 
BRANCH  15  16
ATOM     16  C   UNL     1      10.068   1.524  22.506  0.00  0.00    +0.017 C 
BRANCH  16  17
ATOM     17  C   UNL     1       9.105   2.002  23.626  0.00  0.00    +0.062 C 
ATOM     18  C   UNL     1       7.632   1.956  23.184  0.00  0.00    +0.022 C 
ATOM     19  C   UNL     1       9.440   3.452  24.037  0.00  0.00    +0.022 C 
BRANCH  17  20
ATOM     20  C   UNL     1       9.285   1.106  24.859  0.00  0.00    +0.310 C 
ATOM     21  O   UNL     1       8.374   0.732  25.585  0.00  0.00    -0.250 OA
BRANCH  20  22
ATOM     22  O   UNL     1      10.563   0.734  25.107  0.00  0.00    -0.480 OA
ATOM     23  H   UNL     1      11.046   0.387  24.335  0.00  0.00    +0.295 HD
ENDBRANCH  20  22
ENDBRANCH  17  20
ENDBRANCH  16  17
ENDBRANCH  15  16
ENDBRANCH  14  15
ENDBRANCH  13  14
ENDBRANCH   1  13
TORSDOF 14
ENDMDL
MODEL 4
REMARK VINA RESULT:      -5.4      1.709      2.338
REMARK  Name = 
REMARK  18 active torsions:
REMARK  status: ('A' for Active; 'I' for Inactive)
REMARK    1  A    between atoms: C_1  and  C_2
REMARK    2  A    between atoms: C_2  and  C_3
REMARK    3  A    between atoms: C_2  and  C_4
REMARK    4  A    between atoms: C_2  and  C_19
REMARK    5  A    between atoms: C_4  and  C_5
REMARK    6  A    between atoms: C_5  and  C_6
REMARK    7  A    between atoms: C_6  and  C_7
REMARK    8  A    between atoms: C_7  and  O_8
REMARK    9  A    between atoms: O_8  and  C_9
REMARK   10  A    between atoms: C_9  and  C_10
REMARK   11  A    between atoms: C_10  and  C_11
REMARK   12  A    between atoms: C_11  and  C_12
REMARK   13  A    between atoms: C_12  and  C_13
REMARK   14  A    between atoms: C_13  and  C_14
REMARK   15  A    between atoms: C_13  and  C_15
REMARK   16  A    between atoms: C_13  and  C_16
REMARK   17  A    between atoms: C_16  and  O_17
REMARK   18  A    between atoms: C_19  and  O_20
REMARK                            x       y       z     vdW  Elec       q    Type
REMARK                         _______ _______ _______ _____ _____    ______ ____
ROOT
ATOM      1  O   UNL     1       8.511  -1.199  23.516  0.00  0.00    -0.380 OA
ENDROOT
BRANCH   1   2
ATOM      2  C   UNL     1       9.127  -1.784  22.376  0.00  0.00    +0.160 C 
BRANCH   2   3
ATOM      3  C   UNL     1       9.758  -0.685  21.529  0.00  0.00    +0.028 C 
BRANCH   3   4
ATOM      4  C   UNL     1       9.055   0.639  21.809  0.00  0.00    +0.003 C 
BRANCH   4   5
ATOM      5  C   UNL     1      10.029   1.790  22.086  0.00  0.00    +0.017 C 
BRANCH   5   7
ATOM      6  C   UNL     1      10.696   3.727  23.595  0.00  0.00    +0.022 C 
ATOM      7  C   UNL     1       9.604   2.680  23.287  0.00  0.00    +0.062 C 
ATOM      8  C   UNL     1       8.314   3.447  22.951  0.00  0.00    +0.022 C 
BRANCH   7   9
ATOM      9  C   UNL     1       9.362   1.825  24.536  0.00  0.00    +0.310 C 
ATOM     10  O   UNL     1       8.322   1.815  25.177  0.00  0.00    -0.250 OA
BRANCH   9  11
ATOM     11  O   UNL     1      10.420   1.067  24.912  0.00  0.00    -0.480 OA
ATOM     12  H   UNL     1      11.275   1.533  24.936  0.00  0.00    +0.295 HD
ENDBRANCH   9  11
ENDBRANCH   7   9
ENDBRANCH   5   7
ENDBRANCH   4   5
ENDBRANCH   3   4
ENDBRANCH   2   3
ENDBRANCH   1   2
BRANCH   1  13
ATOM     13  C   UNL     1       8.673  -2.024  24.671  0.00  0.00    +0.160 C 
BRANCH  13  14
ATOM     14  C   UNL     1       9.185  -3.392  24.232  0.00  0.00    +0.028 C 
BRANCH  14  15
ATOM     15  C   UNL     1       8.163  -4.481  24.567  0.00  0.00    +0.003 C 
BRANCH  15  16
ATOM     16  C   UNL     1       7.415  -4.983  23.328  0.00  0.00    +0.017 C 
BRANCH  16  17
ATOM     17  C   UNL     1       5.924  -4.555  23.267  0.00  0.00    +0.062 C 
ATOM     18  C   UNL     1       5.419  -4.017  24.617  0.00  0.00    +0.022 C 
ATOM     19  C   UNL     1       5.040  -5.755  22.864  0.00  0.00    +0.022 C 
BRANCH  17  20
ATOM     20  C   UNL     1       5.758  -3.464  22.201  0.00  0.00    +0.310 C 
ATOM     21  O   UNL     1       5.645  -3.677  21.001  0.00  0.00    -0.250 OA
BRANCH  20  22
ATOM     22  O   UNL     1       5.739  -2.199  22.683  0.00  0.00    -0.480 OA
ATOM     23  H   UNL     1       6.615  -1.778  22.763  0.00  0.00    +0.295 HD
ENDBRANCH  20  22
ENDBRANCH  17  20
ENDBRANCH  16  17
ENDBRANCH  15  16
ENDBRANCH  14  15
ENDBRANCH  13  14
ENDBRANCH   1  13
TORSDOF 14
ENDMDL
MODEL 5
REMARK VINA RESULT:      -5.4      1.108      7.767
REMARK  Name = 
REMARK  18 active torsions:
REMARK  status: ('A' for Active; 'I' for Inactive)
REMARK    1  A    between atoms: C_1  and  C_2
REMARK    2  A    between atoms: C_2  and  C_3
REMARK    3  A    between atoms: C_2  and  C_4
REMARK    4  A    between atoms: C_2  and  C_19
REMARK    5  A    between atoms: C_4  and  C_5
REMARK    6  A    between atoms: C_5  and  C_6
REMARK    7  A    between atoms: C_6  and  C_7
REMARK    8  A    between atoms: C_7  and  O_8
REMARK    9  A    between atoms: O_8  and  C_9
REMARK   10  A    between atoms: C_9  and  C_10
REMARK   11  A    between atoms: C_10  and  C_11
REMARK   12  A    between atoms: C_11  and  C_12
REMARK   13  A    between atoms: C_12  and  C_13
REMARK   14  A    between atoms: C_13  and  C_14
REMARK   15  A    between atoms: C_13  and  C_15
REMARK   16  A    between atoms: C_13  and  C_16
REMARK   17  A    between atoms: C_16  and  O_17
REMARK   18  A    between atoms: C_19  and  O_20
REMARK                            x       y       z     vdW  Elec       q    Type
REMARK                         _______ _______ _______ _____ _____    ______ ____
ROOT
ATOM      1  O   UNL     1       9.212  -1.808  24.455  0.00  0.00    -0.380 OA
ENDROOT
BRANCH   1   2
ATOM      2  C   UNL     1       8.379  -2.853  24.939  0.00  0.00    +0.160 C 
BRANCH   2   3
ATOM      3  C   UNL     1       9.156  -4.165  24.912  0.00  0.00    +0.028 C 
BRANCH   3   4
ATOM      4  C   UNL     1       8.297  -5.250  24.269  0.00  0.00    +0.003 C 
BRANCH   4   5
ATOM      5  C   UNL     1       6.806  -4.899  24.242  0.00  0.00    +0.017 C 
BRANCH   5   7
ATOM      6  C   UNL     1       5.908  -3.786  22.137  0.00  0.00    +0.022 C 
ATOM      7  C   UNL     1       6.144  -5.131  22.856  0.00  0.00    +0.062 C 
ATOM      8  C   UNL     1       7.066  -5.975  21.960  0.00  0.00    +0.022 C 
BRANCH   7   9
ATOM      9  C   UNL     1       4.803  -5.859  23.011  0.00  0.00    +0.310 C 
ATOM     10  O   UNL     1       3.714  -5.365  22.759  0.00  0.00    -0.250 OA
BRANCH   9  11
ATOM     11  O   UNL     1       4.902  -7.125  23.484  0.00  0.00    -0.480 OA
ATOM     12  H   UNL     1       4.484  -7.276  24.350  0.00  0.00    +0.295 HD
ENDBRANCH   9  11
ENDBRANCH   7   9
ENDBRANCH   5   7
ENDBRANCH   4   5
ENDBRANCH   3   4
ENDBRANCH   2   3
ENDBRANCH   1   2
BRANCH   1  13
ATOM     13  C   UNL     1      10.011  -2.252  23.356  0.00  0.00    +0.160 C 
BRANCH  13  14
ATOM     14  C   UNL     1       9.585  -1.497  22.101  0.00  0.00    +0.028 C 
BRANCH  14  15
ATOM     15  C   UNL     1       8.939  -0.160  22.471  0.00  0.00    +0.003 C 
BRANCH  15  16
ATOM     16  C   UNL     1       9.906   1.018  22.323  0.00  0.00    +0.017 C 
BRANCH  16  17
ATOM     17  C   UNL     1      10.242   1.738  23.656  0.00  0.00    +0.062 C 
ATOM     18  C   UNL     1      10.835   3.139  23.427  0.00  0.00    +0.022 C 
ATOM     19  C   UNL     1      11.261   0.910  24.468  0.00  0.00    +0.022 C 
BRANCH  17  20
ATOM     20  C   UNL     1       8.962   1.867  24.494  0.00  0.00    +0.310 C 
ATOM     21  O   UNL     1       8.049   2.644  24.250  0.00  0.00    -0.250 OA
BRANCH  20  22
ATOM     22  O   UNL     1       8.897   1.037  25.561  0.00  0.00    -0.480 OA
ATOM     23  H   UNL     1       8.130   1.180  26.146  0.00  0.00    +0.295 HD
ENDBRANCH  20  22
ENDBRANCH  17  20
ENDBRANCH  16  17
ENDBRANCH  15  16
ENDBRANCH  14  15
ENDBRANCH  13  14
ENDBRANCH   1  13
TORSDOF 14
ENDMDL
MODEL 6
REMARK VINA RESULT:      -5.4      2.000      2.948
REMARK  Name = 
REMARK  18 active torsions:
REMARK  status: ('A' for Active; 'I' for Inactive)
REMARK    1  A    between atoms: C_1  and  C_2
REMARK    2  A    between atoms: C_2  and  C_3
REMARK    3  A    between atoms: C_2  and  C_4
REMARK    4  A    between atoms: C_2  and  C_19
REMARK    5  A    between atoms: C_4  and  C_5
REMARK    6  A    between atoms: C_5  and  C_6
REMARK    7  A    between atoms: C_6  and  C_7
REMARK    8  A    between atoms: C_7  and  O_8
REMARK    9  A    between atoms: O_8  and  C_9
REMARK   10  A    between atoms: C_9  and  C_10
REMARK   11  A    between atoms: C_10  and  C_11
REMARK   12  A    between atoms: C_11  and  C_12
REMARK   13  A    between atoms: C_12  and  C_13
REMARK   14  A    between atoms: C_13  and  C_14
REMARK   15  A    between atoms: C_13  and  C_15
REMARK   16  A    between atoms: C_13  and  C_16
REMARK   17  A    between atoms: C_16  and  O_17
REMARK   18  A    between atoms: C_19  and  O_20
REMARK                            x       y       z     vdW  Elec       q    Type
REMARK                         _______ _______ _______ _____ _____    ______ ____
ROOT
ATOM      1  O   UNL     1       9.852  -3.721  24.470  0.00  0.00    -0.380 OA
ENDROOT
BRANCH   1   2
ATOM      2  C   UNL     1       9.403  -2.422  24.107  0.00  0.00    +0.160 C 
BRANCH   2   3
ATOM      3  C   UNL     1       8.725  -1.773  25.309  0.00  0.00    +0.028 C 
BRANCH   3   4
ATOM      4  C   UNL     1       9.355  -0.409  25.572  0.00  0.00    +0.003 C 
BRANCH   4   5
ATOM      5  C   UNL     1       8.600   0.742  24.899  0.00  0.00    +0.017 C 
BRANCH   5   7
ATOM      6  C   UNL     1       9.276   3.072  24.133  0.00  0.00    +0.022 C 
ATOM      7  C   UNL     1       9.476   1.558  23.909  0.00  0.00    +0.062 C 
ATOM      8  C   UNL     1      10.966   1.253  24.141  0.00  0.00    +0.022 C 
BRANCH   7   9
ATOM      9  C   UNL     1       9.120   1.213  22.459  0.00  0.00    +0.310 C 
ATOM     10  O   UNL     1       8.345   0.328  22.128  0.00  0.00    -0.250 OA
BRANCH   9  11
ATOM     11  O   UNL     1       9.758   1.965  21.530  0.00  0.00    -0.480 OA
ATOM     12  H   UNL     1      10.663   1.679  21.317  0.00  0.00    +0.295 HD
ENDBRANCH   9  11
ENDBRANCH   7   9
ENDBRANCH   5   7
ENDBRANCH   4   5
ENDBRANCH   3   4
ENDBRANCH   2   3
ENDBRANCH   1   2
BRANCH   1  13
ATOM     13  C   UNL     1       9.205  -4.178  25.659  0.00  0.00    +0.160 C 
BRANCH  13  14
ATOM     14  C   UNL     1       8.415  -5.442  25.335  0.00  0.00    +0.028 C 
BRANCH  14  15
ATOM     15  C   UNL     1       6.915  -5.141  25.288  0.00  0.00    +0.003 C 
BRANCH  15  16
ATOM     16  C   UNL     1       6.398  -4.960  23.858  0.00  0.00    +0.017 C 
BRANCH  16  17
ATOM     17  C   UNL     1       5.341  -3.835  23.699  0.00  0.00    +0.062 C 
ATOM     18  C   UNL     1       5.302  -2.899  24.919  0.00  0.00    +0.022 C 
ATOM     19  C   UNL     1       3.935  -4.445  23.513  0.00  0.00    +0.022 C 
BRANCH  17  20
ATOM     20  C   UNL     1       5.669  -3.010  22.447  0.00  0.00    +0.310 C 
ATOM     21  O   UNL     1       5.549  -3.414  21.298  0.00  0.00    -0.250 OA
BRANCH  20  22
ATOM     22  O   UNL     1       6.116  -1.756  22.696  0.00  0.00    -0.480 OA
ATOM     23  H   UNL     1       5.605  -1.265  23.366  0.00  0.00    +0.295 HD
ENDBRANCH  20  22
ENDBRANCH  17  20
ENDBRANCH  16  17
ENDBRANCH  15  16
ENDBRANCH  14  15
ENDBRANCH  13  14
ENDBRANCH   1  13
TORSDOF 14
ENDMDL
MODEL 7
REMARK VINA RESULT:      -5.3      2.036      2.663
REMARK  Name = 
REMARK  18 active torsions:
REMARK  status: ('A' for Active; 'I' for Inactive)
REMARK    1  A    between atoms: C_1  and  C_2
REMARK    2  A    between atoms: C_2  and  C_3
REMARK    3  A    between atoms: C_2  and  C_4
REMARK    4  A    between atoms: C_2  and  C_19
REMARK    5  A    between atoms: C_4  and  C_5
REMARK    6  A    between atoms: C_5  and  C_6
REMARK    7  A    between atoms: C_6  and  C_7
REMARK    8  A    between atoms: C_7  and  O_8
REMARK    9  A    between atoms: O_8  and  C_9
REMARK   10  A    between atoms: C_9  and  C_10
REMARK   11  A    between atoms: C_10  and  C_11
REMARK   12  A    between atoms: C_11  and  C_12
REMARK   13  A    between atoms: C_12  and  C_13
REMARK   14  A    between atoms: C_13  and  C_14
REMARK   15  A    between atoms: C_13  and  C_15
REMARK   16  A    between atoms: C_13  and  C_16
REMARK   17  A    between atoms: C_16  and  O_17
REMARK   18  A    between atoms: C_19  and  O_20
REMARK                            x       y       z     vdW  Elec       q    Type
REMARK                         _______ _______ _______ _____ _____    ______ ____
ROOT
ATOM      1  O   UNL     1       8.600  -1.593  24.087  0.00  0.00    -0.380 OA
ENDROOT
BRANCH   1   2
ATOM      2  C   UNL     1       9.791  -1.669  23.316  0.00  0.00    +0.160 C 
BRANCH   2   3
ATOM      3  C   UNL     1       9.501  -1.186  21.898  0.00  0.00    +0.028 C 
BRANCH   3   4
ATOM      4  C   UNL     1       9.821   0.301  21.793  0.00  0.00    +0.003 C 
BRANCH   4   5
ATOM      5  C   UNL     1       8.583   1.166  21.533  0.00  0.00    +0.017 C 
BRANCH   5   7
ATOM      6  C   UNL     1       9.288   2.123  23.782  0.00  0.00    +0.022 C 
ATOM      7  C   UNL     1       8.126   1.977  22.776  0.00  0.00    +0.062 C 
ATOM      8  C   UNL     1       7.698   3.395  22.360  0.00  0.00    +0.022 C 
BRANCH   7   9
ATOM      9  C   UNL     1       6.945   1.287  23.470  0.00  0.00    +0.310 C 
ATOM     10  O   UNL     1       6.492   1.616  24.555  0.00  0.00    -0.250 OA
BRANCH   9  11
ATOM     11  O   UNL     1       6.430   0.235  22.789  0.00  0.00    -0.480 OA
ATOM     12  H   UNL     1       5.462   0.247  22.680  0.00  0.00    +0.295 HD
ENDBRANCH   9  11
ENDBRANCH   7   9
ENDBRANCH   5   7
ENDBRANCH   4   5
ENDBRANCH   3   4
ENDBRANCH   2   3
ENDBRANCH   1   2
BRANCH   1  13
ATOM     13  C   UNL     1       8.551  -2.632  25.066  0.00  0.00    +0.160 C 
BRANCH  13  14
ATOM     14  C   UNL     1       9.341  -3.831  24.551  0.00  0.00    +0.028 C 
BRANCH  14  15
ATOM     15  C   UNL     1       8.411  -5.021  24.303  0.00  0.00    +0.003 C 
BRANCH  15  16
ATOM     16  C   UNL     1       6.937  -4.609  24.236  0.00  0.00    +0.017 C 
BRANCH  16  17
ATOM     17  C   UNL     1       6.234  -4.971  22.900  0.00  0.00    +0.062 C 
ATOM     18  C   UNL     1       4.945  -5.779  23.124  0.00  0.00    +0.022 C 
ATOM     19  C   UNL     1       7.179  -5.805  22.008  0.00  0.00    +0.022 C 
BRANCH  17  20
ATOM     20  C   UNL     1       5.890  -3.678  22.148  0.00  0.00    +0.310 C 
ATOM     21  O   UNL     1       5.827  -2.570  22.664  0.00  0.00    -0.250 OA
BRANCH  20  22
ATOM     22  O   UNL     1       5.653  -3.839  20.824  0.00  0.00    -0.480 OA
ATOM     23  H   UNL     1       5.324  -3.044  20.367  0.00  0.00    +0.295 HD
ENDBRANCH  20  22
ENDBRANCH  17  20
ENDBRANCH  16  17
ENDBRANCH  15  16
ENDBRANCH  14  15
ENDBRANCH  13  14
ENDBRANCH   1  13
TORSDOF 14
ENDMDL
MODEL 8
REMARK VINA RESULT:      -5.3      1.766      2.530
REMARK  Name = 
REMARK  18 active torsions:
REMARK  status: ('A' for Active; 'I' for Inactive)
REMARK    1  A    between atoms: C_1  and  C_2
REMARK    2  A    between atoms: C_2  and  C_3
REMARK    3  A    between atoms: C_2  and  C_4
REMARK    4  A    between atoms: C_2  and  C_19
REMARK    5  A    between atoms: C_4  and  C_5
REMARK    6  A    between atoms: C_5  and  C_6
REMARK    7  A    between atoms: C_6  and  C_7
REMARK    8  A    between atoms: C_7  and  O_8
REMARK    9  A    between atoms: O_8  and  C_9
REMARK   10  A    between atoms: C_9  and  C_10
REMARK   11  A    between atoms: C_10  and  C_11
REMARK   12  A    between atoms: C_11  and  C_12
REMARK   13  A    between atoms: C_12  and  C_13
REMARK   14  A    between atoms: C_13  and  C_14
REMARK   15  A    between atoms: C_13  and  C_15
REMARK   16  A    between atoms: C_13  and  C_16
REMARK   17  A    between atoms: C_16  and  O_17
REMARK   18  A    between atoms: C_19  and  O_20
REMARK                            x       y       z     vdW  Elec       q    Type
REMARK                         _______ _______ _______ _____ _____    ______ ____
ROOT
ATOM      1  O   UNL     1       7.509  -2.348  25.622  0.00  0.00    -0.380 OA
ENDROOT
BRANCH   1   2
ATOM      2  C   UNL     1       7.605  -1.178  26.424  0.00  0.00    +0.160 C 
BRANCH   2   3
ATOM      3  C   UNL     1       8.974  -0.541  26.217  0.00  0.00    +0.028 C 
BRANCH   3   4
ATOM      4  C   UNL     1       8.871   0.552  25.158  0.00  0.00    +0.003 C 
BRANCH   4   5
ATOM      5  C   UNL     1       9.698   0.252  23.903  0.00  0.00    +0.017 C 
BRANCH   5   7
ATOM      6  C   UNL     1       9.413  -0.621  21.530  0.00  0.00    +0.022 C 
ATOM      7  C   UNL     1       8.885   0.374  22.585  0.00  0.00    +0.062 C 
ATOM      8  C   UNL     1       7.406   0.032  22.839  0.00  0.00    +0.022 C 
BRANCH   7   9
ATOM      9  C   UNL     1       8.974   1.797  22.022  0.00  0.00    +0.310 C 
ATOM     10  O   UNL     1       8.032   2.570  21.942  0.00  0.00    -0.250 OA
BRANCH   9  11
ATOM     11  O   UNL     1      10.206   2.151  21.582  0.00  0.00    -0.480 OA
ATOM     12  H   UNL     1      10.512   1.679  20.787  0.00  0.00    +0.295 HD
ENDBRANCH   9  11
ENDBRANCH   7   9
ENDBRANCH   5   7
ENDBRANCH   4   5
ENDBRANCH   3   4
ENDBRANCH   2   3
ENDBRANCH   1   2
BRANCH   1  13
ATOM     13  C   UNL     1       8.617  -3.221  25.847  0.00  0.00    +0.160 C 
BRANCH  13  14
ATOM     14  C   UNL     1       9.175  -3.667  24.499  0.00  0.00    +0.028 C 
BRANCH  14  15
ATOM     15  C   UNL     1       8.102  -3.562  23.413  0.00  0.00    +0.003 C 
BRANCH  15  16
ATOM     16  C   UNL     1       7.462  -4.915  23.089  0.00  0.00    +0.017 C 
BRANCH  16  17
ATOM     17  C   UNL     1       6.166  -4.821  22.239  0.00  0.00    +0.062 C 
ATOM     18  C   UNL     1       6.237  -5.693  20.974  0.00  0.00    +0.022 C 
ATOM     19  C   UNL     1       5.917  -3.360  21.806  0.00  0.00    +0.022 C 
BRANCH  17  20
ATOM     20  C   UNL     1       4.973  -5.273  23.092  0.00  0.00    +0.310 C 
ATOM     21  O   UNL     1       3.802  -5.196  22.744  0.00  0.00    -0.250 OA
BRANCH  20  22
ATOM     22  O   UNL     1       5.303  -5.786  24.301  0.00  0.00    -0.480 OA
ATOM     23  H   UNL     1       4.993  -6.697  24.458  0.00  0.00    +0.295 HD
ENDBRANCH  20  22
ENDBRANCH  17  20
ENDBRANCH  16  17
ENDBRANCH  15  16
ENDBRANCH  14  15
ENDBRANCH  13  14
ENDBRANCH   1  13
TORSDOF 14
ENDMDL
MODEL 9
REMARK VINA RESULT:      -5.3      2.362      7.054
REMARK  Name = 
REMARK  18 active torsions:
REMARK  status: ('A' for Active; 'I' for Inactive)
REMARK    1  A    between atoms: C_1  and  C_2
REMARK    2  A    between atoms: C_2  and  C_3
REMARK    3  A    between atoms: C_2  and  C_4
REMARK    4  A    between atoms: C_2  and  C_19
REMARK    5  A    between atoms: C_4  and  C_5
REMARK    6  A    between atoms: C_5  and  C_6
REMARK    7  A    between atoms: C_6  and  C_7
REMARK    8  A    between atoms: C_7  and  O_8
REMARK    9  A    between atoms: O_8  and  C_9
REMARK   10  A    between atoms: C_9  and  C_10
REMARK   11  A    between atoms: C_10  and  C_11
REMARK   12  A    between atoms: C_11  and  C_12
REMARK   13  A    between atoms: C_12  and  C_13
REMARK   14  A    between atoms: C_13  and  C_14
REMARK   15  A    between atoms: C_13  and  C_15
REMARK   16  A    between atoms: C_13  and  C_16
REMARK   17  A    between atoms: C_16  and  O_17
REMARK   18  A    between atoms: C_19  and  O_20
REMARK                            x       y       z     vdW  Elec       q    Type
REMARK                         _______ _______ _______ _____ _____    ______ ____
ROOT
ATOM      1  O   UNL     1       6.509  -2.902  26.729  0.00  0.00    -0.380 OA
ENDROOT
BRANCH   1   2
ATOM      2  C   UNL     1       7.133  -4.171  26.580  0.00  0.00    +0.160 C 
BRANCH   2   3
ATOM      3  C   UNL     1       8.433  -4.001  25.801  0.00  0.00    +0.028 C 
BRANCH   3   4
ATOM      4  C   UNL     1       8.321  -4.722  24.462  0.00  0.00    +0.003 C 
BRANCH   4   5
ATOM      5  C   UNL     1       6.892  -5.169  24.138  0.00  0.00    +0.017 C 
BRANCH   5   7
ATOM      6  C   UNL     1       5.005  -3.671  23.319  0.00  0.00    +0.022 C 
ATOM      7  C   UNL     1       6.281  -4.438  22.911  0.00  0.00    +0.062 C 
ATOM      8  C   UNL     1       7.279  -3.408  22.354  0.00  0.00    +0.022 C 
BRANCH   7   9
ATOM      9  C   UNL     1       5.932  -5.438  21.802  0.00  0.00    +0.310 C 
ATOM     10  O   UNL     1       5.946  -5.180  20.608  0.00  0.00    -0.250 OA
BRANCH   9  11
ATOM     11  O   UNL     1       5.574  -6.667  22.246  0.00  0.00    -0.480 OA
ATOM     12  H   UNL     1       6.018  -7.412  21.805  0.00  0.00    +0.295 HD
ENDBRANCH   9  11
ENDBRANCH   7   9
ENDBRANCH   5   7
ENDBRANCH   4   5
ENDBRANCH   3   4
ENDBRANCH   2   3
ENDBRANCH   1   2
BRANCH   1  13
ATOM     13  C   UNL     1       7.423  -1.841  26.444  0.00  0.00    +0.160 C 
BRANCH  13  14
ATOM     14  C   UNL     1       6.830  -0.961  25.348  0.00  0.00    +0.028 C 
BRANCH  14  15
ATOM     15  C   UNL     1       7.819   0.135  24.945  0.00  0.00    +0.003 C 
BRANCH  15  16
ATOM     16  C   UNL     1       8.156   0.100  23.451  0.00  0.00    +0.017 C 
BRANCH  16  17
ATOM     17  C   UNL     1       9.676   0.123  23.140  0.00  0.00    +0.062 C 
ATOM     18  C   UNL     1      10.511   0.554  24.358  0.00  0.00    +0.022 C 
ATOM     19  C   UNL     1       9.970   1.101  21.983  0.00  0.00    +0.022 C 
BRANCH  17  20
ATOM     20  C   UNL     1      10.120  -1.279  22.701  0.00  0.00    +0.310 C 
ATOM     21  O   UNL     1      10.433  -2.180  23.467  0.00  0.00    -0.250 OA
BRANCH  20  22
ATOM     22  O   UNL     1      10.143  -1.472  21.360  0.00  0.00    -0.480 OA
ATOM     23  H   UNL     1      10.913  -1.085  20.904  0.00  0.00    +0.295 HD
ENDBRANCH  20  22
ENDBRANCH  17  20
ENDBRANCH  16  17
ENDBRANCH  15  16
ENDBRANCH  14  15
ENDBRANCH  13  14
ENDBRANCH   1  13
TORSDOF 14
ENDMDL
