MODEL 1
REMARK VINA RESULT:      -5.1      0.000      0.000
REMARK  Name = 
REMARK  6 active torsions:
REMARK  status: ('A' for Active; 'I' for Inactive)
REMARK    1  A    between atoms: C_5  and  C_7
REMARK    2  A    between atoms: C_7  and  C_8
REMARK    3  A    between atoms: C_8  and  C_9
REMARK    4  A    between atoms: C_9  and  C_10
REMARK    5  A    between atoms: C_10  and  C_11
REMARK    6  A    between atoms: C_11  and  O_12
REMARK                            x       y       z     vdW  Elec       q    Type
REMARK                         _______ _______ _______ _____ _____    ______ ____
ROOT
ATOM      1  C   UNL     1       8.091   2.870  22.265  0.00  0.00    +0.105 C 
ATOM      2  N   UNL     1       7.887   1.473  21.954  0.00  0.00    -0.294 N 
ATOM      3  H   UNL     1       7.021   1.046  21.651  0.00  0.00    +0.151 HD
ATOM      4  C   UNL     1       9.083   0.945  21.481  0.00  0.00    +0.300 C 
ATOM      5  O   UNL     1       9.229  -0.128  20.930  0.00  0.00    -0.253 OA
ATOM      6  N   UNL     1      10.082   1.869  21.760  0.00  0.00    -0.294 N 
ATOM      7  H   UNL     1      11.052   1.656  21.567  0.00  0.00    +0.151 HD
ATOM      8  C   UNL     1       9.577   2.901  22.632  0.00  0.00    +0.108 C 
ATOM      9  C   UNL     1       9.719   2.601  24.148  0.00  0.00    +0.069 C 
ATOM     10  S   UNL     1       8.157   3.175  24.925  0.00  0.00    -0.154 S 
ATOM     11  C   UNL     1       7.263   3.466  23.381  0.00  0.00    +0.093 C 
ENDROOT
BRANCH   9  12
ATOM     12  C   UNL     1       9.958   1.146  24.606  0.00  0.00    +0.016 C 
BRANCH  12  13
ATOM     13  C   UNL     1       8.810   0.480  25.384  0.00  0.00    +0.002 C 
BRANCH  13  14
ATOM     14  C   UNL     1       8.893  -1.044  25.486  0.00  0.00    +0.011 C 
BRANCH  14  15
ATOM     15  C   UNL     1       8.672  -1.712  24.130  0.00  0.00    +0.120 C 
BRANCH  15  16
ATOM     16  C   UNL     1       9.837  -2.571  23.714  0.00  0.00    +0.305 C 
ATOM     17  O   UNL     1      10.149  -3.640  24.209  0.00  0.00    -0.251 OA
BRANCH  16  18
ATOM     18  O   UNL     1      10.521  -2.026  22.677  0.00  0.00    -0.481 OA
ATOM     19  H   UNL     1      11.282  -2.565  22.383  0.00  0.00    +0.295 HD
ENDBRANCH  16  18
ENDBRANCH  15  16
ENDBRANCH  14  15
ENDBRANCH  13  14
ENDBRANCH  12  13
ENDBRANCH   9  12
TORSDOF 6
ENDMDL
MODEL 2
REMARK VINA RESULT:      -5.0      3.909      6.049
REMARK  Name = 
REMARK  6 active torsions:
REMARK  status: ('A' for Active; 'I' for Inactive)
REMARK    1  A    between atoms: C_5  and  C_7
REMARK    2  A    between atoms: C_7  and  C_8
REMARK    3  A    between atoms: C_8  and  C_9
REMARK    4  A    between atoms: C_9  and  C_10
REMARK    5  A    between atoms: C_10  and  C_11
REMARK    6  A    between atoms: C_11  and  O_12
REMARK                            x       y       z     vdW  Elec       q    Type
REMARK                         _______ _______ _______ _____ _____    ______ ____
ROOT
ATOM      1  C   UNL     1       7.369  -5.080  23.785  0.00  0.00    +0.105 C 
ATOM      2  N   UNL     1       7.420  -5.305  22.358  0.00  0.00    -0.294 N 
ATOM      3  H   UNL     1       7.871  -6.082  21.889  0.00  0.00    +0.151 HD
ATOM      4  C   UNL     1       6.279  -4.761  21.781  0.00  0.00    +0.300 C 
ATOM      5  O   UNL     1       5.886  -4.946  20.647  0.00  0.00    -0.253 OA
ATOM      6  N   UNL     1       5.674  -3.958  22.739  0.00  0.00    -0.294 N 
ATOM      7  H   UNL     1       4.862  -3.401  22.510  0.00  0.00    +0.151 HD
ATOM      8  C   UNL     1       6.551  -3.788  23.873  0.00  0.00    +0.108 C 
ATOM      9  C   UNL     1       7.519  -2.581  23.773  0.00  0.00    +0.069 C 
ATOM     10  S   UNL     1       9.129  -3.168  24.433  0.00  0.00    -0.154 S 
ATOM     11  C   UNL     1       8.684  -4.918  24.514  0.00  0.00    +0.093 C 
ENDROOT
BRANCH   9  12
ATOM     12  C   UNL     1       7.787  -1.945  22.391  0.00  0.00    +0.016 C 
BRANCH  12  13
ATOM     13  C   UNL     1       9.264  -1.776  21.996  0.00  0.00    +0.002 C 
BRANCH  13  14
ATOM     14  C   UNL     1       9.694  -0.338  21.697  0.00  0.00    +0.011 C 
BRANCH  14  15
ATOM     15  C   UNL     1       9.998   0.435  22.979  0.00  0.00    +0.120 C 
BRANCH  15  16
ATOM     16  C   UNL     1      10.223   1.903  22.727  0.00  0.00    +0.305 C 
ATOM     17  O   UNL     1      10.639   2.711  23.539  0.00  0.00    -0.251 OA
BRANCH  16  18
ATOM     18  O   UNL     1       9.927   2.247  21.449  0.00  0.00    -0.481 OA
ATOM     19  H   UNL     1      10.617   1.994  20.804  0.00  0.00    +0.295 HD
ENDBRANCH  16  18
ENDBRANCH  15  16
ENDBRANCH  14  15
ENDBRANCH  13  14
ENDBRANCH  12  13
ENDBRANCH   9  12
TORSDOF 6
ENDMDL
MODEL 3
REMARK VINA RESULT:      -5.0      3.332      5.215
REMARK  Name = 
REMARK  6 active torsions:
REMARK  status: ('A' for Active; 'I' for Inactive)
REMARK    1  A    between atoms: C_5  and  C_7
REMARK    2  A    between atoms: C_7  and  C_8
REMARK    3  A    between atoms: C_8  and  C_9
REMARK    4  A    between atoms: C_9  and  C_10
REMARK    5  A    between atoms: C_10  and  C_11
REMARK    6  A    between atoms: C_11  and  O_12
REMARK                            x       y       z     vdW  Elec       q    Type
REMARK                         _______ _______ _______ _____ _____    ______ ____
ROOT
ATOM      1  C   UNL     1       7.237  -3.593  24.027  0.00  0.00    +0.105 C 
ATOM      2  N   UNL     1       7.022  -4.132  22.704  0.00  0.00    -0.294 N 
ATOM      3  H   UNL     1       7.058  -5.109  22.442  0.00  0.00    +0.151 HD
ATOM      4  C   UNL     1       6.140  -3.300  22.023  0.00  0.00    +0.300 C 
ATOM      5  O   UNL     1       5.573  -3.550  20.979  0.00  0.00    -0.253 OA
ATOM      6  N   UNL     1       6.034  -2.124  22.755  0.00  0.00    -0.294 N 
ATOM      7  H   UNL     1       5.497  -1.342  22.403  0.00  0.00    +0.151 HD
ATOM      8  C   UNL     1       7.032  -2.093  23.797  0.00  0.00    +0.108 C 
ATOM      9  C   UNL     1       8.388  -1.465  23.381  0.00  0.00    +0.069 C 
ATOM     10  S   UNL     1       9.687  -2.515  24.146  0.00  0.00    -0.154 S 
ATOM     11  C   UNL     1       8.581  -3.844  24.674  0.00  0.00    +0.093 C 
ENDROOT
BRANCH   9  12
ATOM     12  C   UNL     1       8.724  -1.331  21.879  0.00  0.00    +0.016 C 
BRANCH  12  13
ATOM     13  C   UNL     1       9.638  -0.156  21.489  0.00  0.00    +0.002 C 
BRANCH  13  14
ATOM     14  C   UNL     1       9.133   1.225  21.909  0.00  0.00    +0.011 C 
BRANCH  14  15
ATOM     15  C   UNL     1      10.198   2.003  22.680  0.00  0.00    +0.120 C 
BRANCH  15  16
ATOM     16  C   UNL     1      10.375   1.498  24.087  0.00  0.00    +0.305 C 
ATOM     17  O   UNL     1      11.286   0.792  24.484  0.00  0.00    -0.251 OA
BRANCH  16  18
ATOM     18  O   UNL     1       9.393   1.943  24.910  0.00  0.00    -0.481 OA
ATOM     19  H   UNL     1       8.518   1.547  24.727  0.00  0.00    +0.295 HD
ENDBRANCH  16  18
ENDBRANCH  15  16
ENDBRANCH  14  15
ENDBRANCH  13  14
ENDBRANCH  12  13
ENDBRANCH   9  12
TORSDOF 6
ENDMDL
MODEL 4
REMARK VINA RESULT:      -5.0      2.329      3.162
REMARK  Name = 
REMARK  6 active torsions:
REMARK  status: ('A' for Active; 'I' for Inactive)
REMARK    1  A    between atoms: C_5  and  C_7
REMARK    2  A    between atoms: C_7  and  C_8
REMARK    3  A    between atoms: C_8  and  C_9
REMARK    4  A    between atoms: C_9  and  C_10
REMARK    5  A    between atoms: C_10  and  C_11
REMARK    6  A    between atoms: C_11  and  O_12
REMARK                            x       y       z     vdW  Elec       q    Type
REMARK                         _______ _______ _______ _____ _____    ______ ____
ROOT
ATOM      1  C   UNL     1       9.933   0.000  22.240  0.00  0.00    +0.105 C 
ATOM      2  N   UNL     1       8.603  -0.484  21.945  0.00  0.00    -0.294 N 
ATOM      3  H   UNL     1       7.993  -0.150  21.209  0.00  0.00    +0.151 HD
ATOM      4  C   UNL     1       8.529  -1.825  22.303  0.00  0.00    +0.300 C 
ATOM      5  O   UNL     1       7.645  -2.603  22.006  0.00  0.00    -0.253 OA
ATOM      6  N   UNL     1       9.650  -2.110  23.072  0.00  0.00    -0.294 N 
ATOM      7  H   UNL     1       9.764  -3.017  23.505  0.00  0.00    +0.151 HD
ATOM      8  C   UNL     1      10.341  -0.891  23.417  0.00  0.00    +0.108 C 
ATOM      9  C   UNL     1       9.865  -0.222  24.733  0.00  0.00    +0.069 C 
ATOM     10  S   UNL     1       9.828   1.584  24.398  0.00  0.00    -0.154 S 
ATOM     11  C   UNL     1      10.079   1.459  22.612  0.00  0.00    +0.093 C 
ENDROOT
BRANCH   9  12
ATOM     12  C   UNL     1       8.491  -0.614  25.320  0.00  0.00    +0.016 C 
BRANCH  12  13
ATOM     13  C   UNL     1       8.509  -1.637  26.469  0.00  0.00    +0.002 C 
BRANCH  13  14
ATOM     14  C   UNL     1       7.969  -3.023  26.112  0.00  0.00    +0.011 C 
BRANCH  14  15
ATOM     15  C   UNL     1       8.986  -4.120  26.420  0.00  0.00    +0.120 C 
BRANCH  15  16
ATOM     16  C   UNL     1       9.212  -5.041  25.251  0.00  0.00    +0.305 C 
ATOM     17  O   UNL     1       8.854  -4.840  24.104  0.00  0.00    -0.251 OA
BRANCH  16  18
ATOM     18  O   UNL     1       9.902  -6.152  25.610  0.00  0.00    -0.481 OA
ATOM     19  H   UNL     1      10.337  -6.604  24.859  0.00  0.00    +0.295 HD
ENDBRANCH  16  18
ENDBRANCH  15  16
ENDBRANCH  14  15
ENDBRANCH  13  14
ENDBRANCH  12  13
ENDBRANCH   9  12
TORSDOF 6
ENDMDL
MODEL 5
REMARK VINA RESULT:      -5.0      3.665      5.947
REMARK  Name = 
REMARK  6 active torsions:
REMARK  status: ('A' for Active; 'I' for Inactive)
REMARK    1  A    between atoms: C_5  and  C_7
REMARK    2  A    between atoms: C_7  and  C_8
REMARK    3  A    between atoms: C_8  and  C_9
REMARK    4  A    between atoms: C_9  and  C_10
REMARK    5  A    between atoms: C_10  and  C_11
REMARK    6  A    between atoms: C_11  and  O_12
REMARK                            x       y       z     vdW  Elec       q    Type
REMARK                         _______ _______ _______ _____ _____    ______ ____
ROOT
ATOM      1  C   UNL     1       7.882  -4.977  24.100  0.00  0.00    +0.105 C 
ATOM      2  N   UNL     1       7.016  -4.798  25.244  0.00  0.00    -0.294 N 
ATOM      3  H   UNL     1       6.085  -5.177  25.356  0.00  0.00    +0.151 HD
ATOM      4  C   UNL     1       7.806  -4.644  26.378  0.00  0.00    +0.300 C 
ATOM      5  O   UNL     1       7.427  -4.686  27.531  0.00  0.00    -0.253 OA
ATOM      6  N   UNL     1       9.109  -4.428  25.948  0.00  0.00    -0.294 N 
ATOM      7  H   UNL     1       9.844  -4.215  26.610  0.00  0.00    +0.151 HD
ATOM      8  C   UNL     1       9.133  -4.202  24.523  0.00  0.00    +0.108 C 
ATOM      9  C   UNL     1       8.967  -2.720  24.095  0.00  0.00    +0.069 C 
ATOM     10  S   UNL     1       7.862  -2.739  22.628  0.00  0.00    -0.154 S 
ATOM     11  C   UNL     1       7.384  -4.477  22.762  0.00  0.00    +0.093 C 
ENDROOT
BRANCH   9  12
ATOM     12  C   UNL     1       8.381  -1.708  25.104  0.00  0.00    +0.016 C 
BRANCH  12  13
ATOM     13  C   UNL     1       9.232  -0.457  25.384  0.00  0.00    +0.002 C 
BRANCH  13  14
ATOM     14  C   UNL     1      10.349  -0.193  24.373  0.00  0.00    +0.011 C 
BRANCH  14  15
ATOM     15  C   UNL     1      10.152   1.139  23.652  0.00  0.00    +0.120 C 
BRANCH  15  16
ATOM     16  C   UNL     1       9.980   0.971  22.166  0.00  0.00    +0.305 C 
ATOM     17  O   UNL     1       9.895  -0.090  21.572  0.00  0.00    -0.251 OA
BRANCH  16  18
ATOM     18  O   UNL     1       9.905   2.165  21.528  0.00  0.00    -0.481 OA
ATOM     19  H   UNL     1       9.714   2.917  22.123  0.00  0.00    +0.295 HD
ENDBRANCH  16  18
ENDBRANCH  15  16
ENDBRANCH  14  15
ENDBRANCH  13  14
ENDBRANCH  12  13
ENDBRANCH   9  12
TORSDOF 6
ENDMDL
MODEL 6
REMARK VINA RESULT:      -4.9      3.885      6.263
REMARK  Name = 
REMARK  6 active torsions:
REMARK  status: ('A' for Active; 'I' for Inactive)
REMARK    1  A    between atoms: C_5  and  C_7
REMARK    2  A    between atoms: C_7  and  C_8
REMARK    3  A    between atoms: C_8  and  C_9
REMARK    4  A    between atoms: C_9  and  C_10
REMARK    5  A    between atoms: C_10  and  C_11
REMARK    6  A    between atoms: C_11  and  O_12
REMARK                            x       y       z     vdW  Elec       q    Type
REMARK                         _______ _______ _______ _____ _____    ______ ____
ROOT
ATOM      1  C   UNL     1       6.298  -5.020  24.009  0.00  0.00    +0.105 C 
ATOM      2  N   UNL     1       6.625  -4.541  25.333  0.00  0.00    -0.294 N 
ATOM      3  H   UNL     1       5.997  -4.494  26.126  0.00  0.00    +0.151 HD
ATOM      4  C   UNL     1       7.973  -4.784  25.573  0.00  0.00    +0.300 C 
ATOM      5  O   UNL     1       8.539  -4.710  26.645  0.00  0.00    -0.253 OA
ATOM      6  N   UNL     1       8.554  -5.121  24.358  0.00  0.00    -0.294 N 
ATOM      7  H   UNL     1       9.553  -5.267  24.285  0.00  0.00    +0.151 HD
ATOM      8  C   UNL     1       7.634  -4.866  23.276  0.00  0.00    +0.108 C 
ATOM      9  C   UNL     1       7.709  -3.437  22.679  0.00  0.00    +0.069 C 
ATOM     10  S   UNL     1       5.972  -2.924  22.374  0.00  0.00    -0.154 S 
ATOM     11  C   UNL     1       5.201  -4.301  23.256  0.00  0.00    +0.093 C 
ENDROOT
BRANCH   9  12
ATOM     12  C   UNL     1       8.387  -2.316  23.497  0.00  0.00    +0.016 C 
BRANCH  12  13
ATOM     13  C   UNL     1       9.859  -2.022  23.159  0.00  0.00    +0.002 C 
BRANCH  13  14
ATOM     14  C   UNL     1      10.163  -0.567  22.798  0.00  0.00    +0.011 C 
BRANCH  14  15
ATOM     15  C   UNL     1       9.478  -0.155  21.497  0.00  0.00    +0.120 C 
BRANCH  15  16
ATOM     16  C   UNL     1       9.019   1.279  21.516  0.00  0.00    +0.305 C 
ATOM     17  O   UNL     1       7.860   1.658  21.519  0.00  0.00    -0.251 OA
BRANCH  16  18
ATOM     18  O   UNL     1      10.063   2.144  21.554  0.00  0.00    -0.481 OA
ATOM     19  H   UNL     1      10.795   1.850  22.131  0.00  0.00    +0.295 HD
ENDBRANCH  16  18
ENDBRANCH  15  16
ENDBRANCH  14  15
ENDBRANCH  13  14
ENDBRANCH  12  13
ENDBRANCH   9  12
TORSDOF 6
ENDMDL
MODEL 7
REMARK VINA RESULT:      -4.9      2.948      4.831
REMARK  Name = 
REMARK  6 active torsions:
REMARK  status: ('A' for Active; 'I' for Inactive)
REMARK    1  A    between atoms: C_5  and  C_7
REMARK    2  A    between atoms: C_7  and  C_8
REMARK    3  A    between atoms: C_8  and  C_9
REMARK    4  A    between atoms: C_9  and  C_10
REMARK    5  A    between atoms: C_10  and  C_11
REMARK    6  A    between atoms: C_11  and  O_12
REMARK                            x       y       z     vdW  Elec       q    Type
REMARK                         _______ _______ _______ _____ _____    ______ ____
ROOT
ATOM      1  C   UNL     1       7.137  -2.042  23.376  0.00  0.00    +0.105 C 
ATOM      2  N   UNL     1       6.489  -0.755  23.259  0.00  0.00    -0.294 N 
ATOM      3  H   UNL     1       5.966  -0.418  22.460  0.00  0.00    +0.151 HD
ATOM      4  C   UNL     1       6.099  -0.336  24.526  0.00  0.00    +0.300 C 
ATOM      5  O   UNL     1       5.349   0.584  24.782  0.00  0.00    -0.253 OA
ATOM      6  N   UNL     1       6.733  -1.161  25.446  0.00  0.00    -0.294 N 
ATOM      7  H   UNL     1       6.650  -0.988  26.440  0.00  0.00    +0.151 HD
ATOM      8  C   UNL     1       7.728  -1.972  24.787  0.00  0.00    +0.108 C 
ATOM      9  C   UNL     1       9.139  -1.333  24.702  0.00  0.00    +0.069 C 
ATOM     10  S   UNL     1       9.774  -1.731  23.026  0.00  0.00    -0.154 S 
ATOM     11  C   UNL     1       8.217  -2.376  22.372  0.00  0.00    +0.093 C 
ENDROOT
BRANCH   9  12
ATOM     12  C   UNL     1       9.285   0.191  24.905  0.00  0.00    +0.016 C 
BRANCH  12  13
ATOM     13  C   UNL     1      10.617   0.813  24.448  0.00  0.00    +0.002 C 
BRANCH  13  14
ATOM     14  C   UNL     1      10.488   2.134  23.688  0.00  0.00    +0.011 C 
BRANCH  14  15
ATOM     15  C   UNL     1      10.069   1.909  22.236  0.00  0.00    +0.120 C 
BRANCH  15  16
ATOM     16  C   UNL     1       8.610   2.199  22.006  0.00  0.00    +0.305 C 
ATOM     17  O   UNL     1       7.741   1.371  21.794  0.00  0.00    -0.251 OA
BRANCH  16  18
ATOM     18  O   UNL     1       8.341   3.527  22.081  0.00  0.00    -0.481 OA
ATOM     19  H   UNL     1       7.995   3.905  21.249  0.00  0.00    +0.295 HD
ENDBRANCH  16  18
ENDBRANCH  15  16
ENDBRANCH  14  15
ENDBRANCH  13  14
ENDBRANCH  12  13
ENDBRANCH   9  12
TORSDOF 6
ENDMDL
MODEL 8
REMARK VINA RESULT:      -4.8      2.317      3.000
REMARK  Name = 
REMARK  6 active torsions:
REMARK  status: ('A' for Active; 'I' for Inactive)
REMARK    1  A    between atoms: C_5  and  C_7
REMARK    2  A    between atoms: C_7  and  C_8
REMARK    3  A    between atoms: C_8  and  C_9
REMARK    4  A    between atoms: C_9  and  C_10
REMARK    5  A    between atoms: C_10  and  C_11
REMARK    6  A    between atoms: C_11  and  O_12
REMARK                            x       y       z     vdW  Elec       q    Type
REMARK                         _______ _______ _______ _____ _____    ______ ____
ROOT
ATOM      1  C   UNL     1      10.029   2.253  22.794  0.00  0.00    +0.105 C 
ATOM      2  N   UNL     1       8.679   2.719  23.018  0.00  0.00    -0.294 N 
ATOM      3  H   UNL     1       8.408   3.534  23.553  0.00  0.00    +0.151 HD
ATOM      4  C   UNL     1       7.898   2.358  21.926  0.00  0.00    +0.300 C 
ATOM      5  O   UNL     1       6.781   2.763  21.673  0.00  0.00    -0.253 OA
ATOM      6  N   UNL     1       8.629   1.442  21.180  0.00  0.00    -0.294 N 
ATOM      7  H   UNL     1       8.220   0.987  20.374  0.00  0.00    +0.151 HD
ATOM      8  C   UNL     1       9.798   1.022  21.913  0.00  0.00    +0.108 C 
ATOM      9  C   UNL     1       9.585  -0.211  22.830  0.00  0.00    +0.069 C 
ATOM     10  S   UNL     1      10.503   0.147  24.380  0.00  0.00    -0.154 S 
ATOM     11  C   UNL     1      10.851   1.882  24.008  0.00  0.00    +0.093 C 
ENDROOT
BRANCH   9  12
ATOM     12  C   UNL     1       8.146  -0.612  23.225  0.00  0.00    +0.016 C 
BRANCH  12  13
ATOM     13  C   UNL     1       7.864  -2.122  23.322  0.00  0.00    +0.002 C 
BRANCH  13  14
ATOM     14  C   UNL     1       8.130  -2.743  24.695  0.00  0.00    +0.011 C 
BRANCH  14  15
ATOM     15  C   UNL     1       9.274  -3.754  24.642  0.00  0.00    +0.120 C 
BRANCH  15  16
ATOM     16  C   UNL     1       9.336  -4.619  25.873  0.00  0.00    +0.305 C 
ATOM     17  O   UNL     1       8.675  -4.468  26.886  0.00  0.00    -0.251 OA
BRANCH  16  18
ATOM     18  O   UNL     1      10.219  -5.639  25.730  0.00  0.00    -0.481 OA
ATOM     19  H   UNL     1      11.154  -5.353  25.746  0.00  0.00    +0.295 HD
ENDBRANCH  16  18
ENDBRANCH  15  16
ENDBRANCH  14  15
ENDBRANCH  13  14
ENDBRANCH  12  13
ENDBRANCH   9  12
TORSDOF 6
ENDMDL
MODEL 9
REMARK VINA RESULT:      -4.8      3.388      5.325
REMARK  Name = 
REMARK  6 active torsions:
REMARK  status: ('A' for Active; 'I' for Inactive)
REMARK    1  A    between atoms: C_5  and  C_7
REMARK    2  A    between atoms: C_7  and  C_8
REMARK    3  A    between atoms: C_8  and  C_9
REMARK    4  A    between atoms: C_9  and  C_10
REMARK    5  A    between atoms: C_10  and  C_11
REMARK    6  A    between atoms: C_11  and  O_12
REMARK                            x       y       z     vdW  Elec       q    Type
REMARK                         _______ _______ _______ _____ _____    ______ ____
ROOT
ATOM      1  C   UNL     1       8.278   0.833  22.660  0.00  0.00    +0.105 C 
ATOM      2  N   UNL     1       9.171   1.119  23.761  0.00  0.00    -0.294 N 
ATOM      3  H   UNL     1       9.338   0.529  24.566  0.00  0.00    +0.151 HD
ATOM      4  C   UNL     1      10.218   1.905  23.291  0.00  0.00    +0.300 C 
ATOM      5  O   UNL     1      11.251   2.154  23.878  0.00  0.00    -0.253 OA
ATOM      6  N   UNL     1       9.859   2.358  22.028  0.00  0.00    -0.294 N 
ATOM      7  H   UNL     1      10.447   3.011  21.527  0.00  0.00    +0.151 HD
ATOM      8  C   UNL     1       8.471   2.062  21.767  0.00  0.00    +0.108 C 
ATOM      9  C   UNL     1       7.475   3.163  22.216  0.00  0.00    +0.069 C 
ATOM     10  S   UNL     1       6.042   2.279  22.949  0.00  0.00    -0.154 S 
ATOM     11  C   UNL     1       6.813   0.644  22.980  0.00  0.00    +0.093 C 
ENDROOT
BRANCH   9  12
ATOM     12  C   UNL     1       7.939   4.223  23.239  0.00  0.00    +0.016 C 
BRANCH  12  13
ATOM     13  C   UNL     1       8.071   5.663  22.713  0.00  0.00    +0.002 C 
BRANCH  13  14
ATOM     14  C   UNL     1       9.170   6.497  23.374  0.00  0.00    +0.011 C 
BRANCH  14  15
ATOM     15  C   UNL     1      10.090   5.633  24.236  0.00  0.00    +0.120 C 
BRANCH  15  16
ATOM     16  C   UNL     1      11.520   5.669  23.767  0.00  0.00    +0.305 C 
ATOM     17  O   UNL     1      12.429   6.286  24.294  0.00  0.00    -0.251 OA
BRANCH  16  18
ATOM     18  O   UNL     1      11.711   4.898  22.667  0.00  0.00    -0.481 OA
ATOM     19  H   UNL     1      10.906   4.784  22.123  0.00  0.00    +0.295 HD
ENDBRANCH  16  18
ENDBRANCH  15  16
ENDBRANCH  14  15
ENDBRANCH  13  14
ENDBRANCH  12  13
ENDBRANCH   9  12
TORSDOF 6
ENDMDL
