MODEL 1
REMARK VINA RESULT:      -5.0      0.000      0.000
REMARK  Name = 
REMARK  4 active torsions:
REMARK  status: ('A' for Active; 'I' for Inactive)
REMARK    1  A    between atoms: C_1  and  O_2
REMARK    2  A    between atoms: O_2  and  C_3
REMARK    3  A    between atoms: C_5  and  C_10
REMARK    4  A    between atoms: C_8  and  O_9
REMARK                            x       y       z     vdW  Elec       q    Type
REMARK                         _______ _______ _______ _____ _____    ______ ____
ROOT
ATOM      1  C   UNL     1       9.860   1.085  23.629  0.00  0.00    +0.162 A 
ATOM      2  C   UNL     1       9.868   1.020  22.231  0.00  0.00    +0.158 A 
ATOM      3  C   UNL     1       9.722  -0.199  21.569  0.00  0.00    +0.050 A 
ATOM      4  C   UNL     1       9.562  -1.371  22.311  0.00  0.00    +0.013 A 
ATOM      5  C   UNL     1       9.536  -1.339  23.714  0.00  0.00    +0.001 A 
ATOM      6  C   UNL     1       9.678  -0.095  24.359  0.00  0.00    +0.059 A 
ENDROOT
BRANCH   5   7
ATOM      7  C   UNL     1       9.364  -2.613  24.519  0.00  0.00    +0.072 C 
ATOM      8  O   UNL     1       8.525  -2.582  25.475  0.00  0.00    -0.545 OA
ATOM      9  O   UNL     1      10.067  -3.614  24.177  0.00  0.00    -0.545 OA
ENDBRANCH   5   7
BRANCH   1  11
ATOM     10  C   UNL     1       8.813   2.893  24.723  0.00  0.00    +0.277 C 
ATOM     11  O   UNL     1      10.006   2.326  24.194  0.00  0.00    -0.491 OA
ENDBRANCH   1  11
BRANCH   2  12
ATOM     12  O   UNL     1      10.042   2.169  21.502  0.00  0.00    -0.503 OA
ATOM     13  H   UNL     1      10.076   1.924  20.566  0.00  0.00    +0.292 HD
ENDBRANCH   2  12
TORSDOF 3
ENDMDL
MODEL 2
REMARK VINA RESULT:      -4.8      3.956      6.322
REMARK  Name = 
REMARK  4 active torsions:
REMARK  status: ('A' for Active; 'I' for Inactive)
REMARK    1  A    between atoms: C_1  and  O_2
REMARK    2  A    between atoms: O_2  and  C_3
REMARK    3  A    between atoms: C_5  and  C_10
REMARK    4  A    between atoms: C_8  and  O_9
REMARK                            x       y       z     vdW  Elec       q    Type
REMARK                         _______ _______ _______ _____ _____    ______ ____
ROOT
ATOM      1  C   UNL     1       8.432  -4.547  24.601  0.00  0.00    +0.162 A 
ATOM      2  C   UNL     1       8.035  -5.017  25.858  0.00  0.00    +0.158 A 
ATOM      3  C   UNL     1       6.745  -5.504  26.067  0.00  0.00    +0.050 A 
ATOM      4  C   UNL     1       5.837  -5.526  25.006  0.00  0.00    +0.013 A 
ATOM      5  C   UNL     1       6.207  -5.074  23.730  0.00  0.00    +0.001 A 
ATOM      6  C   UNL     1       7.518  -4.594  23.543  0.00  0.00    +0.059 A 
ENDROOT
BRANCH   5   7
ATOM      7  C   UNL     1       5.219  -5.097  22.579  0.00  0.00    +0.072 C 
ATOM      8  O   UNL     1       4.049  -4.657  22.814  0.00  0.00    -0.545 OA
ATOM      9  O   UNL     1       5.634  -5.552  21.468  0.00  0.00    -0.545 OA
ENDBRANCH   5   7
BRANCH   1  11
ATOM     10  C   UNL     1       9.848  -2.757  24.008  0.00  0.00    +0.277 C 
ATOM     11  O   UNL     1       9.721  -4.090  24.487  0.00  0.00    -0.491 OA
ENDBRANCH   1  11
BRANCH   2  12
ATOM     12  O   UNL     1       8.921  -4.980  26.905  0.00  0.00    -0.503 OA
ATOM     13  H   UNL     1       8.487  -4.531  27.645  0.00  0.00    +0.292 HD
ENDBRANCH   2  12
TORSDOF 3
ENDMDL
MODEL 3
REMARK VINA RESULT:      -4.6      1.624      4.405
REMARK  Name = 
REMARK  4 active torsions:
REMARK  status: ('A' for Active; 'I' for Inactive)
REMARK    1  A    between atoms: C_1  and  O_2
REMARK    2  A    between atoms: O_2  and  C_3
REMARK    3  A    between atoms: C_5  and  C_10
REMARK    4  A    between atoms: C_8  and  O_9
REMARK                            x       y       z     vdW  Elec       q    Type
REMARK                         _______ _______ _______ _____ _____    ______ ____
ROOT
ATOM      1  C   UNL     1       9.822  -0.367  23.769  0.00  0.00    +0.162 A 
ATOM      2  C   UNL     1       9.493  -0.646  22.438  0.00  0.00    +0.158 A 
ATOM      3  C   UNL     1       9.479   0.366  21.478  0.00  0.00    +0.050 A 
ATOM      4  C   UNL     1       9.803   1.673  21.847  0.00  0.00    +0.013 A 
ATOM      5  C   UNL     1      10.150   1.982  23.171  0.00  0.00    +0.001 A 
ATOM      6  C   UNL     1      10.164   0.942  24.122  0.00  0.00    +0.059 A 
ENDROOT
BRANCH   5   7
ATOM      7  C   UNL     1      10.500   3.403  23.573  0.00  0.00    +0.072 C 
ATOM      8  O   UNL     1      11.688   3.792  23.338  0.00  0.00    -0.545 OA
ATOM      9  O   UNL     1       9.581   4.096  24.110  0.00  0.00    -0.545 OA
ENDBRANCH   5   7
BRANCH   1  11
ATOM     10  C   UNL     1       8.760  -1.407  25.601  0.00  0.00    +0.277 C 
ATOM     11  O   UNL     1       9.814  -1.424  24.645  0.00  0.00    -0.491 OA
ENDBRANCH   1  11
BRANCH   2  12
ATOM     12  O   UNL     1       9.158  -1.926  22.077  0.00  0.00    -0.503 OA
ATOM     13  H   UNL     1       8.203  -1.950  21.923  0.00  0.00    +0.292 HD
ENDBRANCH   2  12
TORSDOF 3
ENDMDL
MODEL 4
REMARK VINA RESULT:      -4.6      4.986      6.828
REMARK  Name = 
REMARK  4 active torsions:
REMARK  status: ('A' for Active; 'I' for Inactive)
REMARK    1  A    between atoms: C_1  and  O_2
REMARK    2  A    between atoms: O_2  and  C_3
REMARK    3  A    between atoms: C_5  and  C_10
REMARK    4  A    between atoms: C_8  and  O_9
REMARK                            x       y       z     vdW  Elec       q    Type
REMARK                         _______ _______ _______ _____ _____    ______ ____
ROOT
ATOM      1  C   UNL     1       6.443  -5.127  23.383  0.00  0.00    +0.162 A 
ATOM      2  C   UNL     1       5.239  -5.837  23.435  0.00  0.00    +0.158 A 
ATOM      3  C   UNL     1       4.777  -6.378  24.635  0.00  0.00    +0.050 A 
ATOM      4  C   UNL     1       5.523  -6.203  25.802  0.00  0.00    +0.013 A 
ATOM      5  C   UNL     1       6.728  -5.484  25.786  0.00  0.00    +0.001 A 
ATOM      6  C   UNL     1       7.171  -4.942  24.563  0.00  0.00    +0.059 A 
ENDROOT
BRANCH   5   7
ATOM      7  C   UNL     1       7.540  -5.296  27.055  0.00  0.00    +0.072 C 
ATOM      8  O   UNL     1       7.203  -5.996  28.063  0.00  0.00    -0.545 OA
ATOM      9  O   UNL     1       8.493  -4.458  27.014  0.00  0.00    -0.545 OA
ENDBRANCH   5   7
BRANCH   1  11
ATOM     10  C   UNL     1       7.226  -3.265  22.164  0.00  0.00    +0.277 C 
ATOM     11  O   UNL     1       6.818  -4.628  22.161  0.00  0.00    -0.491 OA
ENDBRANCH   1  11
BRANCH   2  12
ATOM     12  O   UNL     1       4.514  -6.024  22.285  0.00  0.00    -0.503 OA
ATOM     13  H   UNL     1       3.604  -6.233  22.539  0.00  0.00    +0.292 HD
ENDBRANCH   2  12
TORSDOF 3
ENDMDL
MODEL 5
REMARK VINA RESULT:      -4.5      3.981      6.799
REMARK  Name = 
REMARK  4 active torsions:
REMARK  status: ('A' for Active; 'I' for Inactive)
REMARK    1  A    between atoms: C_1  and  O_2
REMARK    2  A    between atoms: O_2  and  C_3
REMARK    3  A    between atoms: C_5  and  C_10
REMARK    4  A    between atoms: C_8  and  O_9
REMARK                            x       y       z     vdW  Elec       q    Type
REMARK                         _______ _______ _______ _____ _____    ______ ____
ROOT
ATOM      1  C   UNL     1       6.667  -5.363  25.749  0.00  0.00    +0.162 A 
ATOM      2  C   UNL     1       7.770  -5.355  26.610  0.00  0.00    +0.158 A 
ATOM      3  C   UNL     1       8.933  -4.661  26.276  0.00  0.00    +0.050 A 
ATOM      4  C   UNL     1       8.997  -3.963  25.069  0.00  0.00    +0.013 A 
ATOM      5  C   UNL     1       7.903  -3.941  24.190  0.00  0.00    +0.001 A 
ATOM      6  C   UNL     1       6.737  -4.643  24.552  0.00  0.00    +0.059 A 
ENDROOT
BRANCH   5   7
ATOM      7  C   UNL     1       7.974  -3.182  22.877  0.00  0.00    +0.072 C 
ATOM      8  O   UNL     1       7.034  -3.383  22.044  0.00  0.00    -0.545 OA
ATOM      9  O   UNL     1       8.964  -2.404  22.710  0.00  0.00    -0.545 OA
ENDBRANCH   5   7
BRANCH   1  11
ATOM     10  C   UNL     1       4.767  -6.608  25.112  0.00  0.00    +0.277 C 
ATOM     11  O   UNL     1       5.564  -6.069  26.160  0.00  0.00    -0.491 OA
ENDBRANCH   1  11
BRANCH   2  12
ATOM     12  O   UNL     1       7.715  -6.055  27.788  0.00  0.00    -0.503 OA
ATOM     13  H   UNL     1       6.835  -5.922  28.171  0.00  0.00    +0.292 HD
ENDBRANCH   2  12
TORSDOF 3
ENDMDL
MODEL 6
REMARK VINA RESULT:      -4.5      5.651      7.233
REMARK  Name = 
REMARK  4 active torsions:
REMARK  status: ('A' for Active; 'I' for Inactive)
REMARK    1  A    between atoms: C_1  and  O_2
REMARK    2  A    between atoms: O_2  and  C_3
REMARK    3  A    between atoms: C_5  and  C_10
REMARK    4  A    between atoms: C_8  and  O_9
REMARK                            x       y       z     vdW  Elec       q    Type
REMARK                         _______ _______ _______ _____ _____    ______ ____
ROOT
ATOM      1  C   UNL     1       6.554  -5.640  26.044  0.00  0.00    +0.162 A 
ATOM      2  C   UNL     1       7.888  -5.235  25.921  0.00  0.00    +0.158 A 
ATOM      3  C   UNL     1       8.393  -4.794  24.699  0.00  0.00    +0.050 A 
ATOM      4  C   UNL     1       7.556  -4.750  23.582  0.00  0.00    +0.013 A 
ATOM      5  C   UNL     1       6.210  -5.136  23.675  0.00  0.00    +0.001 A 
ATOM      6  C   UNL     1       5.721  -5.572  24.922  0.00  0.00    +0.059 A 
ENDROOT
BRANCH   5   7
ATOM      7  C   UNL     1       5.302  -5.090  22.460  0.00  0.00    +0.072 C 
ATOM      8  O   UNL     1       4.091  -5.441  22.632  0.00  0.00    -0.545 OA
ATOM      9  O   UNL     1       5.817  -4.703  21.365  0.00  0.00    -0.545 OA
ENDBRANCH   5   7
BRANCH   1  11
ATOM     10  C   UNL     1       4.921  -6.786  27.302  0.00  0.00    +0.277 C 
ATOM     11  O   UNL     1       6.142  -6.056  27.285  0.00  0.00    -0.491 OA
ENDBRANCH   1  11
BRANCH   2  12
ATOM     12  O   UNL     1       8.716  -5.294  27.014  0.00  0.00    -0.503 OA
ATOM     13  H   UNL     1       8.800  -4.399  27.371  0.00  0.00    +0.292 HD
ENDBRANCH   2  12
TORSDOF 3
ENDMDL
MODEL 7
REMARK VINA RESULT:      -4.5      1.984      3.326
REMARK  Name = 
REMARK  4 active torsions:
REMARK  status: ('A' for Active; 'I' for Inactive)
REMARK    1  A    between atoms: C_1  and  O_2
REMARK    2  A    between atoms: O_2  and  C_3
REMARK    3  A    between atoms: C_5  and  C_10
REMARK    4  A    between atoms: C_8  and  O_9
REMARK                            x       y       z     vdW  Elec       q    Type
REMARK                         _______ _______ _______ _____ _____    ______ ____
ROOT
ATOM      1  C   UNL     1       9.853  -1.213  24.113  0.00  0.00    +0.162 A 
ATOM      2  C   UNL     1       9.445  -0.492  25.242  0.00  0.00    +0.158 A 
ATOM      3  C   UNL     1       8.745  -1.116  26.275  0.00  0.00    +0.050 A 
ATOM      4  C   UNL     1       8.451  -2.478  26.185  0.00  0.00    +0.013 A 
ATOM      5  C   UNL     1       8.857  -3.231  25.073  0.00  0.00    +0.001 A 
ATOM      6  C   UNL     1       9.569  -2.581  24.045  0.00  0.00    +0.059 A 
ENDROOT
BRANCH   5   7
ATOM      7  C   UNL     1       8.535  -4.710  24.975  0.00  0.00    +0.072 C 
ATOM      8  O   UNL     1       7.385  -5.078  25.377  0.00  0.00    -0.545 OA
ATOM      9  O   UNL     1       9.435  -5.469  24.498  0.00  0.00    -0.545 OA
ENDBRANCH   5   7
BRANCH   1  11
ATOM     10  C   UNL     1       9.843  -0.348  21.919  0.00  0.00    +0.277 C 
ATOM     11  O   UNL     1      10.539  -0.519  23.148  0.00  0.00    -0.491 OA
ENDBRANCH   1  11
BRANCH   2  12
ATOM     12  O   UNL     1       9.719   0.849  25.323  0.00  0.00    -0.503 OA
ATOM     13  H   UNL     1      10.100   1.126  24.477  0.00  0.00    +0.292 HD
ENDBRANCH   2  12
TORSDOF 3
ENDMDL
MODEL 8
REMARK VINA RESULT:      -4.4      1.656      2.324
REMARK  Name = 
REMARK  4 active torsions:
REMARK  status: ('A' for Active; 'I' for Inactive)
REMARK    1  A    between atoms: C_1  and  O_2
REMARK    2  A    between atoms: O_2  and  C_3
REMARK    3  A    between atoms: C_5  and  C_10
REMARK    4  A    between atoms: C_8  and  O_9
REMARK                            x       y       z     vdW  Elec       q    Type
REMARK                         _______ _______ _______ _____ _____    ______ ____
ROOT
ATOM      1  C   UNL     1       8.967   1.676  22.384  0.00  0.00    +0.162 A 
ATOM      2  C   UNL     1       9.950   2.223  23.217  0.00  0.00    +0.158 A 
ATOM      3  C   UNL     1      10.757   1.404  24.006  0.00  0.00    +0.050 A 
ATOM      4  C   UNL     1      10.585   0.019  23.962  0.00  0.00    +0.013 A 
ATOM      5  C   UNL     1       9.617  -0.562  23.128  0.00  0.00    +0.001 A 
ATOM      6  C   UNL     1       8.819   0.286  22.335  0.00  0.00    +0.059 A 
ENDROOT
BRANCH   5   7
ATOM      7  C   UNL     1       9.430  -2.067  23.083  0.00  0.00    +0.072 C 
ATOM      8  O   UNL     1       8.457  -2.506  22.390  0.00  0.00    -0.545 OA
ATOM      9  O   UNL     1      10.258  -2.774  23.737  0.00  0.00    -0.545 OA
ENDBRANCH   5   7
BRANCH   1  11
ATOM     10  C   UNL     1       6.883   2.738  22.083  0.00  0.00    +0.277 C 
ATOM     11  O   UNL     1       8.222   2.557  21.640  0.00  0.00    -0.491 OA
ENDBRANCH   1  11
BRANCH   2  12
ATOM     12  O   UNL     1      10.108   3.585  23.273  0.00  0.00    -0.503 OA
ATOM     13  H   UNL     1       9.415   3.986  22.729  0.00  0.00    +0.292 HD
ENDBRANCH   2  12
TORSDOF 3
ENDMDL
MODEL 9
REMARK VINA RESULT:      -4.4      2.804      4.711
REMARK  Name = 
REMARK  4 active torsions:
REMARK  status: ('A' for Active; 'I' for Inactive)
REMARK    1  A    between atoms: C_1  and  O_2
REMARK    2  A    between atoms: O_2  and  C_3
REMARK    3  A    between atoms: C_5  and  C_10
REMARK    4  A    between atoms: C_8  and  O_9
REMARK                            x       y       z     vdW  Elec       q    Type
REMARK                         _______ _______ _______ _____ _____    ______ ____
ROOT
ATOM      1  C   UNL     1       8.170  -1.076  22.634  0.00  0.00    +0.162 A 
ATOM      2  C   UNL     1       9.288  -0.677  21.894  0.00  0.00    +0.158 A 
ATOM      3  C   UNL     1       9.423   0.640  21.455  0.00  0.00    +0.050 A 
ATOM      4  C   UNL     1       8.431   1.574  21.762  0.00  0.00    +0.013 A 
ATOM      5  C   UNL     1       7.304   1.209  22.514  0.00  0.00    +0.001 A 
ATOM      6  C   UNL     1       7.194  -0.126  22.952  0.00  0.00    +0.059 A 
ENDROOT
BRANCH   5   7
ATOM      7  C   UNL     1       6.227   2.224  22.845  0.00  0.00    +0.072 C 
ATOM      8  O   UNL     1       5.496   1.980  23.858  0.00  0.00    -0.545 OA
ATOM      9  O   UNL     1       6.136   3.241  22.090  0.00  0.00    -0.545 OA
ENDBRANCH   5   7
BRANCH   1  11
ATOM     10  C   UNL     1       7.182  -3.196  22.327  0.00  0.00    +0.277 C 
ATOM     11  O   UNL     1       8.122  -2.390  23.027  0.00  0.00    -0.491 OA
ENDBRANCH   1  11
BRANCH   2  12
ATOM     12  O   UNL     1      10.254  -1.598  21.577  0.00  0.00    -0.503 OA
ATOM     13  H   UNL     1      10.140  -2.360  22.163  0.00  0.00    +0.292 HD
ENDBRANCH   2  12
TORSDOF 3
ENDMDL
