MODEL 1
REMARK VINA RESULT:      -6.7      0.000      0.000
REMARK  Name = 
REMARK  4 active torsions:
REMARK  status: ('A' for Active; 'I' for Inactive)
REMARK    1  A    between atoms: N9_10  and  C1*_11
REMARK    2  A    between atoms: C4*_14  and  C5*_16
REMARK    3  A    between atoms: C5*_16  and  O5*_17
REMARK    4  A    between atoms: C2*_20  and  O2*_22
REMARK                            x       y       z     vdW  Elec       q    Type
REMARK                         _______ _______ _______ _____ _____    ______ ____
ROOT
ATOM      1  N6    A A   1       9.619  -6.052  25.599  0.00  0.00    -0.341 N 
ATOM      2  H61   A A   1      10.532  -5.945  25.171  0.00  0.00    +0.144 HD
ATOM      3  H62   A A   1       9.545  -6.645  26.414  0.00  0.00    +0.144 HD
ATOM      4  C6    A A   1       8.929  -4.856  25.747  0.00  0.00    +0.147 A 
ATOM      5  C5    A A   1       9.215  -3.704  24.993  0.00  0.00    +0.147 A 
ATOM      6  N7    A A   1      10.153  -3.437  24.018  0.00  0.00    -0.231 NA
ATOM      7  C8    A A   1       9.930  -2.188  23.670  0.00  0.00    +0.203 A 
ATOM      8  N9    A A   1       8.892  -1.635  24.373  0.00  0.00    -0.285 N 
ATOM      9  C4    A A   1       8.431  -2.588  25.240  0.00  0.00    +0.167 A 
ATOM     10  N3    A A   1       7.430  -2.479  26.127  0.00  0.00    -0.216 NA
ATOM     11  C2    A A   1       7.252  -3.640  26.794  0.00  0.00    +0.225 A 
ATOM     12  N1    A A   1       7.936  -4.797  26.664  0.00  0.00    -0.219 NA
ENDROOT
BRANCH   8  13
ATOM     13  C1*   A A   1       8.343  -0.301  24.216  0.00  0.00    +0.259 C 
ATOM     14  C2*   A A   1       7.599  -0.118  22.893  0.00  0.00    +0.232 C 
ATOM     15  C3*   A A   1       7.901   1.334  22.639  0.00  0.00    +0.197 C 
ATOM     16  O3*   A A   1       7.377   1.985  21.743  0.00  0.00    -0.292 OA
ATOM     17  C4*   A A   1       8.882   1.871  23.643  0.00  0.00    +0.215 C 
ATOM     18  O4*   A A   1       9.432   0.654  24.198  0.00  0.00    -0.340 OA
BRANCH  14  19
ATOM     19  O2*   A A   1       6.205  -0.345  22.989  0.00  0.00    -0.380 OA
ATOM     20  H2*   A A   1       6.074  -1.030  23.674  0.00  0.00    +0.211 HD
ENDBRANCH  14  19
BRANCH  17  21
ATOM     21  C5*   A A   1       9.977   2.709  23.009  0.00  0.00    +0.195 C 
BRANCH  21  22
ATOM     22  O5*   A A   1      10.227   2.264  21.677  0.00  0.00    -0.392 OA
ATOM     23  H5*   A A   1      10.781   1.464  21.743  0.00  0.00    +0.210 HD
ENDBRANCH  21  22
ENDBRANCH  17  21
ENDBRANCH   8  13
TORSDOF 4
ENDMDL
MODEL 2
REMARK VINA RESULT:      -6.5      3.580      6.183
REMARK  Name = 
REMARK  4 active torsions:
REMARK  status: ('A' for Active; 'I' for Inactive)
REMARK    1  A    between atoms: N9_10  and  C1*_11
REMARK    2  A    between atoms: C4*_14  and  C5*_16
REMARK    3  A    between atoms: C5*_16  and  O5*_17
REMARK    4  A    between atoms: C2*_20  and  O2*_22
REMARK                            x       y       z     vdW  Elec       q    Type
REMARK                         _______ _______ _______ _____ _____    ______ ____
ROOT
ATOM      1  N6    A A   1      10.494   0.349  25.117  0.00  0.00    -0.341 N 
ATOM      2  H61   A A   1      10.562  -0.071  26.037  0.00  0.00    +0.144 HD
ATOM      3  H62   A A   1      11.307   0.827  24.754  0.00  0.00    +0.144 HD
ATOM      4  C6    A A   1       9.896  -0.473  24.172  0.00  0.00    +0.147 A 
ATOM      5  C5    A A   1       9.059  -1.551  24.508  0.00  0.00    +0.147 A 
ATOM      6  N7    A A   1       8.644  -2.067  25.718  0.00  0.00    -0.231 NA
ATOM      7  C8    A A   1       7.856  -3.072  25.403  0.00  0.00    +0.203 A 
ATOM      8  N9    A A   1       7.741  -3.231  24.047  0.00  0.00    -0.285 N 
ATOM      9  C4    A A   1       8.519  -2.274  23.455  0.00  0.00    +0.167 A 
ATOM     10  N3    A A   1       8.713  -2.065  22.144  0.00  0.00    -0.216 NA
ATOM     11  C2    A A   1       9.535  -1.013  21.942  0.00  0.00    +0.225 A 
ATOM     12  N1    A A   1      10.134  -0.226  22.862  0.00  0.00    -0.219 NA
ENDROOT
BRANCH   8  13
ATOM     13  C1*   A A   1       6.920  -4.202  23.348  0.00  0.00    +0.259 C 
ATOM     14  C2*   A A   1       5.551  -3.647  22.954  0.00  0.00    +0.232 C 
ATOM     15  C3*   A A   1       4.732  -4.904  23.070  0.00  0.00    +0.197 C 
ATOM     16  O3*   A A   1       3.568  -4.988  22.699  0.00  0.00    -0.292 OA
ATOM     17  C4*   A A   1       5.541  -6.029  23.654  0.00  0.00    +0.215 C 
ATOM     18  O4*   A A   1       6.660  -5.318  24.232  0.00  0.00    -0.340 OA
BRANCH  14  19
ATOM     19  O2*   A A   1       5.505  -3.122  21.640  0.00  0.00    -0.380 OA
ATOM     20  H2*   A A   1       6.391  -3.256  21.249  0.00  0.00    +0.211 HD
ENDBRANCH  14  19
BRANCH  17  21
ATOM     21  C5*   A A   1       4.791  -6.801  24.725  0.00  0.00    +0.195 C 
BRANCH  21  22
ATOM     22  O5*   A A   1       3.864  -7.703  24.123  0.00  0.00    -0.392 OA
ATOM     23  H5*   A A   1       4.387  -8.407  23.695  0.00  0.00    +0.210 HD
ENDBRANCH  21  22
ENDBRANCH  17  21
ENDBRANCH   8  13
TORSDOF 4
ENDMDL
MODEL 3
REMARK VINA RESULT:      -6.3      1.883      2.570
REMARK  Name = 
REMARK  4 active torsions:
REMARK  status: ('A' for Active; 'I' for Inactive)
REMARK    1  A    between atoms: N9_10  and  C1*_11
REMARK    2  A    between atoms: C4*_14  and  C5*_16
REMARK    3  A    between atoms: C5*_16  and  O5*_17
REMARK    4  A    between atoms: C2*_20  and  O2*_22
REMARK                            x       y       z     vdW  Elec       q    Type
REMARK                         _______ _______ _______ _____ _____    ______ ____
ROOT
ATOM      1  N6    A A   1       5.363  -6.148  25.321  0.00  0.00    -0.341 N 
ATOM      2  H61   A A   1       4.997  -6.098  24.376  0.00  0.00    +0.144 HD
ATOM      3  H62   A A   1       5.439  -7.059  25.751  0.00  0.00    +0.144 HD
ATOM      4  C6    A A   1       6.495  -5.369  25.521  0.00  0.00    +0.147 A 
ATOM      5  C5    A A   1       6.838  -4.284  24.696  0.00  0.00    +0.147 A 
ATOM      6  N7    A A   1       6.246  -3.740  23.575  0.00  0.00    -0.231 NA
ATOM      7  C8    A A   1       7.017  -2.726  23.246  0.00  0.00    +0.203 A 
ATOM      8  N9    A A   1       8.078  -2.587  24.100  0.00  0.00    -0.285 N 
ATOM      9  C4    A A   1       7.991  -3.588  25.029  0.00  0.00    +0.167 A 
ATOM     10  N3    A A   1       8.825  -3.840  26.049  0.00  0.00    -0.216 NA
ATOM     11  C2    A A   1       8.400  -4.904  26.765  0.00  0.00    +0.225 A 
ATOM     12  N1    A A   1       7.309  -5.674  26.558  0.00  0.00    -0.219 NA
ENDROOT
BRANCH   8  13
ATOM     13  C1*   A A   1       9.096  -1.553  24.068  0.00  0.00    +0.259 C 
ATOM     14  C2*   A A   1       8.763  -0.364  24.970  0.00  0.00    +0.232 C 
ATOM     15  C3*   A A   1       9.396   0.739  24.166  0.00  0.00    +0.197 C 
ATOM     16  O3*   A A   1       9.517   1.888  24.575  0.00  0.00    -0.292 OA
ATOM     17  C4*   A A   1       9.886   0.235  22.837  0.00  0.00    +0.215 C 
ATOM     18  O4*   A A   1       9.183  -1.024  22.723  0.00  0.00    -0.340 OA
BRANCH  14  19
ATOM     19  O2*   A A   1       9.333  -0.453  26.262  0.00  0.00    -0.380 OA
ATOM     20  H2*   A A   1       9.389  -1.403  26.485  0.00  0.00    +0.211 HD
ENDBRANCH  14  19
BRANCH  17  21
ATOM     21  C5*   A A   1       9.521   1.154  21.686  0.00  0.00    +0.195 C 
BRANCH  21  22
ATOM     22  O5*   A A   1      10.319   2.336  21.728  0.00  0.00    -0.392 OA
ATOM     23  H5*   A A   1      11.209   2.091  21.411  0.00  0.00    +0.210 HD
ENDBRANCH  21  22
ENDBRANCH  17  21
ENDBRANCH   8  13
TORSDOF 4
ENDMDL
MODEL 4
REMARK VINA RESULT:      -6.2      2.589      3.211
REMARK  Name = 
REMARK  4 active torsions:
REMARK  status: ('A' for Active; 'I' for Inactive)
REMARK    1  A    between atoms: N9_10  and  C1*_11
REMARK    2  A    between atoms: C4*_14  and  C5*_16
REMARK    3  A    between atoms: C5*_16  and  O5*_17
REMARK    4  A    between atoms: C2*_20  and  O2*_22
REMARK                            x       y       z     vdW  Elec       q    Type
REMARK                         _______ _______ _______ _____ _____    ______ ____
ROOT
ATOM      1  N6    A A   1       5.643  -6.460  22.941  0.00  0.00    -0.341 N 
ATOM      2  H61   A A   1       6.010  -6.947  23.752  0.00  0.00    +0.144 HD
ATOM      3  H62   A A   1       4.659  -6.563  22.733  0.00  0.00    +0.144 HD
ATOM      4  C6    A A   1       6.074  -5.145  22.838  0.00  0.00    +0.147 A 
ATOM      5  C5    A A   1       7.228  -4.661  23.477  0.00  0.00    +0.147 A 
ATOM      6  N7    A A   1       8.156  -5.258  24.306  0.00  0.00    -0.231 NA
ATOM      7  C8    A A   1       9.022  -4.307  24.581  0.00  0.00    +0.203 A 
ATOM      8  N9    A A   1       8.701  -3.125  23.969  0.00  0.00    -0.285 N 
ATOM      9  C4    A A   1       7.543  -3.326  23.269  0.00  0.00    +0.167 A 
ATOM     10  N3    A A   1       6.862  -2.438  22.529  0.00  0.00    -0.216 NA
ATOM     11  C2    A A   1       5.774  -3.012  21.972  0.00  0.00    +0.225 A 
ATOM     12  N1    A A   1       5.344  -4.287  22.089  0.00  0.00    -0.219 NA
ENDROOT
BRANCH   8  13
ATOM     13  C1*   A A   1       9.457  -1.886  24.011  0.00  0.00    +0.259 C 
ATOM     14  C2*   A A   1       8.762  -0.796  24.827  0.00  0.00    +0.232 C 
ATOM     15  C3*   A A   1       9.218   0.415  24.058  0.00  0.00    +0.197 C 
ATOM     16  O3*   A A   1       9.029   1.565  24.437  0.00  0.00    -0.292 OA
ATOM     17  C4*   A A   1       9.957   0.023  22.810  0.00  0.00    +0.215 C 
ATOM     18  O4*   A A   1       9.575  -1.365  22.665  0.00  0.00    -0.340 OA
BRANCH  14  19
ATOM     19  O2*   A A   1       9.186  -0.738  26.177  0.00  0.00    -0.380 OA
ATOM     20  H2*   A A   1       9.885  -1.412  26.285  0.00  0.00    +0.211 HD
ENDBRANCH  14  19
BRANCH  17  21
ATOM     21  C5*   A A   1       9.528   0.823  21.593  0.00  0.00    +0.195 C 
BRANCH  21  22
ATOM     22  O5*   A A   1      10.109   2.125  21.632  0.00  0.00    -0.392 OA
ATOM     23  H5*   A A   1       9.730   2.628  20.886  0.00  0.00    +0.210 HD
ENDBRANCH  21  22
ENDBRANCH  17  21
ENDBRANCH   8  13
TORSDOF 4
ENDMDL
MODEL 5
REMARK VINA RESULT:      -6.2      3.252      6.349
REMARK  Name = 
REMARK  4 active torsions:
REMARK  status: ('A' for Active; 'I' for Inactive)
REMARK    1  A    between atoms: N9_10  and  C1*_11
REMARK    2  A    between atoms: C4*_14  and  C5*_16
REMARK    3  A    between atoms: C5*_16  and  O5*_17
REMARK    4  A    between atoms: C2*_20  and  O2*_22
REMARK                            x       y       z     vdW  Elec       q    Type
REMARK                         _______ _______ _______ _____ _____    ______ ____
ROOT
ATOM      1  N6    A A   1       6.530   2.882  22.054  0.00  0.00    -0.341 N 
ATOM      2  H61   A A   1       5.757   2.935  22.710  0.00  0.00    +0.144 HD
ATOM      3  H62   A A   1       6.889   3.747  21.675  0.00  0.00    +0.144 HD
ATOM      4  C6    A A   1       7.539   2.016  22.452  0.00  0.00    +0.147 A 
ATOM      5  C5    A A   1       7.344   0.981  23.383  0.00  0.00    +0.147 A 
ATOM      6  N7    A A   1       6.242   0.572  24.106  0.00  0.00    -0.231 NA
ATOM      7  C8    A A   1       6.662  -0.460  24.804  0.00  0.00    +0.203 A 
ATOM      8  N9    A A   1       7.982  -0.739  24.568  0.00  0.00    -0.285 N 
ATOM      9  C4    A A   1       8.443   0.186  23.671  0.00  0.00    +0.167 A 
ATOM     10  N3    A A   1       9.680   0.297  23.164  0.00  0.00    -0.216 NA
ATOM     11  C2    A A   1       9.750   1.324  22.290  0.00  0.00    +0.225 A 
ATOM     12  N1    A A   1       8.772   2.179  21.919  0.00  0.00    -0.219 NA
ENDROOT
BRANCH   8  13
ATOM     13  C1*   A A   1       8.757  -1.832  25.125  0.00  0.00    +0.259 C 
ATOM     14  C2*   A A   1       9.086  -2.912  24.094  0.00  0.00    +0.232 C 
ATOM     15  C3*   A A   1       9.075  -4.120  24.990  0.00  0.00    +0.197 C 
ATOM     16  O3*   A A   1       9.441  -5.232  24.629  0.00  0.00    -0.292 OA
ATOM     17  C4*   A A   1       8.601  -3.770  26.373  0.00  0.00    +0.215 C 
ATOM     18  O4*   A A   1       7.973  -2.485  26.152  0.00  0.00    -0.340 OA
BRANCH  14  19
ATOM     19  O2*   A A   1      10.348  -2.742  23.475  0.00  0.00    -0.380 OA
ATOM     20  H2*   A A   1      11.005  -3.201  24.035  0.00  0.00    +0.211 HD
ENDBRANCH  14  19
BRANCH  17  21
ATOM     21  C5*   A A   1       7.597  -4.765  26.924  0.00  0.00    +0.195 C 
BRANCH  21  22
ATOM     22  O5*   A A   1       8.184  -6.063  27.005  0.00  0.00    -0.392 OA
ATOM     23  H5*   A A   1       8.958  -6.063  26.411  0.00  0.00    +0.210 HD
ENDBRANCH  21  22
ENDBRANCH  17  21
ENDBRANCH   8  13
TORSDOF 4
ENDMDL
MODEL 6
REMARK VINA RESULT:      -6.2      3.103      5.922
REMARK  Name = 
REMARK  4 active torsions:
REMARK  status: ('A' for Active; 'I' for Inactive)
REMARK    1  A    between atoms: N9_10  and  C1*_11
REMARK    2  A    between atoms: C4*_14  and  C5*_16
REMARK    3  A    between atoms: C5*_16  and  O5*_17
REMARK    4  A    between atoms: C2*_20  and  O2*_22
REMARK                            x       y       z     vdW  Elec       q    Type
REMARK                         _______ _______ _______ _____ _____    ______ ____
ROOT
ATOM      1  N6    A A   1      10.178   2.244  21.494  0.00  0.00    -0.341 N 
ATOM      2  H61   A A   1      10.982   1.726  21.157  0.00  0.00    +0.144 HD
ATOM      3  H62   A A   1       9.815   2.986  20.912  0.00  0.00    +0.144 HD
ATOM      4  C6    A A   1       9.175   1.438  22.015  0.00  0.00    +0.147 A 
ATOM      5  C5    A A   1       9.399   0.126  22.468  0.00  0.00    +0.147 A 
ATOM      6  N7    A A   1      10.529  -0.665  22.512  0.00  0.00    -0.231 NA
ATOM      7  C8    A A   1      10.127  -1.795  23.054  0.00  0.00    +0.203 A 
ATOM      8  N9    A A   1       8.792  -1.772  23.362  0.00  0.00    -0.285 N 
ATOM      9  C4    A A   1       8.303  -0.553  22.978  0.00  0.00    +0.167 A 
ATOM     10  N3    A A   1       7.045  -0.101  23.082  0.00  0.00    -0.216 NA
ATOM     11  C2    A A   1       6.948   1.162  22.613  0.00  0.00    +0.225 A 
ATOM     12  N1    A A   1       7.920   1.939  22.087  0.00  0.00    -0.219 NA
ENDROOT
BRANCH   8  13
ATOM     13  C1*   A A   1       8.028  -2.821  24.012  0.00  0.00    +0.259 C 
ATOM     14  C2*   A A   1       7.788  -2.546  25.497  0.00  0.00    +0.232 C 
ATOM     15  C3*   A A   1       7.796  -3.960  26.013  0.00  0.00    +0.197 C 
ATOM     16  O3*   A A   1       7.487  -4.261  27.160  0.00  0.00    -0.292 OA
ATOM     17  C4*   A A   1       8.188  -4.932  24.936  0.00  0.00    +0.215 C 
ATOM     18  O4*   A A   1       8.781  -4.056  23.950  0.00  0.00    -0.340 OA
BRANCH  14  19
ATOM     19  O2*   A A   1       6.554  -1.907  25.765  0.00  0.00    -0.380 OA
ATOM     20  H2*   A A   1       5.848  -2.504  25.447  0.00  0.00    +0.211 HD
ENDBRANCH  14  19
BRANCH  17  21
ATOM     21  C5*   A A   1       9.197  -5.963  25.408  0.00  0.00    +0.195 C 
BRANCH  21  22
ATOM     22  O5*   A A   1      10.510  -5.406  25.397  0.00  0.00    -0.392 OA
ATOM     23  H5*   A A   1      10.979  -5.763  26.175  0.00  0.00    +0.210 HD
ENDBRANCH  21  22
ENDBRANCH  17  21
ENDBRANCH   8  13
TORSDOF 4
ENDMDL
MODEL 7
REMARK VINA RESULT:      -6.1      3.321      5.118
REMARK  Name = 
REMARK  4 active torsions:
REMARK  status: ('A' for Active; 'I' for Inactive)
REMARK    1  A    between atoms: N9_10  and  C1*_11
REMARK    2  A    between atoms: C4*_14  and  C5*_16
REMARK    3  A    between atoms: C5*_16  and  O5*_17
REMARK    4  A    between atoms: C2*_20  and  O2*_22
REMARK                            x       y       z     vdW  Elec       q    Type
REMARK                         _______ _______ _______ _____ _____    ______ ____
ROOT
ATOM      1  N6    A A   1       4.174  -7.301  28.915  0.00  0.00    -0.341 N 
ATOM      2  H61   A A   1       4.695  -6.818  29.639  0.00  0.00    +0.144 HD
ATOM      3  H62   A A   1       3.178  -7.416  29.045  0.00  0.00    +0.144 HD
ATOM      4  C6    A A   1       4.498  -6.892  27.629  0.00  0.00    +0.147 A 
ATOM      5  C5    A A   1       5.706  -6.249  27.307  0.00  0.00    +0.147 A 
ATOM      6  N7    A A   1       6.789  -5.863  28.069  0.00  0.00    -0.231 NA
ATOM      7  C8    A A   1       7.626  -5.318  27.213  0.00  0.00    +0.203 A 
ATOM      8  N9    A A   1       7.137  -5.335  25.933  0.00  0.00    -0.285 N 
ATOM      9  C4    A A   1       5.898  -5.914  25.975  0.00  0.00    +0.167 A 
ATOM     10  N3    A A   1       5.054  -6.127  24.955  0.00  0.00    -0.216 NA
ATOM     11  C2    A A   1       3.930  -6.741  25.382  0.00  0.00    +0.225 A 
ATOM     12  N1    A A   1       3.606  -7.121  26.637  0.00  0.00    -0.219 NA
ENDROOT
BRANCH   8  13
ATOM     13  C1*   A A   1       7.809  -4.866  24.735  0.00  0.00    +0.259 C 
ATOM     14  C2*   A A   1       9.219  -4.345  25.012  0.00  0.00    +0.232 C 
ATOM     15  C3*   A A   1       9.295  -3.269  23.963  0.00  0.00    +0.197 C 
ATOM     16  O3*   A A   1      10.322  -2.657  23.695  0.00  0.00    -0.292 OA
ATOM     17  C4*   A A   1       7.970  -3.083  23.276  0.00  0.00    +0.215 C 
ATOM     18  O4*   A A   1       7.068  -3.748  24.191  0.00  0.00    -0.340 OA
BRANCH  14  19
ATOM     19  O2*   A A   1      10.232  -5.316  24.826  0.00  0.00    -0.380 OA
ATOM     20  H2*   A A   1       9.955  -5.878  24.076  0.00  0.00    +0.211 HD
ENDBRANCH  14  19
BRANCH  17  21
ATOM     21  C5*   A A   1       7.587  -1.623  23.117  0.00  0.00    +0.195 C 
BRANCH  21  22
ATOM     22  O5*   A A   1       8.494  -0.969  22.231  0.00  0.00    -0.392 OA
ATOM     23  H5*   A A   1       8.014  -0.218  21.834  0.00  0.00    +0.210 HD
ENDBRANCH  21  22
ENDBRANCH  17  21
ENDBRANCH   8  13
TORSDOF 4
ENDMDL
MODEL 8
REMARK VINA RESULT:      -6.1      3.180      6.029
REMARK  Name = 
REMARK  4 active torsions:
REMARK  status: ('A' for Active; 'I' for Inactive)
REMARK    1  A    between atoms: N9_10  and  C1*_11
REMARK    2  A    between atoms: C4*_14  and  C5*_16
REMARK    3  A    between atoms: C5*_16  and  O5*_17
REMARK    4  A    between atoms: C2*_20  and  O2*_22
REMARK                            x       y       z     vdW  Elec       q    Type
REMARK                         _______ _______ _______ _____ _____    ______ ____
ROOT
ATOM      1  N6    A A   1       9.167   3.325  22.707  0.00  0.00    -0.341 N 
ATOM      2  H61   A A   1       8.187   3.531  22.544  0.00  0.00    +0.144 HD
ATOM      3  H62   A A   1       9.750   4.063  23.077  0.00  0.00    +0.144 HD
ATOM      4  C6    A A   1       9.382   2.109  23.341  0.00  0.00    +0.147 A 
ATOM      5  C5    A A   1       8.441   1.065  23.344  0.00  0.00    +0.147 A 
ATOM      6  N7    A A   1       7.176   0.948  22.806  0.00  0.00    -0.231 NA
ATOM      7  C8    A A   1       6.787  -0.268  23.122  0.00  0.00    +0.203 A 
ATOM      8  N9    A A   1       7.740  -0.944  23.838  0.00  0.00    -0.285 N 
ATOM      9  C4    A A   1       8.803  -0.099  24.005  0.00  0.00    +0.167 A 
ATOM     10  N3    A A   1       9.953  -0.340  24.653  0.00  0.00    -0.216 NA
ATOM     11  C2    A A   1      10.773   0.731  24.589  0.00  0.00    +0.225 A 
ATOM     12  N1    A A   1      10.555   1.921  23.990  0.00  0.00    -0.219 NA
ENDROOT
BRANCH   8  13
ATOM     13  C1*   A A   1       7.671  -2.315  24.308  0.00  0.00    +0.259 C 
ATOM     14  C2*   A A   1       8.602  -3.253  23.539  0.00  0.00    +0.232 C 
ATOM     15  C3*   A A   1       7.783  -4.514  23.594  0.00  0.00    +0.197 C 
ATOM     16  O3*   A A   1       8.200  -5.606  23.228  0.00  0.00    -0.292 OA
ATOM     17  C4*   A A   1       6.425  -4.257  24.186  0.00  0.00    +0.215 C 
ATOM     18  O4*   A A   1       6.330  -2.817  24.090  0.00  0.00    -0.340 OA
BRANCH  14  19
ATOM     19  O2*   A A   1       9.864  -3.432  24.155  0.00  0.00    -0.380 OA
ATOM     20  H2*   A A   1      10.402  -2.645  23.938  0.00  0.00    +0.211 HD
ENDBRANCH  14  19
BRANCH  17  21
ATOM     21  C5*   A A   1       5.305  -4.918  23.404  0.00  0.00    +0.195 C 
BRANCH  21  22
ATOM     22  O5*   A A   1       5.400  -4.573  22.023  0.00  0.00    -0.392 OA
ATOM     23  H5*   A A   1       5.182  -3.625  21.950  0.00  0.00    +0.210 HD
ENDBRANCH  21  22
ENDBRANCH  17  21
ENDBRANCH   8  13
TORSDOF 4
ENDMDL
MODEL 9
REMARK VINA RESULT:      -6.0      1.708      2.299
REMARK  Name = 
REMARK  4 active torsions:
REMARK  status: ('A' for Active; 'I' for Inactive)
REMARK    1  A    between atoms: N9_10  and  C1*_11
REMARK    2  A    between atoms: C4*_14  and  C5*_16
REMARK    3  A    between atoms: C5*_16  and  O5*_17
REMARK    4  A    between atoms: C2*_20  and  O2*_22
REMARK                            x       y       z     vdW  Elec       q    Type
REMARK                         _______ _______ _______ _____ _____    ______ ____
ROOT
ATOM      1  N6    A A   1       8.278  -5.608  26.631  0.00  0.00    -0.341 N 
ATOM      2  H61   A A   1       8.192  -5.043  27.470  0.00  0.00    +0.144 HD
ATOM      3  H62   A A   1       7.807  -6.502  26.613  0.00  0.00    +0.144 HD
ATOM      4  C6    A A   1       8.104  -4.890  25.456  0.00  0.00    +0.147 A 
ATOM      5  C5    A A   1       8.259  -3.496  25.375  0.00  0.00    +0.147 A 
ATOM      6  N7    A A   1       8.573  -2.536  26.315  0.00  0.00    -0.231 NA
ATOM      7  C8    A A   1       8.587  -1.403  25.647  0.00  0.00    +0.203 A 
ATOM      8  N9    A A   1       8.298  -1.583  24.320  0.00  0.00    -0.285 N 
ATOM      9  C4    A A   1       8.068  -2.918  24.129  0.00  0.00    +0.167 A 
ATOM     10  N3    A A   1       7.743  -3.543  22.987  0.00  0.00    -0.216 NA
ATOM     11  C2    A A   1       7.615  -4.872  23.186  0.00  0.00    +0.225 A 
ATOM     12  N1    A A   1       7.765  -5.567  24.335  0.00  0.00    -0.219 NA
ENDROOT
BRANCH   8  13
ATOM     13  C1*   A A   1       8.275  -0.567  23.285  0.00  0.00    +0.259 C 
ATOM     14  C2*   A A   1       9.661  -0.271  22.713  0.00  0.00    +0.232 C 
ATOM     15  C3*   A A   1       9.493   1.192  22.403  0.00  0.00    +0.197 C 
ATOM     16  O3*   A A   1      10.316   1.849  21.776  0.00  0.00    -0.292 OA
ATOM     17  C4*   A A   1       8.184   1.714  22.926  0.00  0.00    +0.215 C 
ATOM     18  O4*   A A   1       7.806   0.676  23.861  0.00  0.00    -0.340 OA
BRANCH  14  19
ATOM     19  O2*   A A   1       9.965  -1.012  21.545  0.00  0.00    -0.380 OA
ATOM     20  H2*   A A   1      10.197  -1.916  21.834  0.00  0.00    +0.211 HD
ENDBRANCH  14  19
BRANCH  17  21
ATOM     21  C5*   A A   1       8.320   3.047  23.638  0.00  0.00    +0.195 C 
BRANCH  21  22
ATOM     22  O5*   A A   1       8.686   4.066  22.708  0.00  0.00    -0.392 OA
ATOM     23  H5*   A A   1       8.297   3.820  21.848  0.00  0.00    +0.210 HD
ENDBRANCH  21  22
ENDBRANCH  17  21
ENDBRANCH   8  13
TORSDOF 4
ENDMDL
