MODEL 1
REMARK VINA RESULT:      -4.7      0.000      0.000
REMARK  Name = 
REMARK  5 active torsions:
REMARK  status: ('A' for Active; 'I' for Inactive)
REMARK    1  A    between atoms: O_1  and  C_2
REMARK    2  A    between atoms: C_2  and  C_3
REMARK    3  A    between atoms: C_6  and  O_8
REMARK    4  A    between atoms: C_12  and  O_14
REMARK    5  A    between atoms: C_15  and  O_17
REMARK                            x       y       z     vdW  Elec       q    Type
REMARK                         _______ _______ _______ _____ _____    ______ ____
ROOT
ATOM      1  C   UNL     1      10.012   0.709  22.172  0.00  0.00    +0.178 C 
ATOM      2  C   UNL     1       9.339  -0.633  21.801  0.00  0.00    +0.177 C 
ATOM      3  C   UNL     1       8.336  -1.088  22.881  0.00  0.00    +0.184 C 
ATOM      4  C   UNL     1       8.969  -1.043  24.269  0.00  0.00    +0.252 C 
ATOM      5  F   UNL     1       9.881  -2.055  24.353  0.00  0.00    -0.237 F 
ATOM      6  C   UNL     1       9.629   0.316  24.515  0.00  0.00    +0.284 C 
ATOM      7  O   UNL     1      10.563   0.666  23.509  0.00  0.00    -0.340 OA
ENDROOT
BRANCH   2   8
ATOM      8  O   UNL     1      10.367  -1.610  21.594  0.00  0.00    -0.386 OA
ATOM      9  H   UNL     1       9.970  -2.494  21.520  0.00  0.00    +0.210 HD
ENDBRANCH   2   8
BRANCH   3  10
ATOM     10  O   UNL     1       7.161  -0.274  22.824  0.00  0.00    -0.386 OA
ATOM     11  H   UNL     1       7.416   0.642  23.046  0.00  0.00    +0.210 HD
ENDBRANCH   3  10
BRANCH   6  12
ATOM     12  O   UNL     1      10.304   0.314  25.762  0.00  0.00    -0.365 OA
ATOM     13  H   UNL     1       9.730   0.861  26.326  0.00  0.00    +0.213 HD
ENDBRANCH   6  12
BRANCH   1  14
ATOM     14  C   UNL     1       9.072   1.914  21.963  0.00  0.00    +0.190 C 
BRANCH  14  15
ATOM     15  O   UNL     1       8.226   1.696  20.837  0.00  0.00    -0.392 OA
ATOM     16  H   UNL     1       8.314   2.473  20.258  0.00  0.00    +0.210 HD
ENDBRANCH  14  15
ENDBRANCH   1  14
TORSDOF 5
ENDMDL
MODEL 2
REMARK VINA RESULT:      -4.6      1.335      2.714
REMARK  Name = 
REMARK  5 active torsions:
REMARK  status: ('A' for Active; 'I' for Inactive)
REMARK    1  A    between atoms: O_1  and  C_2
REMARK    2  A    between atoms: C_2  and  C_3
REMARK    3  A    between atoms: C_6  and  O_8
REMARK    4  A    between atoms: C_12  and  O_14
REMARK    5  A    between atoms: C_15  and  O_17
REMARK                            x       y       z     vdW  Elec       q    Type
REMARK                         _______ _______ _______ _____ _____    ______ ____
ROOT
ATOM      1  C   UNL     1       9.075   0.784  23.123  0.00  0.00    +0.178 C 
ATOM      2  C   UNL     1      10.189  -0.220  23.499  0.00  0.00    +0.177 C 
ATOM      3  C   UNL     1       9.941  -1.609  22.876  0.00  0.00    +0.184 C 
ATOM      4  C   UNL     1       8.518  -2.087  23.153  0.00  0.00    +0.252 C 
ATOM      5  F   UNL     1       8.426  -2.403  24.478  0.00  0.00    -0.237 F 
ATOM      6  C   UNL     1       7.504  -1.004  22.772  0.00  0.00    +0.284 C 
ATOM      7  O   UNL     1       7.764   0.240  23.399  0.00  0.00    -0.340 OA
ENDROOT
BRANCH   2   8
ATOM      8  O   UNL     1      10.267  -0.292  24.928  0.00  0.00    -0.386 OA
ATOM      9  H   UNL     1      11.160  -0.044  25.221  0.00  0.00    +0.210 HD
ENDBRANCH   2   8
BRANCH   3  10
ATOM     10  O   UNL     1      10.205  -1.564  21.471  0.00  0.00    -0.386 OA
ATOM     11  H   UNL     1       9.360  -1.400  21.009  0.00  0.00    +0.210 HD
ENDBRANCH   3  10
BRANCH   6  12
ATOM     12  O   UNL     1       6.194  -1.413  23.130  0.00  0.00    -0.365 OA
ATOM     13  H   UNL     1       5.731  -0.569  23.274  0.00  0.00    +0.213 HD
ENDBRANCH   6  12
BRANCH   1  14
ATOM     14  C   UNL     1       9.207   1.290  21.672  0.00  0.00    +0.190 C 
BRANCH  14  15
ATOM     15  O   UNL     1      10.252   2.255  21.573  0.00  0.00    -0.392 OA
ATOM     16  H   UNL     1      10.206   2.809  22.371  0.00  0.00    +0.210 HD
ENDBRANCH  14  15
ENDBRANCH   1  14
TORSDOF 5
ENDMDL
MODEL 3
REMARK VINA RESULT:      -4.5      1.890      3.209
REMARK  Name = 
REMARK  5 active torsions:
REMARK  status: ('A' for Active; 'I' for Inactive)
REMARK    1  A    between atoms: O_1  and  C_2
REMARK    2  A    between atoms: C_2  and  C_3
REMARK    3  A    between atoms: C_6  and  O_8
REMARK    4  A    between atoms: C_12  and  O_14
REMARK    5  A    between atoms: C_15  and  O_17
REMARK                            x       y       z     vdW  Elec       q    Type
REMARK                         _______ _______ _______ _____ _____    ______ ____
ROOT
ATOM      1  C   UNL     1       8.609  -0.065  22.527  0.00  0.00    +0.178 C 
ATOM      2  C   UNL     1       8.090   1.373  22.295  0.00  0.00    +0.177 C 
ATOM      3  C   UNL     1       9.158   2.430  22.644  0.00  0.00    +0.184 C 
ATOM      4  C   UNL     1       9.753   2.171  24.026  0.00  0.00    +0.252 C 
ATOM      5  F   UNL     1       8.806   2.475  24.961  0.00  0.00    -0.237 F 
ATOM      6  C   UNL     1      10.204   0.713  24.152  0.00  0.00    +0.284 C 
ATOM      7  O   UNL     1       9.173  -0.211  23.851  0.00  0.00    -0.340 OA
ENDROOT
BRANCH   2   8
ATOM      8  O   UNL     1       6.899   1.553  23.073  0.00  0.00    -0.386 OA
ATOM      9  H   UNL     1       7.092   2.112  23.844  0.00  0.00    +0.210 HD
ENDBRANCH   2   8
BRANCH   3  10
ATOM     10  O   UNL     1      10.176   2.441  21.639  0.00  0.00    -0.386 OA
ATOM     11  H   UNL     1      10.401   1.515  21.426  0.00  0.00    +0.210 HD
ENDBRANCH   3  10
BRANCH   6  12
ATOM     12  O   UNL     1      10.658   0.454  25.470  0.00  0.00    -0.365 OA
ATOM     13  H   UNL     1      11.619   0.593  25.405  0.00  0.00    +0.213 HD
ENDBRANCH   6  12
BRANCH   1  14
ATOM     14  C   UNL     1       9.582  -0.522  21.421  0.00  0.00    +0.190 C 
BRANCH  14  15
ATOM     15  O   UNL     1      10.159  -1.783  21.754  0.00  0.00    -0.392 OA
ATOM     16  H   UNL     1       9.497  -2.273  22.272  0.00  0.00    +0.210 HD
ENDBRANCH  14  15
ENDBRANCH   1  14
TORSDOF 5
ENDMDL
MODEL 4
REMARK VINA RESULT:      -4.4      2.035      3.369
REMARK  Name = 
REMARK  5 active torsions:
REMARK  status: ('A' for Active; 'I' for Inactive)
REMARK    1  A    between atoms: O_1  and  C_2
REMARK    2  A    between atoms: C_2  and  C_3
REMARK    3  A    between atoms: C_6  and  O_8
REMARK    4  A    between atoms: C_12  and  O_14
REMARK    5  A    between atoms: C_15  and  O_17
REMARK                            x       y       z     vdW  Elec       q    Type
REMARK                         _______ _______ _______ _____ _____    ______ ____
ROOT
ATOM      1  C   UNL     1       8.849   0.291  21.810  0.00  0.00    +0.178 C 
ATOM      2  C   UNL     1      10.125   1.065  22.216  0.00  0.00    +0.177 C 
ATOM      3  C   UNL     1      10.263   1.177  23.748  0.00  0.00    +0.184 C 
ATOM      4  C   UNL     1       8.970   1.685  24.379  0.00  0.00    +0.252 C 
ATOM      5  F   UNL     1       8.830   3.005  24.057  0.00  0.00    -0.237 F 
ATOM      6  C   UNL     1       7.773   0.868  23.883  0.00  0.00    +0.284 C 
ATOM      7  O   UNL     1       7.680   0.828  22.470  0.00  0.00    -0.340 OA
ENDROOT
BRANCH   2   8
ATOM      8  O   UNL     1      10.085   2.357  21.596  0.00  0.00    -0.386 OA
ATOM      9  H   UNL     1      10.647   2.976  22.091  0.00  0.00    +0.210 HD
ENDBRANCH   2   8
BRANCH   3  10
ATOM     10  O   UNL     1      10.639  -0.091  24.294  0.00  0.00    -0.386 OA
ATOM     11  H   UNL     1      10.948   0.053  25.209  0.00  0.00    +0.210 HD
ENDBRANCH   3  10
BRANCH   6  12
ATOM     12  O   UNL     1       6.566   1.412  24.390  0.00  0.00    -0.365 OA
ATOM     13  H   UNL     1       6.013   1.503  23.594  0.00  0.00    +0.213 HD
ENDBRANCH   6  12
BRANCH   1  14
ATOM     14  C   UNL     1       8.995  -1.230  22.018  0.00  0.00    +0.190 C 
BRANCH  14  15
ATOM     15  O   UNL     1      10.327  -1.647  21.728  0.00  0.00    -0.392 OA
ATOM     16  H   UNL     1      10.608  -2.233  22.452  0.00  0.00    +0.210 HD
ENDBRANCH  14  15
ENDBRANCH   1  14
TORSDOF 5
ENDMDL
MODEL 5
REMARK VINA RESULT:      -4.4      2.052      3.291
REMARK  Name = 
REMARK  5 active torsions:
REMARK  status: ('A' for Active; 'I' for Inactive)
REMARK    1  A    between atoms: O_1  and  C_2
REMARK    2  A    between atoms: C_2  and  C_3
REMARK    3  A    between atoms: C_6  and  O_8
REMARK    4  A    between atoms: C_12  and  O_14
REMARK    5  A    between atoms: C_15  and  O_17
REMARK                            x       y       z     vdW  Elec       q    Type
REMARK                         _______ _______ _______ _____ _____    ______ ____
ROOT
ATOM      1  C   UNL     1       9.100   2.436  24.403  0.00  0.00    +0.178 C 
ATOM      2  C   UNL     1      10.319   1.664  23.848  0.00  0.00    +0.177 C 
ATOM      3  C   UNL     1      10.039   1.083  22.447  0.00  0.00    +0.184 C 
ATOM      4  C   UNL     1       8.721   0.312  22.428  0.00  0.00    +0.252 C 
ATOM      5  F   UNL     1       8.894  -0.843  23.133  0.00  0.00    -0.237 F 
ATOM      6  C   UNL     1       7.595   1.160  23.027  0.00  0.00    +0.284 C 
ATOM      7  O   UNL     1       7.896   1.639  24.326  0.00  0.00    -0.340 OA
ENDROOT
BRANCH   2   8
ATOM      8  O   UNL     1      10.665   0.635  24.784  0.00  0.00    -0.386 OA
ATOM      9  H   UNL     1      10.981  -0.150  24.307  0.00  0.00    +0.210 HD
ENDBRANCH   2   8
BRANCH   3  10
ATOM     10  O   UNL     1      10.034   2.135  21.478  0.00  0.00    -0.386 OA
ATOM     11  H   UNL     1       9.471   1.856  20.731  0.00  0.00    +0.210 HD
ENDBRANCH   3  10
BRANCH   6  12
ATOM     12  O   UNL     1       6.399   0.401  23.102  0.00  0.00    -0.365 OA
ATOM     13  H   UNL     1       5.857   0.770  22.383  0.00  0.00    +0.213 HD
ENDBRANCH   6  12
BRANCH   1  14
ATOM     14  C   UNL     1       8.932   3.820  23.742  0.00  0.00    +0.190 C 
BRANCH  14  15
ATOM     15  O   UNL     1      10.203   4.369  23.404  0.00  0.00    -0.392 OA
ATOM     16  H   UNL     1      10.814   3.623  23.282  0.00  0.00    +0.210 HD
ENDBRANCH  14  15
ENDBRANCH   1  14
TORSDOF 5
ENDMDL
MODEL 6
REMARK VINA RESULT:      -4.4      1.941      3.626
REMARK  Name = 
REMARK  5 active torsions:
REMARK  status: ('A' for Active; 'I' for Inactive)
REMARK    1  A    between atoms: O_1  and  C_2
REMARK    2  A    between atoms: C_2  and  C_3
REMARK    3  A    between atoms: C_6  and  O_8
REMARK    4  A    between atoms: C_12  and  O_14
REMARK    5  A    between atoms: C_15  and  O_17
REMARK                            x       y       z     vdW  Elec       q    Type
REMARK                         _______ _______ _______ _____ _____    ______ ____
ROOT
ATOM      1  C   UNL     1      10.226   0.180  24.721  0.00  0.00    +0.178 C 
ATOM      2  C   UNL     1       9.697   1.573  24.310  0.00  0.00    +0.177 C 
ATOM      3  C   UNL     1       8.619   1.475  23.212  0.00  0.00    +0.184 C 
ATOM      4  C   UNL     1       9.092   0.596  22.057  0.00  0.00    +0.252 C 
ATOM      5  F   UNL     1      10.062   1.274  21.376  0.00  0.00    -0.237 F 
ATOM      6  C   UNL     1       9.621  -0.742  22.582  0.00  0.00    +0.284 C 
ATOM      7  O   UNL     1      10.630  -0.589  23.564  0.00  0.00    -0.340 OA
ENDROOT
BRANCH   2   8
ATOM      8  O   UNL     1      10.810   2.370  23.884  0.00  0.00    -0.386 OA
ATOM      9  H   UNL     1      10.974   2.226  22.937  0.00  0.00    +0.210 HD
ENDBRANCH   2   8
BRANCH   3  10
ATOM     10  O   UNL     1       7.401   0.978  23.772  0.00  0.00    -0.386 OA
ATOM     11  H   UNL     1       6.746   0.898  23.052  0.00  0.00    +0.210 HD
ENDBRANCH   3  10
BRANCH   6  12
ATOM     12  O   UNL     1      10.155  -1.509  21.516  0.00  0.00    -0.365 OA
ATOM     13  H   UNL     1      11.095  -1.257  21.512  0.00  0.00    +0.213 HD
ENDBRANCH   6  12
BRANCH   1  14
ATOM     14  C   UNL     1       9.228  -0.586  25.615  0.00  0.00    +0.190 C 
BRANCH  14  15
ATOM     15  O   UNL     1       8.566   0.311  26.503  0.00  0.00    -0.392 OA
ATOM     16  H   UNL     1       7.623   0.304  26.267  0.00  0.00    +0.210 HD
ENDBRANCH  14  15
ENDBRANCH   1  14
TORSDOF 5
ENDMDL
MODEL 7
REMARK VINA RESULT:      -4.3      1.979      3.067
REMARK  Name = 
REMARK  5 active torsions:
REMARK  status: ('A' for Active; 'I' for Inactive)
REMARK    1  A    between atoms: O_1  and  C_2
REMARK    2  A    between atoms: C_2  and  C_3
REMARK    3  A    between atoms: C_6  and  O_8
REMARK    4  A    between atoms: C_12  and  O_14
REMARK    5  A    between atoms: C_15  and  O_17
REMARK                            x       y       z     vdW  Elec       q    Type
REMARK                         _______ _______ _______ _____ _____    ______ ____
ROOT
ATOM      1  C   UNL     1       7.836  -1.273  22.712  0.00  0.00    +0.178 C 
ATOM      2  C   UNL     1       9.187  -1.626  22.049  0.00  0.00    +0.177 C 
ATOM      3  C   UNL     1      10.317  -1.765  23.089  0.00  0.00    +0.184 C 
ATOM      4  C   UNL     1      10.350  -0.560  24.026  0.00  0.00    +0.252 C 
ATOM      5  F   UNL     1      10.811   0.514  23.320  0.00  0.00    -0.237 F 
ATOM      6  C   UNL     1       8.957  -0.287  24.599  0.00  0.00    +0.284 C 
ATOM      7  O   UNL     1       7.968  -0.136  23.596  0.00  0.00    -0.340 OA
ENDROOT
BRANCH   2   8
ATOM      8  O   UNL     1       9.490  -0.615  21.078  0.00  0.00    -0.386 OA
ATOM      9  H   UNL     1       8.677  -0.347  20.618  0.00  0.00    +0.210 HD
ENDBRANCH   2   8
BRANCH   3  10
ATOM     10  O   UNL     1      10.153  -2.983  23.822  0.00  0.00    -0.386 OA
ATOM     11  H   UNL     1      10.769  -3.644  23.453  0.00  0.00    +0.210 HD
ENDBRANCH   3  10
BRANCH   6  12
ATOM     12  O   UNL     1       8.973   0.894  25.383  0.00  0.00    -0.365 OA
ATOM     13  H   UNL     1       9.248   1.578  24.747  0.00  0.00    +0.213 HD
ENDBRANCH   6  12
BRANCH   1  14
ATOM     14  C   UNL     1       7.192  -2.489  23.411  0.00  0.00    +0.190 C 
BRANCH  14  15
ATOM     15  O   UNL     1       7.454  -3.682  22.676  0.00  0.00    -0.392 OA
ATOM     16  H   UNL     1       7.199  -4.430  23.244  0.00  0.00    +0.210 HD
ENDBRANCH  14  15
ENDBRANCH   1  14
TORSDOF 5
ENDMDL
MODEL 8
REMARK VINA RESULT:      -4.3      1.798      3.394
REMARK  Name = 
REMARK  5 active torsions:
REMARK  status: ('A' for Active; 'I' for Inactive)
REMARK    1  A    between atoms: O_1  and  C_2
REMARK    2  A    between atoms: C_2  and  C_3
REMARK    3  A    between atoms: C_6  and  O_8
REMARK    4  A    between atoms: C_12  and  O_14
REMARK    5  A    between atoms: C_15  and  O_17
REMARK                            x       y       z     vdW  Elec       q    Type
REMARK                         _______ _______ _______ _____ _____    ______ ____
ROOT
ATOM      1  C   UNL     1       8.695  -0.977  24.053  0.00  0.00    +0.178 C 
ATOM      2  C   UNL     1       8.122  -0.964  22.617  0.00  0.00    +0.177 C 
ATOM      3  C   UNL     1       9.169  -0.492  21.588  0.00  0.00    +0.184 C 
ATOM      4  C   UNL     1       9.827   0.811  22.035  0.00  0.00    +0.252 C 
ATOM      5  F   UNL     1       8.909   1.814  21.915  0.00  0.00    -0.237 F 
ATOM      6  C   UNL     1      10.328   0.692  23.477  0.00  0.00    +0.284 C 
ATOM      7  O   UNL     1       9.316   0.287  24.381  0.00  0.00    -0.340 OA
ENDROOT
BRANCH   2   8
ATOM      8  O   UNL     1       6.958  -0.127  22.604  0.00  0.00    -0.386 OA
ATOM      9  H   UNL     1       6.163  -0.666  22.750  0.00  0.00    +0.210 HD
ENDBRANCH   2   8
BRANCH   3  10
ATOM     10  O   UNL     1      10.144  -1.518  21.384  0.00  0.00    -0.386 OA
ATOM     11  H   UNL     1      10.445  -1.829  22.259  0.00  0.00    +0.210 HD
ENDBRANCH   3  10
BRANCH   6  12
ATOM     12  O   UNL     1      10.842   1.937  23.920  0.00  0.00    -0.365 OA
ATOM     13  H   UNL     1      10.281   2.148  24.687  0.00  0.00    +0.213 HD
ENDBRANCH   6  12
BRANCH   1  14
ATOM     14  C   UNL     1       9.636  -2.175  24.297  0.00  0.00    +0.190 C 
BRANCH  14  15
ATOM     15  O   UNL     1       9.165  -3.328  23.604  0.00  0.00    -0.392 OA
ATOM     16  H   UNL     1       9.947  -3.820  23.300  0.00  0.00    +0.210 HD
ENDBRANCH  14  15
ENDBRANCH   1  14
TORSDOF 5
ENDMDL
MODEL 9
REMARK VINA RESULT:      -4.3      2.026      3.542
REMARK  Name = 
REMARK  5 active torsions:
REMARK  status: ('A' for Active; 'I' for Inactive)
REMARK    1  A    between atoms: O_1  and  C_2
REMARK    2  A    between atoms: C_2  and  C_3
REMARK    3  A    between atoms: C_6  and  O_8
REMARK    4  A    between atoms: C_12  and  O_14
REMARK    5  A    between atoms: C_15  and  O_17
REMARK                            x       y       z     vdW  Elec       q    Type
REMARK                         _______ _______ _______ _____ _____    ______ ____
ROOT
ATOM      1  C   UNL     1       8.995  -1.339  24.926  0.00  0.00    +0.178 C 
ATOM      2  C   UNL     1      10.033  -1.955  23.961  0.00  0.00    +0.177 C 
ATOM      3  C   UNL     1       9.746  -1.578  22.494  0.00  0.00    +0.184 C 
ATOM      4  C   UNL     1       8.287  -1.849  22.135  0.00  0.00    +0.252 C 
ATOM      5  F   UNL     1       8.110  -3.201  22.069  0.00  0.00    -0.237 F 
ATOM      6  C   UNL     1       7.353  -1.220  23.172  0.00  0.00    +0.284 C 
ATOM      7  O   UNL     1       7.645  -1.629  24.497  0.00  0.00    -0.340 OA
ENDROOT
BRANCH   2   8
ATOM      8  O   UNL     1      10.034  -3.377  24.147  0.00  0.00    -0.386 OA
ATOM      9  H   UNL     1       9.527  -3.802  23.435  0.00  0.00    +0.210 HD
ENDBRANCH   2   8
BRANCH   3  10
ATOM     10  O   UNL     1      10.084  -0.206  22.272  0.00  0.00    -0.386 OA
ATOM     11  H   UNL     1       9.720   0.059  21.405  0.00  0.00    +0.210 HD
ENDBRANCH   3  10
BRANCH   6  12
ATOM     12  O   UNL     1       6.007  -1.565  22.890  0.00  0.00    -0.365 OA
ATOM     13  H   UNL     1       5.932  -2.470  23.242  0.00  0.00    +0.213 HD
ENDBRANCH   6  12
BRANCH   1  14
ATOM     14  C   UNL     1       9.228   0.169  25.154  0.00  0.00    +0.190 C 
BRANCH  14  15
ATOM     15  O   UNL     1      10.622   0.446  25.267  0.00  0.00    -0.392 OA
ATOM     16  H   UNL     1      10.978  -0.149  25.948  0.00  0.00    +0.210 HD
ENDBRANCH  14  15
ENDBRANCH   1  14
TORSDOF 5
ENDMDL
