MODEL 1
REMARK VINA RESULT:      -5.6      0.000      0.000
REMARK  Name = 
REMARK  13 active torsions:
REMARK  status: ('A' for Active; 'I' for Inactive)
REMARK    1  A    between atoms: CB_1  and  CA_2
REMARK    2  A    between atoms: CA_2  and  N_4
REMARK    3  A    between atoms: CA_2  and  C_20
REMARK    4  A    between atoms: N_4  and  C_5
REMARK    5  A    between atoms: C_5  and  C_6
REMARK    6  A    between atoms: C_7  and  O_8
REMARK    7  A    between atoms: C_9  and  C_10
REMARK    8  A    between atoms: C_13  and  C_14
REMARK    9  A    between atoms: C_14  and  O_15
REMARK   10  A    between atoms: O_15  and  P_16
REMARK   11  A    between atoms: P_16  and  O_17
REMARK   12  A    between atoms: P_16  and  O_18
REMARK   13  A    between atoms: C_20  and  O_21
REMARK                            x       y       z     vdW  Elec       q    Type
REMARK                         _______ _______ _______ _____ _____    ______ ____
ROOT
ATOM      1  C   UNK A   0       7.771  -2.802  23.808  0.00  0.00    +0.016 A 
ATOM      2  C   UNK A   0       7.305  -2.737  25.147  0.00  0.00    +0.005 A 
ATOM      3  C   UNK A   0       7.931  -1.831  26.007  0.00  0.00    +0.117 A 
ATOM      4  N   UNK A   0       8.940  -1.006  25.664  0.00  0.00    -0.256 NA
ATOM      5  C   UNK A   0       9.387  -1.069  24.390  0.00  0.00    +0.080 A 
ATOM      6  C   UNK A   0      10.462  -0.085  24.041  0.00  0.00    +0.069 C 
ATOM      7  C   UNK A   0       8.842  -1.953  23.449  0.00  0.00    +0.142 A 
ENDROOT
BRANCH   7   8
ATOM      8  O   UNK A   0       9.372  -1.933  22.185  0.00  0.00    -0.505 OA
ATOM      9  H   UNK A   0       9.299  -2.801  21.766  0.00  0.00    +0.292 HD
ENDBRANCH   7   8
BRANCH   1  10
ATOM     10  C   UNK A   0       7.123  -3.697  22.767  0.00  0.00    +0.121 C 
BRANCH  10  11
ATOM     11  N   ALA A   1       7.372  -5.122  23.016  0.00  0.00    -0.300 NA
ATOM     12  H   ALA A   1       8.321  -5.384  22.749  0.00  0.00    +0.123 HD
BRANCH  11  14
ATOM     13  CB  ALA A   1       6.256  -5.687  20.848  0.00  0.00    +0.036 C 
ATOM     14  CA  ALA A   1       6.399  -6.009  22.330  0.00  0.00    +0.160 C 
BRANCH  14  15
ATOM     15  C   ALA A   1       5.057  -5.885  23.069  0.00  0.00    +0.322 C 
ATOM     16  OXT ALA A   1       4.071  -5.311  22.625  0.00  0.00    -0.249 OA
BRANCH  15  17
ATOM     17  O   ALA A   1       4.971  -6.597  24.204  0.00  0.00    -0.480 OA
ATOM     18  H   ALA A   1       5.434  -7.437  24.008  0.00  0.00    +0.295 HD
ENDBRANCH  15  17
ENDBRANCH  14  15
ENDBRANCH  11  14
ENDBRANCH  10  11
ENDBRANCH   1  10
BRANCH   2  19
ATOM     19  C   UNK A   0       6.129  -3.498  25.719  0.00  0.00    +0.209 C 
BRANCH  19  20
ATOM     20  O   UNK A   0       6.487  -4.832  25.991  0.00  0.00    -0.282 OA
BRANCH  20  21
ATOM     21  P   UNK A   0       6.428  -5.335  27.645  0.00  0.00    +0.473 P 
ATOM     22  O   UNK A   0       6.374  -5.785  29.126  0.00  0.00    -0.228 OA
BRANCH  21  23
ATOM     23  O   UNK A   0       7.967  -5.856  27.471  0.00  0.00    -0.303 OA
ATOM     24  H   UNK A   0       8.525  -5.054  27.520  0.00  0.00    +0.222 HD
ENDBRANCH  21  23
BRANCH  21  25
ATOM     25  O   UNK A   0       5.775  -6.695  27.016  0.00  0.00    -0.303 OA
ATOM     26  H   UNK A   0       5.217  -7.099  27.708  0.00  0.00    +0.222 HD
ENDBRANCH  21  25
ENDBRANCH  20  21
ENDBRANCH  19  20
ENDBRANCH   2  19
TORSDOF 11
ENDMDL
MODEL 2
REMARK VINA RESULT:      -5.6      1.611      1.939
REMARK  Name = 
REMARK  13 active torsions:
REMARK  status: ('A' for Active; 'I' for Inactive)
REMARK    1  A    between atoms: CB_1  and  CA_2
REMARK    2  A    between atoms: CA_2  and  N_4
REMARK    3  A    between atoms: CA_2  and  C_20
REMARK    4  A    between atoms: N_4  and  C_5
REMARK    5  A    between atoms: C_5  and  C_6
REMARK    6  A    between atoms: C_7  and  O_8
REMARK    7  A    between atoms: C_9  and  C_10
REMARK    8  A    between atoms: C_13  and  C_14
REMARK    9  A    between atoms: C_14  and  O_15
REMARK   10  A    between atoms: O_15  and  P_16
REMARK   11  A    between atoms: P_16  and  O_17
REMARK   12  A    between atoms: P_16  and  O_18
REMARK   13  A    between atoms: C_20  and  O_21
REMARK                            x       y       z     vdW  Elec       q    Type
REMARK                         _______ _______ _______ _____ _____    ______ ____
ROOT
ATOM      1  C   UNK A   0       8.162  -1.240  23.737  0.00  0.00    +0.016 A 
ATOM      2  C   UNK A   0       8.101  -1.589  25.111  0.00  0.00    +0.005 A 
ATOM      3  C   UNK A   0       8.924  -0.885  25.995  0.00  0.00    +0.117 A 
ATOM      4  N   UNK A   0       9.767   0.107  25.647  0.00  0.00    -0.256 NA
ATOM      5  C   UNK A   0       9.828   0.437  24.338  0.00  0.00    +0.080 A 
ATOM      6  C   UNK A   0      10.729   1.591  24.012  0.00  0.00    +0.069 C 
ATOM      7  C   UNK A   0       9.060  -0.215  23.365  0.00  0.00    +0.142 A 
ENDROOT
BRANCH   7   8
ATOM      8  O   UNK A   0       9.201   0.202  22.066  0.00  0.00    -0.505 OA
ATOM      9  H   UNK A   0      10.100   0.518  21.900  0.00  0.00    +0.292 HD
ENDBRANCH   7   8
BRANCH   1  10
ATOM     10  C   UNK A   0       7.266  -1.887  22.696  0.00  0.00    +0.121 C 
BRANCH  10  11
ATOM     11  N   ALA A   1       7.737  -3.219  22.298  0.00  0.00    -0.300 NA
ATOM     12  H   ALA A   1       8.362  -3.165  21.493  0.00  0.00    +0.123 HD
BRANCH  11  14
ATOM     13  CB  ALA A   1       5.328  -3.770  22.697  0.00  0.00    +0.036 C 
ATOM     14  CA  ALA A   1       6.629  -4.163  22.006  0.00  0.00    +0.160 C 
BRANCH  14  15
ATOM     15  C   ALA A   1       7.092  -5.567  22.424  0.00  0.00    +0.322 C 
ATOM     16  OXT ALA A   1       6.653  -6.611  21.956  0.00  0.00    -0.249 OA
BRANCH  15  17
ATOM     17  O   ALA A   1       8.149  -5.588  23.252  0.00  0.00    -0.480 OA
ATOM     18  H   ALA A   1       8.068  -4.769  23.782  0.00  0.00    +0.295 HD
ENDBRANCH  15  17
ENDBRANCH  14  15
ENDBRANCH  11  14
ENDBRANCH  10  11
ENDBRANCH   1  10
BRANCH   2  19
ATOM     19  C   UNK A   0       7.162  -2.599  25.733  0.00  0.00    +0.209 C 
BRANCH  19  20
ATOM     20  O   UNK A   0       7.634  -3.909  25.524  0.00  0.00    -0.282 OA
BRANCH  20  21
ATOM     21  P   UNK A   0       7.448  -5.026  26.832  0.00  0.00    +0.473 P 
ATOM     22  O   UNK A   0       7.281  -6.025  28.003  0.00  0.00    -0.228 OA
BRANCH  21  23
ATOM     23  O   UNK A   0       8.702  -5.865  26.204  0.00  0.00    -0.303 OA
ATOM     24  H   UNK A   0       8.658  -5.722  25.237  0.00  0.00    +0.222 HD
ENDBRANCH  21  23
BRANCH  21  25
ATOM     25  O   UNK A   0       6.343  -5.714  25.844  0.00  0.00    -0.303 OA
ATOM     26  H   UNK A   0       5.665  -5.039  25.647  0.00  0.00    +0.222 HD
ENDBRANCH  21  25
ENDBRANCH  20  21
ENDBRANCH  19  20
ENDBRANCH   2  19
TORSDOF 11
ENDMDL
MODEL 3
REMARK VINA RESULT:      -5.6      1.703      4.725
REMARK  Name = 
REMARK  13 active torsions:
REMARK  status: ('A' for Active; 'I' for Inactive)
REMARK    1  A    between atoms: CB_1  and  CA_2
REMARK    2  A    between atoms: CA_2  and  N_4
REMARK    3  A    between atoms: CA_2  and  C_20
REMARK    4  A    between atoms: N_4  and  C_5
REMARK    5  A    between atoms: C_5  and  C_6
REMARK    6  A    between atoms: C_7  and  O_8
REMARK    7  A    between atoms: C_9  and  C_10
REMARK    8  A    between atoms: C_13  and  C_14
REMARK    9  A    between atoms: C_14  and  O_15
REMARK   10  A    between atoms: O_15  and  P_16
REMARK   11  A    between atoms: P_16  and  O_17
REMARK   12  A    between atoms: P_16  and  O_18
REMARK   13  A    between atoms: C_20  and  O_21
REMARK                            x       y       z     vdW  Elec       q    Type
REMARK                         _______ _______ _______ _____ _____    ______ ____
ROOT
ATOM      1  C   UNK A   0       7.098  -3.747  24.338  0.00  0.00    +0.016 A 
ATOM      2  C   UNK A   0       6.383  -4.572  25.244  0.00  0.00    +0.005 A 
ATOM      3  C   UNK A   0       5.677  -5.656  24.714  0.00  0.00    +0.117 A 
ATOM      4  N   UNK A   0       5.627  -5.985  23.408  0.00  0.00    -0.256 NA
ATOM      5  C   UNK A   0       6.305  -5.197  22.544  0.00  0.00    +0.080 A 
ATOM      6  C   UNK A   0       6.273  -5.644  21.113  0.00  0.00    +0.069 C 
ATOM      7  C   UNK A   0       7.031  -4.076  22.965  0.00  0.00    +0.142 A 
ENDROOT
BRANCH   7   8
ATOM      8  O   UNK A   0       7.682  -3.348  22.003  0.00  0.00    -0.505 OA
ATOM      9  H   UNK A   0       7.667  -3.808  21.152  0.00  0.00    +0.292 HD
ENDBRANCH   7   8
BRANCH   1  10
ATOM     10  C   UNK A   0       7.956  -2.584  24.804  0.00  0.00    +0.121 C 
BRANCH  10  11
ATOM     11  N   ALA A   1       9.280  -2.573  24.173  0.00  0.00    -0.300 NA
ATOM     12  H   ALA A   1       9.906  -3.247  24.613  0.00  0.00    +0.123 HD
BRANCH  11  14
ATOM     13  CB  ALA A   1       9.140  -0.220  25.017  0.00  0.00    +0.036 C 
ATOM     14  CA  ALA A   1       9.913  -1.229  24.177  0.00  0.00    +0.160 C 
BRANCH  14  15
ATOM     15  C   ALA A   1      10.041  -0.771  22.716  0.00  0.00    +0.322 C 
ATOM     16  OXT ALA A   1      10.147   0.396  22.361  0.00  0.00    -0.249 OA
BRANCH  15  17
ATOM     17  O   ALA A   1      10.187  -1.765  21.824  0.00  0.00    -0.480 OA
ATOM     18  H   ALA A   1      10.914  -2.315  22.181  0.00  0.00    +0.295 HD
ENDBRANCH  15  17
ENDBRANCH  14  15
ENDBRANCH  11  14
ENDBRANCH  10  11
ENDBRANCH   1  10
BRANCH   2  19
ATOM     19  C   UNK A   0       6.379  -4.446  26.752  0.00  0.00    +0.209 C 
BRANCH  19  20
ATOM     20  O   UNK A   0       5.506  -5.389  27.326  0.00  0.00    -0.282 OA
BRANCH  20  21
ATOM     21  P   UNK A   0       6.006  -6.111  28.816  0.00  0.00    +0.473 P 
ATOM     22  O   UNK A   0       6.453  -6.758  30.151  0.00  0.00    -0.228 OA
BRANCH  21  23
ATOM     23  O   UNK A   0       7.480  -6.321  28.142  0.00  0.00    -0.303 OA
ATOM     24  H   UNK A   0       8.089  -5.755  28.657  0.00  0.00    +0.222 HD
ENDBRANCH  21  23
BRANCH  21  25
ATOM     25  O   UNK A   0       5.383  -7.469  28.153  0.00  0.00    -0.303 OA
ATOM     26  H   UNK A   0       5.876  -8.228  28.522  0.00  0.00    +0.222 HD
ENDBRANCH  21  25
ENDBRANCH  20  21
ENDBRANCH  19  20
ENDBRANCH   2  19
TORSDOF 11
ENDMDL
MODEL 4
REMARK VINA RESULT:      -5.6      2.447      3.089
REMARK  Name = 
REMARK  13 active torsions:
REMARK  status: ('A' for Active; 'I' for Inactive)
REMARK    1  A    between atoms: CB_1  and  CA_2
REMARK    2  A    between atoms: CA_2  and  N_4
REMARK    3  A    between atoms: CA_2  and  C_20
REMARK    4  A    between atoms: N_4  and  C_5
REMARK    5  A    between atoms: C_5  and  C_6
REMARK    6  A    between atoms: C_7  and  O_8
REMARK    7  A    between atoms: C_9  and  C_10
REMARK    8  A    between atoms: C_13  and  C_14
REMARK    9  A    between atoms: C_14  and  O_15
REMARK   10  A    between atoms: O_15  and  P_16
REMARK   11  A    between atoms: P_16  and  O_17
REMARK   12  A    between atoms: P_16  and  O_18
REMARK   13  A    between atoms: C_20  and  O_21
REMARK                            x       y       z     vdW  Elec       q    Type
REMARK                         _______ _______ _______ _____ _____    ______ ____
ROOT
ATOM      1  C   UNK A   0       7.730  -1.250  23.279  0.00  0.00    +0.016 A 
ATOM      2  C   UNK A   0       9.038  -1.769  23.466  0.00  0.00    +0.005 A 
ATOM      3  C   UNK A   0      10.115  -0.930  23.165  0.00  0.00    +0.117 A 
ATOM      4  N   UNK A   0      10.012   0.337  22.720  0.00  0.00    -0.256 NA
ATOM      5  C   UNK A   0       8.766   0.830  22.538  0.00  0.00    +0.080 A 
ATOM      6  C   UNK A   0       8.704   2.265  22.107  0.00  0.00    +0.069 C 
ATOM      7  C   UNK A   0       7.616   0.071  22.792  0.00  0.00    +0.142 A 
ENDROOT
BRANCH   7   8
ATOM      8  O   UNK A   0       6.404   0.672  22.575  0.00  0.00    -0.505 OA
ATOM      9  H   UNK A   0       6.461   1.627  22.714  0.00  0.00    +0.292 HD
ENDBRANCH   7   8
BRANCH   1  10
ATOM     10  C   UNK A   0       6.485  -2.043  23.637  0.00  0.00    +0.121 C 
BRANCH  10  11
ATOM     11  N   ALA A   1       5.732  -2.473  22.453  0.00  0.00    -0.300 NA
ATOM     12  H   ALA A   1       4.957  -1.840  22.258  0.00  0.00    +0.123 HD
BRANCH  11  14
ATOM     13  CB  ALA A   1       4.963  -4.280  24.007  0.00  0.00    +0.036 C 
ATOM     14  CA  ALA A   1       5.224  -3.864  22.564  0.00  0.00    +0.160 C 
BRANCH  14  15
ATOM     15  C   ALA A   1       6.246  -4.788  21.883  0.00  0.00    +0.322 C 
ATOM     16  OXT ALA A   1       7.197  -5.310  22.453  0.00  0.00    -0.249 OA
BRANCH  15  17
ATOM     17  O   ALA A   1       5.946  -5.127  20.619  0.00  0.00    -0.480 OA
ATOM     18  H   ALA A   1       5.207  -4.534  20.371  0.00  0.00    +0.295 HD
ENDBRANCH  15  17
ENDBRANCH  14  15
ENDBRANCH  11  14
ENDBRANCH  10  11
ENDBRANCH   1  10
BRANCH   2  19
ATOM     19  C   UNK A   0       9.386  -3.123  24.045  0.00  0.00    +0.209 C 
BRANCH  19  20
ATOM     20  O   UNK A   0       9.071  -3.171  25.415  0.00  0.00    -0.282 OA
BRANCH  20  21
ATOM     21  P   UNK A   0       8.315  -4.616  25.994  0.00  0.00    +0.473 P 
ATOM     22  O   UNK A   0       7.638  -5.909  26.511  0.00  0.00    -0.228 OA
BRANCH  21  23
ATOM     23  O   UNK A   0       9.581  -4.789  27.014  0.00  0.00    -0.303 OA
ATOM     24  H   UNK A   0      10.245  -5.315  26.524  0.00  0.00    +0.222 HD
ENDBRANCH  21  23
BRANCH  21  25
ATOM     25  O   UNK A   0       9.090  -5.307  24.732  0.00  0.00    -0.303 OA
ATOM     26  H   UNK A   0      10.044  -5.119  24.835  0.00  0.00    +0.222 HD
ENDBRANCH  21  25
ENDBRANCH  20  21
ENDBRANCH  19  20
ENDBRANCH   2  19
TORSDOF 11
ENDMDL
MODEL 5
REMARK VINA RESULT:      -5.6      2.953      4.536
REMARK  Name = 
REMARK  13 active torsions:
REMARK  status: ('A' for Active; 'I' for Inactive)
REMARK    1  A    between atoms: CB_1  and  CA_2
REMARK    2  A    between atoms: CA_2  and  N_4
REMARK    3  A    between atoms: CA_2  and  C_20
REMARK    4  A    between atoms: N_4  and  C_5
REMARK    5  A    between atoms: C_5  and  C_6
REMARK    6  A    between atoms: C_7  and  O_8
REMARK    7  A    between atoms: C_9  and  C_10
REMARK    8  A    between atoms: C_13  and  C_14
REMARK    9  A    between atoms: C_14  and  O_15
REMARK   10  A    between atoms: O_15  and  P_16
REMARK   11  A    between atoms: P_16  and  O_17
REMARK   12  A    between atoms: P_16  and  O_18
REMARK   13  A    between atoms: C_20  and  O_21
REMARK                            x       y       z     vdW  Elec       q    Type
REMARK                         _______ _______ _______ _____ _____    ______ ____
ROOT
ATOM      1  C   UNK A   0       8.158  -1.284  24.720  0.00  0.00    +0.016 A 
ATOM      2  C   UNK A   0       7.871  -1.521  23.350  0.00  0.00    +0.005 A 
ATOM      3  C   UNK A   0       8.637  -0.838  22.401  0.00  0.00    +0.117 A 
ATOM      4  N   UNK A   0       9.635   0.023  22.684  0.00  0.00    -0.256 NA
ATOM      5  C   UNK A   0       9.906   0.251  23.988  0.00  0.00    +0.080 A 
ATOM      6  C   UNK A   0      11.068   1.163  24.248  0.00  0.00    +0.069 C 
ATOM      7  C   UNK A   0       9.189  -0.367  25.021  0.00  0.00    +0.142 A 
ENDROOT
BRANCH   7   8
ATOM      8  O   UNK A   0       9.550  -0.063  26.308  0.00  0.00    -0.505 OA
ATOM      9  H   UNK A   0       9.384   0.869  26.503  0.00  0.00    +0.292 HD
ENDBRANCH   7   8
BRANCH   1  10
ATOM     10  C   UNK A   0       7.439  -2.020  25.837  0.00  0.00    +0.121 C 
BRANCH  10  11
ATOM     11  N   ALA A   1       8.282  -3.037  26.475  0.00  0.00    -0.300 NA
ATOM     12  H   ALA A   1       9.271  -2.794  26.406  0.00  0.00    +0.123 HD
BRANCH  11  14
ATOM     13  CB  ALA A   1       7.619  -5.395  26.990  0.00  0.00    +0.036 C 
ATOM     14  CA  ALA A   1       8.064  -4.399  25.926  0.00  0.00    +0.160 C 
BRANCH  14  15
ATOM     15  C   ALA A   1       9.369  -4.840  25.247  0.00  0.00    +0.322 C 
ATOM     16  OXT ALA A   1      10.044  -4.130  24.511  0.00  0.00    -0.249 OA
BRANCH  15  17
ATOM     17  O   ALA A   1       9.830  -6.040  25.636  0.00  0.00    -0.480 OA
ATOM     18  H   ALA A   1       9.590  -6.104  26.583  0.00  0.00    +0.295 HD
ENDBRANCH  15  17
ENDBRANCH  14  15
ENDBRANCH  11  14
ENDBRANCH  10  11
ENDBRANCH   1  10
BRANCH   2  19
ATOM     19  C   UNK A   0       6.865  -2.513  22.809  0.00  0.00    +0.209 C 
BRANCH  19  20
ATOM     20  O   UNK A   0       7.508  -3.695  22.397  0.00  0.00    -0.282 OA
BRANCH  20  21
ATOM     21  P   UNK A   0       6.524  -4.894  21.630  0.00  0.00    +0.473 P 
ATOM     22  O   UNK A   0       5.644  -5.967  20.942  0.00  0.00    -0.228 OA
BRANCH  21  23
ATOM     23  O   UNK A   0       5.291  -3.822  21.690  0.00  0.00    -0.303 OA
ATOM     24  H   UNK A   0       4.474  -4.360  21.709  0.00  0.00    +0.222 HD
ENDBRANCH  21  23
BRANCH  21  25
ATOM     25  O   UNK A   0       6.293  -5.419  23.159  0.00  0.00    -0.303 OA
ATOM     26  H   UNK A   0       6.586  -6.351  23.197  0.00  0.00    +0.222 HD
ENDBRANCH  21  25
ENDBRANCH  20  21
ENDBRANCH  19  20
ENDBRANCH   2  19
TORSDOF 11
ENDMDL
MODEL 6
REMARK VINA RESULT:      -5.4      1.273      1.741
REMARK  Name = 
REMARK  13 active torsions:
REMARK  status: ('A' for Active; 'I' for Inactive)
REMARK    1  A    between atoms: CB_1  and  CA_2
REMARK    2  A    between atoms: CA_2  and  N_4
REMARK    3  A    between atoms: CA_2  and  C_20
REMARK    4  A    between atoms: N_4  and  C_5
REMARK    5  A    between atoms: C_5  and  C_6
REMARK    6  A    between atoms: C_7  and  O_8
REMARK    7  A    between atoms: C_9  and  C_10
REMARK    8  A    between atoms: C_13  and  C_14
REMARK    9  A    between atoms: C_14  and  O_15
REMARK   10  A    between atoms: O_15  and  P_16
REMARK   11  A    between atoms: P_16  and  O_17
REMARK   12  A    between atoms: P_16  and  O_18
REMARK   13  A    between atoms: C_20  and  O_21
REMARK                            x       y       z     vdW  Elec       q    Type
REMARK                         _______ _______ _______ _____ _____    ______ ____
ROOT
ATOM      1  C   UNK A   0       8.419  -2.616  24.419  0.00  0.00    +0.016 A 
ATOM      2  C   UNK A   0       7.903  -2.242  25.687  0.00  0.00    +0.005 A 
ATOM      3  C   UNK A   0       8.419  -1.087  26.281  0.00  0.00    +0.117 A 
ATOM      4  N   UNK A   0       9.363  -0.292  25.741  0.00  0.00    -0.256 NA
ATOM      5  C   UNK A   0       9.858  -0.649  24.534  0.00  0.00    +0.080 A 
ATOM      6  C   UNK A   0      10.855   0.303  23.946  0.00  0.00    +0.069 C 
ATOM      7  C   UNK A   0       9.425  -1.797  23.858  0.00  0.00    +0.142 A 
ENDROOT
BRANCH   7   8
ATOM      8  O   UNK A   0       9.994  -2.063  22.640  0.00  0.00    -0.505 OA
ATOM      9  H   UNK A   0      10.922  -1.794  22.626  0.00  0.00    +0.292 HD
ENDBRANCH   7   8
BRANCH   1  10
ATOM     10  C   UNK A   0       7.888  -3.811  23.648  0.00  0.00    +0.121 C 
BRANCH  10  11
ATOM     11  N   ALA A   1       7.441  -3.455  22.296  0.00  0.00    -0.300 NA
ATOM     12  H   ALA A   1       7.522  -2.451  22.132  0.00  0.00    +0.123 HD
BRANCH  11  14
ATOM     13  CB  ALA A   1       5.096  -3.605  23.160  0.00  0.00    +0.036 C 
ATOM     14  CA  ALA A   1       6.052  -3.895  22.009  0.00  0.00    +0.160 C 
BRANCH  14  15
ATOM     15  C   ALA A   1       6.100  -5.395  21.677  0.00  0.00    +0.322 C 
ATOM     16  OXT ALA A   1       7.018  -5.945  21.081  0.00  0.00    -0.249 OA
BRANCH  15  17
ATOM     17  O   ALA A   1       5.117  -6.126  22.227  0.00  0.00    -0.480 OA
ATOM     18  H   ALA A   1       4.347  -5.522  22.261  0.00  0.00    +0.295 HD
ENDBRANCH  15  17
ENDBRANCH  14  15
ENDBRANCH  11  14
ENDBRANCH  10  11
ENDBRANCH   1  10
BRANCH   2  19
ATOM     19  C   UNK A   0       6.778  -2.930  26.429  0.00  0.00    +0.209 C 
BRANCH  19  20
ATOM     20  O   UNK A   0       7.282  -3.946  27.262  0.00  0.00    -0.282 OA
BRANCH  20  21
ATOM     21  P   UNK A   0       6.457  -5.466  27.230  0.00  0.00    +0.473 P 
ATOM     22  O   UNK A   0       5.718  -6.827  27.200  0.00  0.00    -0.228 OA
BRANCH  21  23
ATOM     23  O   UNK A   0       6.486  -5.440  28.864  0.00  0.00    -0.303 OA
ATOM     24  H   UNK A   0       6.318  -4.510  29.116  0.00  0.00    +0.222 HD
ENDBRANCH  21  23
BRANCH  21  25
ATOM     25  O   UNK A   0       7.968  -6.074  27.099  0.00  0.00    -0.303 OA
ATOM     26  H   UNK A   0       8.559  -5.509  27.634  0.00  0.00    +0.222 HD
ENDBRANCH  21  25
ENDBRANCH  20  21
ENDBRANCH  19  20
ENDBRANCH   2  19
TORSDOF 11
ENDMDL
MODEL 7
REMARK VINA RESULT:      -5.3      2.810      5.997
REMARK  Name = 
REMARK  13 active torsions:
REMARK  status: ('A' for Active; 'I' for Inactive)
REMARK    1  A    between atoms: CB_1  and  CA_2
REMARK    2  A    between atoms: CA_2  and  N_4
REMARK    3  A    between atoms: CA_2  and  C_20
REMARK    4  A    between atoms: N_4  and  C_5
REMARK    5  A    between atoms: C_5  and  C_6
REMARK    6  A    between atoms: C_7  and  O_8
REMARK    7  A    between atoms: C_9  and  C_10
REMARK    8  A    between atoms: C_13  and  C_14
REMARK    9  A    between atoms: C_14  and  O_15
REMARK   10  A    between atoms: O_15  and  P_16
REMARK   11  A    between atoms: P_16  and  O_17
REMARK   12  A    between atoms: P_16  and  O_18
REMARK   13  A    between atoms: C_20  and  O_21
REMARK                            x       y       z     vdW  Elec       q    Type
REMARK                         _______ _______ _______ _____ _____    ______ ____
ROOT
ATOM      1  C   UNK A   0       7.924  -3.358  23.200  0.00  0.00    +0.016 A 
ATOM      2  C   UNK A   0       7.109  -2.252  22.846  0.00  0.00    +0.005 A 
ATOM      3  C   UNK A   0       5.976  -2.505  22.067  0.00  0.00    +0.117 A 
ATOM      4  N   UNK A   0       5.590  -3.720  21.632  0.00  0.00    -0.256 NA
ATOM      5  C   UNK A   0       6.367  -4.774  21.966  0.00  0.00    +0.080 A 
ATOM      6  C   UNK A   0       5.858  -6.111  21.515  0.00  0.00    +0.069 C 
ATOM      7  C   UNK A   0       7.534  -4.632  22.728  0.00  0.00    +0.142 A 
ENDROOT
BRANCH   7   8
ATOM      8  O   UNK A   0       8.246  -5.769  23.009  0.00  0.00    -0.505 OA
ATOM      9  H   UNK A   0       8.829  -5.633  23.769  0.00  0.00    +0.292 HD
ENDBRANCH   7   8
BRANCH   1  10
ATOM     10  C   UNK A   0       9.139  -3.215  24.099  0.00  0.00    +0.121 C 
BRANCH  10  11
ATOM     11  N   ALA A   1       9.021  -3.999  25.334  0.00  0.00    -0.300 NA
ATOM     12  H   ALA A   1       9.131  -4.996  25.151  0.00  0.00    +0.123 HD
BRANCH  11  14
ATOM     13  CB  ALA A   1       7.687  -2.389  26.710  0.00  0.00    +0.036 C 
ATOM     14  CA  ALA A   1       7.743  -3.762  26.051  0.00  0.00    +0.160 C 
BRANCH  14  15
ATOM     15  C   ALA A   1       7.571  -4.891  27.079  0.00  0.00    +0.322 C 
ATOM     16  OXT ALA A   1       6.745  -4.887  27.984  0.00  0.00    -0.249 OA
BRANCH  15  17
ATOM     17  O   ALA A   1       8.300  -5.993  26.833  0.00  0.00    -0.480 OA
ATOM     18  H   ALA A   1       8.714  -6.214  27.692  0.00  0.00    +0.295 HD
ENDBRANCH  15  17
ENDBRANCH  14  15
ENDBRANCH  11  14
ENDBRANCH  10  11
ENDBRANCH   1  10
BRANCH   2  19
ATOM     19  C   UNK A   0       7.300  -0.822  23.303  0.00  0.00    +0.209 C 
BRANCH  19  20
ATOM     20  O   UNK A   0       7.845  -0.040  22.269  0.00  0.00    -0.282 OA
BRANCH  20  21
ATOM     21  P   UNK A   0       9.197   0.961  22.674  0.00  0.00    +0.473 P 
ATOM     22  O   UNK A   0      10.407   1.857  23.038  0.00  0.00    -0.228 OA
BRANCH  21  23
ATOM     23  O   UNK A   0       9.121   1.562  21.156  0.00  0.00    -0.303 OA
ATOM     24  H   UNK A   0       9.118   2.535  21.257  0.00  0.00    +0.222 HD
ENDBRANCH  21  23
BRANCH  21  25
ATOM     25  O   UNK A   0      10.066  -0.351  22.235  0.00  0.00    -0.303 OA
ATOM     26  H   UNK A   0      11.008  -0.093  22.237  0.00  0.00    +0.222 HD
ENDBRANCH  21  25
ENDBRANCH  20  21
ENDBRANCH  19  20
ENDBRANCH   2  19
TORSDOF 11
ENDMDL
MODEL 8
REMARK VINA RESULT:      -5.2      2.558      4.216
REMARK  Name = 
REMARK  13 active torsions:
REMARK  status: ('A' for Active; 'I' for Inactive)
REMARK    1  A    between atoms: CB_1  and  CA_2
REMARK    2  A    between atoms: CA_2  and  N_4
REMARK    3  A    between atoms: CA_2  and  C_20
REMARK    4  A    between atoms: N_4  and  C_5
REMARK    5  A    between atoms: C_5  and  C_6
REMARK    6  A    between atoms: C_7  and  O_8
REMARK    7  A    between atoms: C_9  and  C_10
REMARK    8  A    between atoms: C_13  and  C_14
REMARK    9  A    between atoms: C_14  and  O_15
REMARK   10  A    between atoms: O_15  and  P_16
REMARK   11  A    between atoms: P_16  and  O_17
REMARK   12  A    between atoms: P_16  and  O_18
REMARK   13  A    between atoms: C_20  and  O_21
REMARK                            x       y       z     vdW  Elec       q    Type
REMARK                         _______ _______ _______ _____ _____    ______ ____
ROOT
ATOM      1  C   UNK A   0       8.601  -1.188  24.477  0.00  0.00    +0.016 A 
ATOM      2  C   UNK A   0       7.557  -1.252  23.518  0.00  0.00    +0.005 A 
ATOM      3  C   UNK A   0       7.072  -0.044  23.007  0.00  0.00    +0.117 A 
ATOM      4  N   UNK A   0       7.523   1.179  23.348  0.00  0.00    -0.256 NA
ATOM      5  C   UNK A   0       8.515   1.241  24.264  0.00  0.00    +0.080 A 
ATOM      6  C   UNK A   0       9.027   2.619  24.557  0.00  0.00    +0.069 C 
ATOM      7  C   UNK A   0       9.063   0.094  24.852  0.00  0.00    +0.142 A 
ENDROOT
BRANCH   7   8
ATOM      8  O   UNK A   0      10.066   0.273  25.769  0.00  0.00    -0.505 OA
ATOM      9  H   UNK A   0      10.551   1.092  25.596  0.00  0.00    +0.292 HD
ENDBRANCH   7   8
BRANCH   1  10
ATOM     10  C   UNK A   0       9.253  -2.434  25.049  0.00  0.00    +0.121 C 
BRANCH  10  11
ATOM     11  N   ALA A   1       8.507  -2.990  26.183  0.00  0.00    -0.300 NA
ATOM     12  H   ALA A   1       8.632  -2.423  27.022  0.00  0.00    +0.123 HD
BRANCH  11  14
ATOM     13  CB  ALA A   1       9.620  -5.064  25.333  0.00  0.00    +0.036 C 
ATOM     14  CA  ALA A   1       8.864  -4.400  26.478  0.00  0.00    +0.160 C 
BRANCH  14  15
ATOM     15  C   ALA A   1       7.565  -5.150  26.808  0.00  0.00    +0.322 C 
ATOM     16  OXT ALA A   1       6.543  -5.099  26.134  0.00  0.00    -0.249 OA
BRANCH  15  17
ATOM     17  O   ALA A   1       7.657  -6.015  27.831  0.00  0.00    -0.480 OA
ATOM     18  H   ALA A   1       8.617  -6.081  28.016  0.00  0.00    +0.295 HD
ENDBRANCH  15  17
ENDBRANCH  14  15
ENDBRANCH  11  14
ENDBRANCH  10  11
ENDBRANCH   1  10
BRANCH   2  19
ATOM     19  C   UNK A   0       6.969  -2.513  22.923  0.00  0.00    +0.209 C 
BRANCH  19  20
ATOM     20  O   UNK A   0       5.669  -2.734  23.416  0.00  0.00    -0.282 OA
BRANCH  20  21
ATOM     21  P   UNK A   0       4.902  -4.217  22.962  0.00  0.00    +0.473 P 
ATOM     22  O   UNK A   0       4.215  -5.544  22.556  0.00  0.00    -0.228 OA
BRANCH  21  23
ATOM     23  O   UNK A   0       6.297  -4.977  23.349  0.00  0.00    -0.303 OA
ATOM     24  H   UNK A   0       6.034  -5.866  23.663  0.00  0.00    +0.222 HD
ENDBRANCH  21  23
BRANCH  21  25
ATOM     25  O   UNK A   0       5.408  -3.806  21.464  0.00  0.00    -0.303 OA
ATOM     26  H   UNK A   0       6.381  -3.728  21.494  0.00  0.00    +0.222 HD
ENDBRANCH  21  25
ENDBRANCH  20  21
ENDBRANCH  19  20
ENDBRANCH   2  19
TORSDOF 11
ENDMDL
MODEL 9
REMARK VINA RESULT:      -5.2      2.152      2.910
REMARK  Name = 
REMARK  13 active torsions:
REMARK  status: ('A' for Active; 'I' for Inactive)
REMARK    1  A    between atoms: CB_1  and  CA_2
REMARK    2  A    between atoms: CA_2  and  N_4
REMARK    3  A    between atoms: CA_2  and  C_20
REMARK    4  A    between atoms: N_4  and  C_5
REMARK    5  A    between atoms: C_5  and  C_6
REMARK    6  A    between atoms: C_7  and  O_8
REMARK    7  A    between atoms: C_9  and  C_10
REMARK    8  A    between atoms: C_13  and  C_14
REMARK    9  A    between atoms: C_14  and  O_15
REMARK   10  A    between atoms: O_15  and  P_16
REMARK   11  A    between atoms: P_16  and  O_17
REMARK   12  A    between atoms: P_16  and  O_18
REMARK   13  A    between atoms: C_20  and  O_21
REMARK                            x       y       z     vdW  Elec       q    Type
REMARK                         _______ _______ _______ _____ _____    ______ ____
ROOT
ATOM      1  C   UNK A   0       9.203  -1.759  24.032  0.00  0.00    +0.016 A 
ATOM      2  C   UNK A   0       8.777  -1.080  25.202  0.00  0.00    +0.005 A 
ATOM      3  C   UNK A   0       8.824   0.318  25.193  0.00  0.00    +0.117 A 
ATOM      4  N   UNK A   0       9.235   1.073  24.155  0.00  0.00    -0.256 NA
ATOM      5  C   UNK A   0       9.645   0.426  23.041  0.00  0.00    +0.080 A 
ATOM      6  C   UNK A   0      10.028   1.311  21.894  0.00  0.00    +0.069 C 
ATOM      7  C   UNK A   0       9.655  -0.972  22.949  0.00  0.00    +0.142 A 
ENDROOT
BRANCH   7   8
ATOM      8  O   UNK A   0      10.090  -1.523  21.771  0.00  0.00    -0.505 OA
ATOM      9  H   UNK A   0      11.030  -1.745  21.820  0.00  0.00    +0.292 HD
ENDBRANCH   7   8
BRANCH   1  10
ATOM     10  C   UNK A   0       9.132  -3.270  23.901  0.00  0.00    +0.121 C 
BRANCH  10  11
ATOM     11  N   ALA A   1       7.933  -3.717  23.182  0.00  0.00    -0.300 NA
ATOM     12  H   ALA A   1       7.124  -3.142  23.418  0.00  0.00    +0.123 HD
BRANCH  11  14
ATOM     13  CB  ALA A   1       7.278  -5.894  22.134  0.00  0.00    +0.036 C 
ATOM     14  CA  ALA A   1       7.613  -5.147  23.419  0.00  0.00    +0.160 C 
BRANCH  14  15
ATOM     15  C   ALA A   1       6.454  -5.203  24.426  0.00  0.00    +0.322 C 
ATOM     16  OXT ALA A   1       5.268  -5.156  24.123  0.00  0.00    -0.249 OA
BRANCH  15  17
ATOM     17  O   ALA A   1       6.819  -5.470  25.691  0.00  0.00    -0.480 OA
ATOM     18  H   ALA A   1       6.187  -6.154  25.994  0.00  0.00    +0.295 HD
ENDBRANCH  15  17
ENDBRANCH  14  15
ENDBRANCH  11  14
ENDBRANCH  10  11
ENDBRANCH   1  10
BRANCH   2  19
ATOM     19  C   UNK A   0       8.189  -1.720  26.441  0.00  0.00    +0.209 C 
BRANCH  19  20
ATOM     20  O   UNK A   0       7.065  -2.499  26.110  0.00  0.00    -0.282 OA
BRANCH  20  21
ATOM     21  P   UNK A   0       5.539  -1.686  26.055  0.00  0.00    +0.473 P 
ATOM     22  O   UNK A   0       4.173  -0.958  26.006  0.00  0.00    -0.228 OA
BRANCH  21  23
ATOM     23  O   UNK A   0       4.844  -3.106  26.473  0.00  0.00    -0.303 OA
ATOM     24  H   UNK A   0       5.567  -3.658  26.832  0.00  0.00    +0.222 HD
ENDBRANCH  21  23
BRANCH  21  25
ATOM     25  O   UNK A   0       5.607  -2.056  24.465  0.00  0.00    -0.303 OA
ATOM     26  H   UNK A   0       4.689  -2.106  24.136  0.00  0.00    +0.222 HD
ENDBRANCH  21  25
ENDBRANCH  20  21
ENDBRANCH  19  20
ENDBRANCH   2  19
TORSDOF 11
ENDMDL
