MODEL 1
REMARK VINA RESULT:      -7.4      0.000      0.000
REMARK  Name = 
REMARK  7 active torsions:
REMARK  status: ('A' for Active; 'I' for Inactive)
REMARK    1  A    between atoms: C_2  and  C_3
REMARK    2  A    between atoms: C_2  and  N_10
REMARK    3  A    between atoms: C_2  and  C_23
REMARK    4  A    between atoms: C_3  and  C_4
REMARK    5  A    between atoms: C_11  and  C_13
REMARK    6  A    between atoms: C_27  and  C_29
REMARK    7  A    between atoms: C_29  and  O_30
REMARK                            x       y       z     vdW  Elec       q    Type
REMARK                         _______ _______ _______ _____ _____    ______ ____
ROOT
ATOM      1  C   UNL     1       7.634  -2.265  24.521  0.00  0.00    +0.164 C 
ENDROOT
BRANCH   1   2
ATOM      2  C   UNL     1       7.323  -2.490  26.022  0.00  0.00    +0.236 C 
ATOM      3  N   UNL     1       6.047  -2.951  26.302  0.00  0.00    -0.298 N 
ATOM      4  C   UNL     1       5.407  -4.108  25.669  0.00  0.00    +0.124 C 
ATOM      5  C   UNL     1       5.193  -4.676  27.080  0.00  0.00    +0.132 C 
ATOM      6  C   UNL     1       5.538  -3.292  27.633  0.00  0.00    +0.124 C 
ATOM      7  O   UNL     1       8.175  -2.451  26.910  0.00  0.00    -0.274 OA
BRANCH   5   8
ATOM      8  C   UNL     1       6.043  -5.895  27.489  0.00  0.00    +0.311 C 
ATOM      9  O   UNL     1       7.228  -5.833  27.815  0.00  0.00    -0.251 OA
BRANCH   8  10
ATOM     10  O   UNL     1       5.403  -7.097  27.480  0.00  0.00    -0.480 OA
ATOM     11  H   UNL     1       5.230  -7.490  26.596  0.00  0.00    +0.295 HD
ENDBRANCH   8  10
ENDBRANCH   5   8
ENDBRANCH   1   2
BRANCH   1  12
ATOM     12  N   UNL     1       8.316  -0.985  24.304  0.00  0.00    -0.299 N 
ATOM     13  H   UNL     1       9.179  -0.825  24.803  0.00  0.00    +0.150 HD
ATOM     14  C   UNL     1       7.840  -0.032  23.440  0.00  0.00    +0.261 C 
ATOM     15  O   UNL     1       6.807  -0.190  22.797  0.00  0.00    -0.269 OA
BRANCH  14  16
ATOM     16  C   UNL     1       8.606   1.193  23.379  0.00  0.00    +0.103 A 
ATOM     17  N   UNL     1       7.997   2.423  23.523  0.00  0.00    -0.351 N 
ATOM     18  H   UNL     1       6.999   2.541  23.640  0.00  0.00    +0.166 HD
ATOM     19  C   UNL     1       8.927   3.432  23.595  0.00  0.00    +0.047 A 
ATOM     20  C   UNL     1       8.759   4.802  23.837  0.00  0.00    +0.027 A 
ATOM     21  C   UNL     1       9.913   5.591  23.898  0.00  0.00    +0.022 A 
ATOM     22  C   UNL     1      11.171   5.029  23.697  0.00  0.00    +0.042 A 
ATOM     23  C   UNL     1      11.322   3.666  23.422  0.00  0.00    +0.030 A 
ATOM     24 CL   UNL     1      12.572   6.027  23.812  0.00  0.00    -0.084 Cl
ATOM     25  C   UNL     1      10.175   2.849  23.388  0.00  0.00    +0.002 A 
ATOM     26  C   UNL     1       9.958   1.451  23.207  0.00  0.00    +0.041 A 
ENDBRANCH  14  16
ENDBRANCH   1  12
BRANCH   1  27
ATOM     27  C   UNL     1       8.373  -3.466  23.891  0.00  0.00    +0.067 C 
BRANCH  27  28
ATOM     28  C   UNL     1       7.571  -4.280  22.897  0.00  0.00    -0.045 A 
ATOM     29  C   UNL     1       7.672  -5.678  22.850  0.00  0.00    +0.004 A 
ATOM     30  C   UNL     1       6.898  -6.420  21.958  0.00  0.00    +0.000 A 
ATOM     31  C   UNL     1       6.038  -5.772  21.074  0.00  0.00    +0.000 A 
ATOM     32  C   UNL     1       5.959  -4.382  21.078  0.00  0.00    +0.000 A 
ATOM     33  C   UNL     1       6.718  -3.640  21.985  0.00  0.00    +0.004 A 
ENDBRANCH  27  28
ENDBRANCH   1  27
TORSDOF 7
ENDMDL
MODEL 2
REMARK VINA RESULT:      -7.1      4.022      8.681
REMARK  Name = 
REMARK  7 active torsions:
REMARK  status: ('A' for Active; 'I' for Inactive)
REMARK    1  A    between atoms: C_2  and  C_3
REMARK    2  A    between atoms: C_2  and  N_10
REMARK    3  A    between atoms: C_2  and  C_23
REMARK    4  A    between atoms: C_3  and  C_4
REMARK    5  A    between atoms: C_11  and  C_13
REMARK    6  A    between atoms: C_27  and  C_29
REMARK    7  A    between atoms: C_29  and  O_30
REMARK                            x       y       z     vdW  Elec       q    Type
REMARK                         _______ _______ _______ _____ _____    ______ ____
ROOT
ATOM      1  C   UNL     1       8.414  -2.522  25.144  0.00  0.00    +0.164 C 
ENDROOT
BRANCH   1   2
ATOM      2  C   UNL     1       8.035  -1.044  24.877  0.00  0.00    +0.236 C 
ATOM      3  N   UNL     1       9.068  -0.130  25.018  0.00  0.00    -0.298 N 
ATOM      4  C   UNL     1      10.386  -0.239  24.386  0.00  0.00    +0.124 C 
ATOM      5  C   UNL     1      10.137   1.153  23.787  0.00  0.00    +0.132 C 
ATOM      6  C   UNL     1       8.972   1.309  24.764  0.00  0.00    +0.124 C 
ATOM      7  O   UNL     1       6.959  -0.690  24.396  0.00  0.00    -0.274 OA
BRANCH   5   8
ATOM      8  C   UNL     1       9.877   1.235  22.269  0.00  0.00    +0.311 C 
ATOM      9  O   UNL     1       9.340   0.345  21.611  0.00  0.00    -0.251 OA
BRANCH   8  10
ATOM     10  O   UNL     1      10.278   2.384  21.658  0.00  0.00    -0.480 OA
ATOM     11  H   UNL     1      11.060   2.833  22.047  0.00  0.00    +0.295 HD
ENDBRANCH   8  10
ENDBRANCH   5   8
ENDBRANCH   1   2
BRANCH   1  12
ATOM     12  N   UNL     1       7.320  -3.242  25.803  0.00  0.00    -0.299 N 
ATOM     13  H   UNL     1       6.376  -2.974  25.569  0.00  0.00    +0.150 HD
ATOM     14  C   UNL     1       7.539  -4.267  26.689  0.00  0.00    +0.261 C 
ATOM     15  O   UNL     1       8.668  -4.641  26.990  0.00  0.00    -0.269 OA
BRANCH  14  16
ATOM     16  C   UNL     1       6.352  -4.838  27.287  0.00  0.00    +0.103 A 
ATOM     17  N   UNL     1       5.125  -4.748  26.660  0.00  0.00    -0.351 N 
ATOM     18  H   UNL     1       4.979  -4.258  25.788  0.00  0.00    +0.166 HD
ATOM     19  C   UNL     1       4.177  -5.494  27.318  0.00  0.00    +0.047 A 
ATOM     20  C   UNL     1       2.844  -5.764  26.981  0.00  0.00    +0.027 A 
ATOM     21  C   UNL     1       2.122  -6.607  27.833  0.00  0.00    +0.022 A 
ATOM     22  C   UNL     1       2.709  -7.128  28.984  0.00  0.00    +0.042 A 
ATOM     23  C   UNL     1       4.030  -6.823  29.326  0.00  0.00    +0.030 A 
ATOM     24 CL   UNL     1       1.799  -8.188  29.993  0.00  0.00    -0.084 Cl
ATOM     25  C   UNL     1       4.784  -6.002  28.465  0.00  0.00    +0.002 A 
ATOM     26  C   UNL     1       6.135  -5.546  28.459  0.00  0.00    +0.041 A 
ENDBRANCH  14  16
ENDBRANCH   1  12
BRANCH   1  27
ATOM     27  C   UNL     1       8.933  -3.230  23.874  0.00  0.00    +0.067 C 
BRANCH  27  28
ATOM     28  C   UNL     1       7.888  -3.966  23.060  0.00  0.00    -0.045 A 
ATOM     29  C   UNL     1       7.004  -3.278  22.217  0.00  0.00    +0.004 A 
ATOM     30  C   UNL     1       6.073  -3.970  21.443  0.00  0.00    +0.000 A 
ATOM     31  C   UNL     1       5.987  -5.357  21.527  0.00  0.00    +0.000 A 
ATOM     32  C   UNL     1       6.828  -6.051  22.393  0.00  0.00    +0.000 A 
ATOM     33  C   UNL     1       7.775  -5.361  23.153  0.00  0.00    +0.004 A 
ENDBRANCH  27  28
ENDBRANCH   1  27
TORSDOF 7
ENDMDL
MODEL 3
REMARK VINA RESULT:      -7.1      2.325      3.428
REMARK  Name = 
REMARK  7 active torsions:
REMARK  status: ('A' for Active; 'I' for Inactive)
REMARK    1  A    between atoms: C_2  and  C_3
REMARK    2  A    between atoms: C_2  and  N_10
REMARK    3  A    between atoms: C_2  and  C_23
REMARK    4  A    between atoms: C_3  and  C_4
REMARK    5  A    between atoms: C_11  and  C_13
REMARK    6  A    between atoms: C_27  and  C_29
REMARK    7  A    between atoms: C_29  and  O_30
REMARK                            x       y       z     vdW  Elec       q    Type
REMARK                         _______ _______ _______ _____ _____    ______ ____
ROOT
ATOM      1  C   UNL     1       6.014  -4.197  25.699  0.00  0.00    +0.164 C 
ENDROOT
BRANCH   1   2
ATOM      2  C   UNL     1       6.254  -4.533  27.192  0.00  0.00    +0.236 C 
ATOM      3  N   UNL     1       5.169  -4.327  28.030  0.00  0.00    -0.298 N 
ATOM      4  C   UNL     1       3.814  -4.840  27.802  0.00  0.00    +0.124 C 
ATOM      5  C   UNL     1       3.903  -5.494  29.189  0.00  0.00    +0.132 C 
ATOM      6  C   UNL     1       5.131  -4.626  29.463  0.00  0.00    +0.124 C 
ATOM      7  O   UNL     1       7.255  -5.116  27.610  0.00  0.00    -0.274 OA
BRANCH   5   8
ATOM      8  C   UNL     1       4.027  -7.030  29.240  0.00  0.00    +0.311 C 
ATOM      9  O   UNL     1       3.201  -7.772  29.771  0.00  0.00    -0.251 OA
BRANCH   8  10
ATOM     10  O   UNL     1       5.132  -7.559  28.646  0.00  0.00    -0.480 OA
ATOM     11  H   UNL     1       5.520  -8.350  29.078  0.00  0.00    +0.295 HD
ENDBRANCH   8  10
ENDBRANCH   5   8
ENDBRANCH   1   2
BRANCH   1  12
ATOM     12  N   UNL     1       6.922  -3.140  25.239  0.00  0.00    -0.299 N 
ATOM     13  H   UNL     1       7.914  -3.323  25.286  0.00  0.00    +0.150 HD
ATOM     14  C   UNL     1       6.470  -1.948  24.733  0.00  0.00    +0.261 C 
ATOM     15  O   UNL     1       5.275  -1.689  24.638  0.00  0.00    -0.269 OA
BRANCH  14  16
ATOM     16  C   UNL     1       7.497  -0.996  24.369  0.00  0.00    +0.103 A 
ATOM     17  N   UNL     1       7.914  -0.863  23.060  0.00  0.00    -0.351 N 
ATOM     18  H   UNL     1       7.562  -1.434  22.302  0.00  0.00    +0.166 HD
ATOM     19  C   UNL     1       8.770   0.202  22.918  0.00  0.00    +0.047 A 
ATOM     20  C   UNL     1       9.347   0.753  21.766  0.00  0.00    +0.027 A 
ATOM     21  C   UNL     1      10.156   1.882  21.927  0.00  0.00    +0.022 A 
ATOM     22  C   UNL     1      10.395   2.412  23.194  0.00  0.00    +0.042 A 
ATOM     23  C   UNL     1       9.840   1.832  24.339  0.00  0.00    +0.030 A 
ATOM     24 CL   UNL     1      11.371   3.824  23.350  0.00  0.00    -0.084 Cl
ATOM     25  C   UNL     1       8.996   0.713  24.194  0.00  0.00    +0.002 A 
ATOM     26  C   UNL     1       8.230  -0.075  25.102  0.00  0.00    +0.041 A 
ENDBRANCH  14  16
ENDBRANCH   1  12
BRANCH   1  27
ATOM     27  C   UNL     1       6.039  -5.455  24.806  0.00  0.00    +0.067 C 
BRANCH  27  28
ATOM     28  C   UNL     1       4.683  -6.025  24.440  0.00  0.00    -0.045 A 
ATOM     29  C   UNL     1       3.903  -5.453  23.425  0.00  0.00    +0.004 A 
ATOM     30  C   UNL     1       2.675  -6.012  23.069  0.00  0.00    +0.000 A 
ATOM     31  C   UNL     1       2.193  -7.128  23.748  0.00  0.00    +0.000 A 
ATOM     32  C   UNL     1       2.936  -7.681  24.787  0.00  0.00    +0.000 A 
ATOM     33  C   UNL     1       4.175  -7.135  25.130  0.00  0.00    +0.004 A 
ENDBRANCH  27  28
ENDBRANCH   1  27
TORSDOF 7
ENDMDL
MODEL 4
REMARK VINA RESULT:      -7.0      1.905      3.707
REMARK  Name = 
REMARK  7 active torsions:
REMARK  status: ('A' for Active; 'I' for Inactive)
REMARK    1  A    between atoms: C_2  and  C_3
REMARK    2  A    between atoms: C_2  and  N_10
REMARK    3  A    between atoms: C_2  and  C_23
REMARK    4  A    between atoms: C_3  and  C_4
REMARK    5  A    between atoms: C_11  and  C_13
REMARK    6  A    between atoms: C_27  and  C_29
REMARK    7  A    between atoms: C_29  and  O_30
REMARK                            x       y       z     vdW  Elec       q    Type
REMARK                         _______ _______ _______ _____ _____    ______ ____
ROOT
ATOM      1  C   UNL     1       6.658  -1.816  24.488  0.00  0.00    +0.164 C 
ENDROOT
BRANCH   1   2
ATOM      2  C   UNL     1       6.495  -2.659  23.199  0.00  0.00    +0.236 C 
ATOM      3  N   UNL     1       7.083  -3.913  23.229  0.00  0.00    -0.298 N 
ATOM      4  C   UNL     1       6.893  -4.911  24.287  0.00  0.00    +0.124 C 
ATOM      5  C   UNL     1       6.447  -5.889  23.190  0.00  0.00    +0.132 C 
ATOM      6  C   UNL     1       7.015  -4.912  22.160  0.00  0.00    +0.124 C 
ATOM      7  O   UNL     1       5.751  -2.348  22.268  0.00  0.00    -0.274 OA
BRANCH   5   8
ATOM      8  C   UNL     1       4.953  -6.265  23.141  0.00  0.00    +0.311 C 
ATOM      9  O   UNL     1       4.084  -5.577  22.607  0.00  0.00    -0.251 OA
BRANCH   8  10
ATOM     10  O   UNL     1       4.616  -7.444  23.734  0.00  0.00    -0.480 OA
ATOM     11  H   UNL     1       4.608  -8.236  23.153  0.00  0.00    +0.295 HD
ENDBRANCH   8  10
ENDBRANCH   5   8
ENDBRANCH   1   2
BRANCH   1  12
ATOM     12  N   UNL     1       7.390  -0.573  24.223  0.00  0.00    -0.299 N 
ATOM     13  H   UNL     1       6.895   0.169  23.751  0.00  0.00    +0.150 HD
ATOM     14  C   UNL     1       8.691  -0.385  24.614  0.00  0.00    +0.261 C 
ATOM     15  O   UNL     1       9.327  -1.250  25.208  0.00  0.00    -0.269 OA
BRANCH  14  16
ATOM     16  C   UNL     1       9.280   0.879  24.233  0.00  0.00    +0.103 A 
ATOM     17  N   UNL     1       8.577   2.061  24.361  0.00  0.00    -0.351 N 
ATOM     18  H   UNL     1       7.620   2.108  24.686  0.00  0.00    +0.166 HD
ATOM     19  C   UNL     1       9.378   3.146  24.097  0.00  0.00    +0.047 A 
ATOM     20  C   UNL     1       9.109   4.517  24.203  0.00  0.00    +0.027 A 
ATOM     21  C   UNL     1      10.149   5.403  23.904  0.00  0.00    +0.022 A 
ATOM     22  C   UNL     1      11.392   4.928  23.491  0.00  0.00    +0.042 A 
ATOM     23  C   UNL     1      11.638   3.557  23.358  0.00  0.00    +0.030 A 
ATOM     24 CL   UNL     1      12.660   6.048  23.163  0.00  0.00    -0.084 Cl
ATOM     25  C   UNL     1      10.612   2.648  23.685  0.00  0.00    +0.002 A 
ATOM     26  C   UNL     1      10.525   1.225  23.728  0.00  0.00    +0.041 A 
ENDBRANCH  14  16
ENDBRANCH   1  12
BRANCH   1  27
ATOM     27  C   UNL     1       5.313  -1.591  25.213  0.00  0.00    +0.067 C 
BRANCH  27  28
ATOM     28  C   UNL     1       4.724  -2.809  25.894  0.00  0.00    -0.045 A 
ATOM     29  C   UNL     1       3.607  -3.471  25.365  0.00  0.00    +0.004 A 
ATOM     30  C   UNL     1       3.099  -4.616  25.979  0.00  0.00    +0.000 A 
ATOM     31  C   UNL     1       3.678  -5.094  27.152  0.00  0.00    +0.000 A 
ATOM     32  C   UNL     1       4.760  -4.423  27.714  0.00  0.00    +0.000 A 
ATOM     33  C   UNL     1       5.283  -3.289  27.088  0.00  0.00    +0.004 A 
ENDBRANCH  27  28
ENDBRANCH   1  27
TORSDOF 7
ENDMDL
MODEL 5
REMARK VINA RESULT:      -7.0      2.068      3.882
REMARK  Name = 
REMARK  7 active torsions:
REMARK  status: ('A' for Active; 'I' for Inactive)
REMARK    1  A    between atoms: C_2  and  C_3
REMARK    2  A    between atoms: C_2  and  N_10
REMARK    3  A    between atoms: C_2  and  C_23
REMARK    4  A    between atoms: C_3  and  C_4
REMARK    5  A    between atoms: C_11  and  C_13
REMARK    6  A    between atoms: C_27  and  C_29
REMARK    7  A    between atoms: C_29  and  O_30
REMARK                            x       y       z     vdW  Elec       q    Type
REMARK                         _______ _______ _______ _____ _____    ______ ____
ROOT
ATOM      1  C   UNL     1       8.418  -2.859  23.600  0.00  0.00    +0.164 C 
ENDROOT
BRANCH   1   2
ATOM      2  C   UNL     1       7.223  -3.083  22.641  0.00  0.00    +0.236 C 
ATOM      3  N   UNL     1       7.210  -4.302  21.981  0.00  0.00    -0.298 N 
ATOM      4  C   UNL     1       7.352  -5.613  22.623  0.00  0.00    +0.124 C 
ATOM      5  C   UNL     1       6.022  -6.004  21.962  0.00  0.00    +0.132 C 
ATOM      6  C   UNL     1       6.160  -4.768  21.073  0.00  0.00    +0.124 C 
ATOM      7  O   UNL     1       6.244  -2.338  22.582  0.00  0.00    -0.274 OA
BRANCH   5   8
ATOM      8  C   UNL     1       4.793  -6.153  22.879  0.00  0.00    +0.311 C 
ATOM      9  O   UNL     1       3.868  -5.342  22.932  0.00  0.00    -0.251 OA
BRANCH   8  10
ATOM     10  O   UNL     1       4.764  -7.267  23.661  0.00  0.00    -0.480 OA
ATOM     11  H   UNL     1       5.405  -7.292  24.405  0.00  0.00    +0.295 HD
ENDBRANCH   8  10
ENDBRANCH   5   8
ENDBRANCH   1   2
BRANCH   1  12
ATOM     12  N   UNL     1       8.637  -1.431  23.853  0.00  0.00    -0.299 N 
ATOM     13  H   UNL     1       7.975  -0.954  24.447  0.00  0.00    +0.150 HD
ATOM     14  C   UNL     1       9.710  -0.746  23.340  0.00  0.00    +0.261 C 
ATOM     15  O   UNL     1      10.552  -1.287  22.631  0.00  0.00    -0.269 OA
BRANCH  14  16
ATOM     16  C   UNL     1       9.751   0.667  23.646  0.00  0.00    +0.103 A 
ATOM     17  N   UNL     1      10.886   1.415  23.404  0.00  0.00    -0.351 N 
ATOM     18  H   UNL     1      11.746   1.024  23.043  0.00  0.00    +0.166 HD
ATOM     19  C   UNL     1      10.651   2.753  23.614  0.00  0.00    +0.047 A 
ATOM     20  C   UNL     1      11.480   3.862  23.396  0.00  0.00    +0.027 A 
ATOM     21  C   UNL     1      10.946   5.127  23.664  0.00  0.00    +0.022 A 
ATOM     22  C   UNL     1       9.649   5.264  24.154  0.00  0.00    +0.042 A 
ATOM     23  C   UNL     1       8.845   4.146  24.399  0.00  0.00    +0.030 A 
ATOM     24 CL   UNL     1       9.014   6.840  24.441  0.00  0.00    -0.084 Cl
ATOM     25  C   UNL     1       9.353   2.865  24.106  0.00  0.00    +0.002 A 
ATOM     26  C   UNL     1       8.814   1.546  24.166  0.00  0.00    +0.041 A 
ENDBRANCH  14  16
ENDBRANCH   1  12
BRANCH   1  27
ATOM     27  C   UNL     1       8.296  -3.697  24.891  0.00  0.00    +0.067 C 
BRANCH  27  28
ATOM     28  C   UNL     1       7.023  -3.493  25.686  0.00  0.00    -0.045 A 
ATOM     29  C   UNL     1       6.072  -4.516  25.813  0.00  0.00    +0.004 A 
ATOM     30  C   UNL     1       4.923  -4.330  26.582  0.00  0.00    +0.000 A 
ATOM     31  C   UNL     1       4.690  -3.106  27.205  0.00  0.00    +0.000 A 
ATOM     32  C   UNL     1       5.603  -2.066  27.052  0.00  0.00    +0.000 A 
ATOM     33  C   UNL     1       6.764  -2.259  26.300  0.00  0.00    +0.004 A 
ENDBRANCH  27  28
ENDBRANCH   1  27
TORSDOF 7
ENDMDL
MODEL 6
REMARK VINA RESULT:      -7.0      4.144      8.835
REMARK  Name = 
REMARK  7 active torsions:
REMARK  status: ('A' for Active; 'I' for Inactive)
REMARK    1  A    between atoms: C_2  and  C_3
REMARK    2  A    between atoms: C_2  and  N_10
REMARK    3  A    between atoms: C_2  and  C_23
REMARK    4  A    between atoms: C_3  and  C_4
REMARK    5  A    between atoms: C_11  and  C_13
REMARK    6  A    between atoms: C_27  and  C_29
REMARK    7  A    between atoms: C_29  and  O_30
REMARK                            x       y       z     vdW  Elec       q    Type
REMARK                         _______ _______ _______ _____ _____    ______ ____
ROOT
ATOM      1  C   UNL     1       8.719   2.834  24.596  0.00  0.00    +0.164 C 
ENDROOT
BRANCH   1   2
ATOM      2  C   UNL     1       7.460   3.415  25.286  0.00  0.00    +0.236 C 
ATOM      3  N   UNL     1       6.663   4.222  24.489  0.00  0.00    -0.298 N 
ATOM      4  C   UNL     1       6.160   3.865  23.159  0.00  0.00    +0.124 C 
ATOM      5  C   UNL     1       4.748   4.151  23.692  0.00  0.00    +0.132 C 
ATOM      6  C   UNL     1       5.397   4.836  24.896  0.00  0.00    +0.124 C 
ATOM      7  O   UNL     1       7.065   3.061  26.397  0.00  0.00    -0.274 OA
BRANCH   5   8
ATOM      8  C   UNL     1       3.816   2.943  23.912  0.00  0.00    +0.311 C 
ATOM      9  O   UNL     1       3.916   2.155  24.852  0.00  0.00    -0.251 OA
BRANCH   8  10
ATOM     10  O   UNL     1       2.831   2.775  22.988  0.00  0.00    -0.480 OA
ATOM     11  H   UNL     1       2.806   1.905  22.533  0.00  0.00    +0.295 HD
ENDBRANCH   8  10
ENDBRANCH   5   8
ENDBRANCH   1   2
BRANCH   1  12
ATOM     12  N   UNL     1       8.508   1.441  24.188  0.00  0.00    -0.299 N 
ATOM     13  H   UNL     1       7.585   1.181  23.871  0.00  0.00    +0.150 HD
ATOM     14  C   UNL     1       9.514   0.508  24.198  0.00  0.00    +0.261 C 
ATOM     15  O   UNL     1      10.655   0.782  24.556  0.00  0.00    -0.269 OA
BRANCH  14  16
ATOM     16  C   UNL     1       9.127  -0.831  23.813  0.00  0.00    +0.103 A 
ATOM     17  N   UNL     1       9.480  -1.923  24.580  0.00  0.00    -0.351 N 
ATOM     18  H   UNL     1      10.048  -1.859  25.415  0.00  0.00    +0.166 HD
ATOM     19  C   UNL     1       8.874  -3.068  24.120  0.00  0.00    +0.047 A 
ATOM     20  C   UNL     1       8.873  -4.366  24.648  0.00  0.00    +0.027 A 
ATOM     21  C   UNL     1       8.119  -5.334  23.977  0.00  0.00    +0.022 A 
ATOM     22  C   UNL     1       7.422  -5.013  22.814  0.00  0.00    +0.042 A 
ATOM     23  C   UNL     1       7.459  -3.722  22.279  0.00  0.00    +0.030 A 
ATOM     24 CL   UNL     1       6.476  -6.224  22.033  0.00  0.00    -0.084 Cl
ATOM     25  C   UNL     1       8.187  -2.725  22.958  0.00  0.00    +0.002 A 
ATOM     26  C   UNL     1       8.391  -1.329  22.749  0.00  0.00    +0.041 A 
ENDBRANCH  14  16
ENDBRANCH   1  12
BRANCH   1  27
ATOM     27  C   UNL     1       9.225   3.736  23.449  0.00  0.00    +0.067 C 
BRANCH  27  28
ATOM     28  C   UNL     1      10.306   4.729  23.826  0.00  0.00    -0.045 A 
ATOM     29  C   UNL     1      10.022   5.842  24.630  0.00  0.00    +0.004 A 
ATOM     30  C   UNL     1      11.034   6.728  25.004  0.00  0.00    +0.000 A 
ATOM     31  C   UNL     1      12.336   6.533  24.549  0.00  0.00    +0.000 A 
ATOM     32  C   UNL     1      12.624   5.457  23.713  0.00  0.00    +0.000 A 
ATOM     33  C   UNL     1      11.616   4.559  23.356  0.00  0.00    +0.004 A 
ENDBRANCH  27  28
ENDBRANCH   1  27
TORSDOF 7
ENDMDL
MODEL 7
REMARK VINA RESULT:      -6.9      4.058      8.265
REMARK  Name = 
REMARK  7 active torsions:
REMARK  status: ('A' for Active; 'I' for Inactive)
REMARK    1  A    between atoms: C_2  and  C_3
REMARK    2  A    between atoms: C_2  and  N_10
REMARK    3  A    between atoms: C_2  and  C_23
REMARK    4  A    between atoms: C_3  and  C_4
REMARK    5  A    between atoms: C_11  and  C_13
REMARK    6  A    between atoms: C_27  and  C_29
REMARK    7  A    between atoms: C_29  and  O_30
REMARK                            x       y       z     vdW  Elec       q    Type
REMARK                         _______ _______ _______ _____ _____    ______ ____
ROOT
ATOM      1  C   UNL     1       8.583   2.528  24.885  0.00  0.00    +0.164 C 
ENDROOT
BRANCH   1   2
ATOM      2  C   UNL     1       7.518   2.944  25.929  0.00  0.00    +0.236 C 
ATOM      3  N   UNL     1       6.894   1.899  26.591  0.00  0.00    -0.298 N 
ATOM      4  C   UNL     1       7.582   0.792  27.264  0.00  0.00    +0.124 C 
ATOM      5  C   UNL     1       6.804   1.170  28.533  0.00  0.00    +0.132 C 
ATOM      6  C   UNL     1       5.900   2.039  27.658  0.00  0.00    +0.124 C 
ATOM      7  O   UNL     1       7.343   4.104  26.303  0.00  0.00    -0.274 OA
BRANCH   5   8
ATOM      8  C   UNL     1       7.600   1.815  29.685  0.00  0.00    +0.311 C 
ATOM      9  O   UNL     1       7.361   2.928  30.152  0.00  0.00    -0.251 OA
BRANCH   8  10
ATOM     10  O   UNL     1       8.622   1.072  30.192  0.00  0.00    -0.480 OA
ATOM     11  H   UNL     1       9.231   0.668  29.537  0.00  0.00    +0.295 HD
ENDBRANCH   8  10
ENDBRANCH   5   8
ENDBRANCH   1   2
BRANCH   1  12
ATOM     12  N   UNL     1       8.324   1.181  24.367  0.00  0.00    -0.299 N 
ATOM     13  H   UNL     1       7.366   0.933  24.167  0.00  0.00    +0.150 HD
ATOM     14  C   UNL     1       9.327   0.277  24.126  0.00  0.00    +0.261 C 
ATOM     15  O   UNL     1      10.508   0.539  24.334  0.00  0.00    -0.269 OA
BRANCH  14  16
ATOM     16  C   UNL     1       8.897  -1.023  23.662  0.00  0.00    +0.103 A 
ATOM     17  N   UNL     1       9.204  -2.170  24.367  0.00  0.00    -0.351 N 
ATOM     18  H   UNL     1       9.765  -2.173  25.209  0.00  0.00    +0.166 HD
ATOM     19  C   UNL     1       8.562  -3.264  23.839  0.00  0.00    +0.047 A 
ATOM     20  C   UNL     1       8.510  -4.589  24.292  0.00  0.00    +0.027 A 
ATOM     21  C   UNL     1       7.728  -5.490  23.562  0.00  0.00    +0.022 A 
ATOM     22  C   UNL     1       7.054  -5.079  22.413  0.00  0.00    +0.042 A 
ATOM     23  C   UNL     1       7.142  -3.761  21.953  0.00  0.00    +0.030 A 
ATOM     24 CL   UNL     1       6.074  -6.209  21.557  0.00  0.00    -0.084 Cl
ATOM     25  C   UNL     1       7.899  -2.831  22.693  0.00  0.00    +0.002 A 
ATOM     26  C   UNL     1       8.154  -1.434  22.565  0.00  0.00    +0.041 A 
ENDBRANCH  14  16
ENDBRANCH   1  12
BRANCH   1  27
ATOM     27  C   UNL     1       8.757   3.587  23.774  0.00  0.00    +0.067 C 
BRANCH  27  28
ATOM     28  C   UNL     1      10.029   4.408  23.846  0.00  0.00    -0.045 A 
ATOM     29  C   UNL     1      11.239   3.922  23.330  0.00  0.00    +0.004 A 
ATOM     30  C   UNL     1      12.394   4.704  23.365  0.00  0.00    +0.000 A 
ATOM     31  C   UNL     1      12.364   5.968  23.948  0.00  0.00    +0.000 A 
ATOM     32  C   UNL     1      11.181   6.447  24.504  0.00  0.00    +0.000 A 
ATOM     33  C   UNL     1      10.019   5.673  24.451  0.00  0.00    +0.004 A 
ENDBRANCH  27  28
ENDBRANCH   1  27
TORSDOF 7
ENDMDL
MODEL 8
REMARK VINA RESULT:      -6.8      4.202      9.318
REMARK  Name = 
REMARK  7 active torsions:
REMARK  status: ('A' for Active; 'I' for Inactive)
REMARK    1  A    between atoms: C_2  and  C_3
REMARK    2  A    between atoms: C_2  and  N_10
REMARK    3  A    between atoms: C_2  and  C_23
REMARK    4  A    between atoms: C_3  and  C_4
REMARK    5  A    between atoms: C_11  and  C_13
REMARK    6  A    between atoms: C_27  and  C_29
REMARK    7  A    between atoms: C_29  and  O_30
REMARK                            x       y       z     vdW  Elec       q    Type
REMARK                         _______ _______ _______ _____ _____    ______ ____
ROOT
ATOM      1  C   UNL     1       6.829   0.897  23.421  0.00  0.00    +0.164 C 
ENDROOT
BRANCH   1   2
ATOM      2  C   UNL     1       8.095   1.128  24.282  0.00  0.00    +0.236 C 
ATOM      3  N   UNL     1       9.298   1.089  23.594  0.00  0.00    -0.298 N 
ATOM      4  C   UNL     1       9.600   1.846  22.375  0.00  0.00    +0.124 C 
ATOM      5  C   UNL     1      10.817   2.421  23.116  0.00  0.00    +0.132 C 
ATOM      6  C   UNL     1      10.620   1.335  24.175  0.00  0.00    +0.124 C 
ATOM      7  O   UNL     1       8.066   1.504  25.454  0.00  0.00    -0.274 OA
BRANCH   5   8
ATOM      8  C   UNL     1      10.760   3.906  23.525  0.00  0.00    +0.311 C 
ATOM      9  O   UNL     1       9.875   4.396  24.226  0.00  0.00    -0.251 OA
BRANCH   8  10
ATOM     10  O   UNL     1      11.774   4.689  23.065  0.00  0.00    -0.480 OA
ATOM     11  H   UNL     1      12.547   4.794  23.662  0.00  0.00    +0.295 HD
ENDBRANCH   8  10
ENDBRANCH   5   8
ENDBRANCH   1   2
BRANCH   1  12
ATOM     12  N   UNL     1       6.315  -0.467  23.585  0.00  0.00    -0.299 N 
ATOM     13  H   UNL     1       5.508  -0.595  24.177  0.00  0.00    +0.150 HD
ATOM     14  C   UNL     1       6.872  -1.547  22.947  0.00  0.00    +0.261 C 
ATOM     15  O   UNL     1       7.840  -1.438  22.202  0.00  0.00    -0.269 OA
BRANCH  14  16
ATOM     16  C   UNL     1       6.275  -2.828  23.254  0.00  0.00    +0.103 A 
ATOM     17  N   UNL     1       6.682  -3.558  24.353  0.00  0.00    -0.351 N 
ATOM     18  H   UNL     1       7.427  -3.266  24.971  0.00  0.00    +0.166 HD
ATOM     19  C   UNL     1       5.875  -4.654  24.545  0.00  0.00    +0.047 A 
ATOM     20  C   UNL     1       5.864  -5.599  25.580  0.00  0.00    +0.027 A 
ATOM     21  C   UNL     1       4.884  -6.596  25.532  0.00  0.00    +0.022 A 
ATOM     22  C   UNL     1       3.978  -6.652  24.475  0.00  0.00    +0.042 A 
ATOM     23  C   UNL     1       4.021  -5.723  23.431  0.00  0.00    +0.030 A 
ATOM     24 CL   UNL     1       2.763  -7.875  24.467  0.00  0.00    -0.084 Cl
ATOM     25  C   UNL     1       4.981  -4.692  23.478  0.00  0.00    +0.002 A 
ATOM     26  C   UNL     1       5.271  -3.569  22.649  0.00  0.00    +0.041 A 
ENDBRANCH  14  16
ENDBRANCH   1  12
BRANCH   1  27
ATOM     27  C   UNL     1       5.758   1.985  23.654  0.00  0.00    +0.067 C 
BRANCH  27  28
ATOM     28  C   UNL     1       6.223   3.414  23.459  0.00  0.00    -0.045 A 
ATOM     29  C   UNL     1       6.776   3.840  22.243  0.00  0.00    +0.004 A 
ATOM     30  C   UNL     1       7.163   5.168  22.061  0.00  0.00    +0.000 A 
ATOM     31  C   UNL     1       7.036   6.081  23.106  0.00  0.00    +0.000 A 
ATOM     32  C   UNL     1       6.530   5.663  24.333  0.00  0.00    +0.000 A 
ATOM     33  C   UNL     1       6.123   4.338  24.508  0.00  0.00    +0.004 A 
ENDBRANCH  27  28
ENDBRANCH   1  27
TORSDOF 7
ENDMDL
MODEL 9
REMARK VINA RESULT:      -6.8      2.415      5.041
REMARK  Name = 
REMARK  7 active torsions:
REMARK  status: ('A' for Active; 'I' for Inactive)
REMARK    1  A    between atoms: C_2  and  C_3
REMARK    2  A    between atoms: C_2  and  N_10
REMARK    3  A    between atoms: C_2  and  C_23
REMARK    4  A    between atoms: C_3  and  C_4
REMARK    5  A    between atoms: C_11  and  C_13
REMARK    6  A    between atoms: C_27  and  C_29
REMARK    7  A    between atoms: C_29  and  O_30
REMARK                            x       y       z     vdW  Elec       q    Type
REMARK                         _______ _______ _______ _____ _____    ______ ____
ROOT
ATOM      1  C   UNL     1       7.381  -4.917  25.823  0.00  0.00    +0.164 C 
ENDROOT
BRANCH   1   2
ATOM      2  C   UNL     1       6.095  -5.278  25.039  0.00  0.00    +0.236 C 
ATOM      3  N   UNL     1       5.756  -4.405  24.017  0.00  0.00    -0.298 N 
ATOM      4  C   UNL     1       6.661  -3.957  22.953  0.00  0.00    +0.124 C 
ATOM      5  C   UNL     1       5.621  -4.473  21.947  0.00  0.00    +0.132 C 
ATOM      6  C   UNL     1       4.624  -4.564  23.102  0.00  0.00    +0.124 C 
ATOM      7  O   UNL     1       5.496  -6.346  25.163  0.00  0.00    -0.274 OA
BRANCH   5   8
ATOM      8  C   UNL     1       5.980  -5.740  21.145  0.00  0.00    +0.311 C 
ATOM      9  O   UNL     1       5.973  -5.805  19.917  0.00  0.00    -0.251 OA
BRANCH   8  10
ATOM     10  O   UNL     1       6.325  -6.832  21.881  0.00  0.00    -0.480 OA
ATOM     11  H   UNL     1       7.188  -6.786  22.349  0.00  0.00    +0.295 HD
ENDBRANCH   8  10
ENDBRANCH   5   8
ENDBRANCH   1   2
BRANCH   1  12
ATOM     12  N   UNL     1       7.883  -3.593  25.442  0.00  0.00    -0.299 N 
ATOM     13  H   UNL     1       7.281  -2.800  25.605  0.00  0.00    +0.150 HD
ATOM     14  C   UNL     1       9.133  -3.402  24.907  0.00  0.00    +0.261 C 
ATOM     15  O   UNL     1       9.908  -4.333  24.710  0.00  0.00    -0.269 OA
BRANCH  14  16
ATOM     16  C   UNL     1       9.453  -2.040  24.543  0.00  0.00    +0.103 A 
ATOM     17  N   UNL     1       9.669  -1.688  23.225  0.00  0.00    -0.351 N 
ATOM     18  H   UNL     1       9.653  -2.350  22.461  0.00  0.00    +0.166 HD
ATOM     19  C   UNL     1       9.796  -0.326  23.091  0.00  0.00    +0.047 A 
ATOM     20  C   UNL     1       9.924   0.462  21.939  0.00  0.00    +0.027 A 
ATOM     21  C   UNL     1       9.990   1.849  22.111  0.00  0.00    +0.022 A 
ATOM     22  C   UNL     1       9.956   2.410  23.386  0.00  0.00    +0.042 A 
ATOM     23  C   UNL     1       9.862   1.610  24.529  0.00  0.00    +0.030 A 
ATOM     24 CL   UNL     1      10.007   4.124  23.557  0.00  0.00    -0.084 Cl
ATOM     25  C   UNL     1       9.763   0.213  24.375  0.00  0.00    +0.002 A 
ATOM     26  C   UNL     1       9.595  -0.875  25.281  0.00  0.00    +0.041 A 
ENDBRANCH  14  16
ENDBRANCH   1  12
BRANCH   1  27
ATOM     27  C   UNL     1       7.204  -5.088  27.347  0.00  0.00    +0.067 C 
BRANCH  27  28
ATOM     28  C   UNL     1       5.851  -4.688  27.898  0.00  0.00    -0.045 A 
ATOM     29  C   UNL     1       5.355  -3.387  27.736  0.00  0.00    +0.004 A 
ATOM     30  C   UNL     1       4.090  -3.041  28.213  0.00  0.00    +0.000 A 
ATOM     31  C   UNL     1       3.318  -3.981  28.890  0.00  0.00    +0.000 A 
ATOM     32  C   UNL     1       3.815  -5.265  29.098  0.00  0.00    +0.000 A 
ATOM     33  C   UNL     1       5.073  -5.618  28.602  0.00  0.00    +0.004 A 
ENDBRANCH  27  28
ENDBRANCH   1  27
TORSDOF 7
ENDMDL
