MODEL 1
REMARK VINA RESULT:      -6.1      0.000      0.000
REMARK  Name = 
REMARK  3 active torsions:
REMARK  status: ('A' for Active; 'I' for Inactive)
REMARK    1  A    between atoms: N_1  and  S_2
REMARK    2  A    between atoms: S_2  and  C_5
REMARK    3  A    between atoms: C_10  and  O_11
REMARK                            x       y       z     vdW  Elec       q    Type
REMARK                         _______ _______ _______ _____ _____    ______ ____
ROOT
ATOM      1  C   UNL     1       7.624  -4.789  24.120  0.00  0.00    +0.113 A 
ATOM      2  C   UNL     1       7.646  -4.619  22.726  0.00  0.00    +0.029 A 
ATOM      3  C   UNL     1       6.649  -5.174  21.941  0.00  0.00    +0.003 A 
ATOM      4  C   UNL     1       5.638  -5.914  22.544  0.00  0.00    +0.012 A 
ATOM      5  C   UNL     1       5.568  -6.075  23.943  0.00  0.00    +0.025 A 
ATOM      6  C   UNL     1       4.526  -6.826  24.530  0.00  0.00    +0.125 A 
ATOM      7  C   UNL     1       4.403  -6.960  25.910  0.00  0.00    +0.046 A 
ATOM      8  C   UNL     1       5.331  -6.341  26.733  0.00  0.00    +0.004 A 
ATOM      9  C   UNL     1       6.395  -5.624  26.174  0.00  0.00    +0.010 A 
ATOM     10  C   UNL     1       6.558  -5.479  24.770  0.00  0.00    +0.012 A 
ENDROOT
BRANCH   1  11
ATOM     11  S   UNL     1       9.042  -4.177  24.999  0.00  0.00    +0.057 S 
ATOM     12  O   UNL     1       9.895  -3.439  24.093  0.00  0.00    -0.153 OA
ATOM     13  O   UNL     1       8.645  -3.627  26.273  0.00  0.00    -0.153 OA
BRANCH  11  14
ATOM     14  N   UNL     1       9.900  -5.588  25.319  0.00  0.00    -0.203 NA
ATOM     15  H   UNL     1       9.391  -6.394  24.954  0.00  0.00    +0.144 HD
ATOM     16  H   UNL     1      10.854  -5.503  24.969  0.00  0.00    +0.144 HD
ENDBRANCH  11  14
ENDBRANCH   1  11
BRANCH   6  17
ATOM     17  O   UNL     1       3.610  -7.447  23.717  0.00  0.00    -0.506 OA
ATOM     18  H   UNL     1       3.667  -8.407  23.852  0.00  0.00    +0.292 HD
ENDBRANCH   6  17
TORSDOF 3
ENDMDL
MODEL 2
REMARK VINA RESULT:      -5.9      1.062      1.229
REMARK  Name = 
REMARK  3 active torsions:
REMARK  status: ('A' for Active; 'I' for Inactive)
REMARK    1  A    between atoms: N_1  and  S_2
REMARK    2  A    between atoms: S_2  and  C_5
REMARK    3  A    between atoms: C_10  and  O_11
REMARK                            x       y       z     vdW  Elec       q    Type
REMARK                         _______ _______ _______ _____ _____    ______ ____
ROOT
ATOM      1  C   UNL     1       7.547  -4.458  23.809  0.00  0.00    +0.113 A 
ATOM      2  C   UNL     1       7.458  -4.291  22.417  0.00  0.00    +0.029 A 
ATOM      3  C   UNL     1       6.456  -4.926  21.702  0.00  0.00    +0.003 A 
ATOM      4  C   UNL     1       5.552  -5.742  22.372  0.00  0.00    +0.012 A 
ATOM      5  C   UNL     1       5.593  -5.905  23.772  0.00  0.00    +0.025 A 
ATOM      6  C   UNL     1       4.657  -6.736  24.427  0.00  0.00    +0.125 A 
ATOM      7  C   UNL     1       4.642  -6.875  25.812  0.00  0.00    +0.046 A 
ATOM      8  C   UNL     1       5.572  -6.182  26.571  0.00  0.00    +0.004 A 
ATOM      9  C   UNL     1       6.534  -5.384  25.942  0.00  0.00    +0.010 A 
ATOM     10  C   UNL     1       6.587  -5.230  24.529  0.00  0.00    +0.012 A 
ENDROOT
BRANCH   1  11
ATOM     11  S   UNL     1       8.970  -3.734  24.590  0.00  0.00    +0.057 S 
ATOM     12  O   UNL     1       8.542  -2.769  25.581  0.00  0.00    -0.153 OA
ATOM     13  O   UNL     1       9.944  -4.752  24.904  0.00  0.00    -0.153 OA
BRANCH  11  14
ATOM     14  N   UNL     1       9.618  -2.797  23.353  0.00  0.00    -0.203 NA
ATOM     15  H   UNL     1       9.486  -1.807  23.562  0.00  0.00    +0.144 HD
ATOM     16  H   UNL     1      10.589  -3.062  23.187  0.00  0.00    +0.144 HD
ENDBRANCH  11  14
ENDBRANCH   1  11
BRANCH   6  17
ATOM     17  O   UNL     1       3.739  -7.429  23.678  0.00  0.00    -0.506 OA
ATOM     18  H   UNL     1       2.998  -6.841  23.463  0.00  0.00    +0.292 HD
ENDBRANCH   6  17
TORSDOF 3
ENDMDL
MODEL 3
REMARK VINA RESULT:      -5.7      3.818      6.184
REMARK  Name = 
REMARK  3 active torsions:
REMARK  status: ('A' for Active; 'I' for Inactive)
REMARK    1  A    between atoms: N_1  and  S_2
REMARK    2  A    between atoms: S_2  and  C_5
REMARK    3  A    between atoms: C_10  and  O_11
REMARK                            x       y       z     vdW  Elec       q    Type
REMARK                         _______ _______ _______ _____ _____    ______ ____
ROOT
ATOM      1  C   UNL     1       8.535  -3.129  25.357  0.00  0.00    +0.113 A 
ATOM      2  C   UNL     1       7.688  -2.887  26.451  0.00  0.00    +0.029 A 
ATOM      3  C   UNL     1       7.464  -1.591  26.885  0.00  0.00    +0.003 A 
ATOM      4  C   UNL     1       8.099  -0.536  26.239  0.00  0.00    +0.012 A 
ATOM      5  C   UNL     1       8.930  -0.741  25.118  0.00  0.00    +0.025 A 
ATOM      6  C   UNL     1       9.557   0.349  24.478  0.00  0.00    +0.125 A 
ATOM      7  C   UNL     1      10.340   0.182  23.339  0.00  0.00    +0.046 A 
ATOM      8  C   UNL     1      10.512  -1.092  22.820  0.00  0.00    +0.004 A 
ATOM      9  C   UNL     1       9.933  -2.193  23.459  0.00  0.00    +0.010 A 
ATOM     10  C   UNL     1       9.139  -2.060  24.631  0.00  0.00    +0.012 A 
ENDROOT
BRANCH   1  11
ATOM     11  S   UNL     1       8.877  -4.837  25.001  0.00  0.00    +0.057 S 
ATOM     12  O   UNL     1       8.065  -5.273  23.885  0.00  0.00    -0.153 OA
ATOM     13  O   UNL     1      10.298  -5.083  25.037  0.00  0.00    -0.153 OA
BRANCH  11  14
ATOM     14  N   UNL     1       8.208  -5.620  26.331  0.00  0.00    -0.203 NA
ATOM     15  H   UNL     1       8.068  -4.954  27.092  0.00  0.00    +0.144 HD
ATOM     16  H   UNL     1       7.363  -6.119  26.053  0.00  0.00    +0.144 HD
ENDBRANCH  11  14
ENDBRANCH   1  11
BRANCH   6  17
ATOM     17  O   UNL     1       9.394   1.611  24.994  0.00  0.00    -0.506 OA
ATOM     18  H   UNL     1       8.454   1.754  25.190  0.00  0.00    +0.292 HD
ENDBRANCH   6  17
TORSDOF 3
ENDMDL
MODEL 4
REMARK VINA RESULT:      -5.6      5.023      7.154
REMARK  Name = 
REMARK  3 active torsions:
REMARK  status: ('A' for Active; 'I' for Inactive)
REMARK    1  A    between atoms: N_1  and  S_2
REMARK    2  A    between atoms: S_2  and  C_5
REMARK    3  A    between atoms: C_10  and  O_11
REMARK                            x       y       z     vdW  Elec       q    Type
REMARK                         _______ _______ _______ _____ _____    ______ ____
ROOT
ATOM      1  C   UNL     1       7.805  -1.557  23.077  0.00  0.00    +0.113 A 
ATOM      2  C   UNL     1       8.992  -2.306  23.101  0.00  0.00    +0.029 A 
ATOM      3  C   UNL     1      10.196  -1.714  22.758  0.00  0.00    +0.003 A 
ATOM      4  C   UNL     1      10.214  -0.377  22.373  0.00  0.00    +0.012 A 
ATOM      5  C   UNL     1       9.046   0.411  22.369  0.00  0.00    +0.025 A 
ATOM      6  C   UNL     1       9.095   1.767  21.979  0.00  0.00    +0.125 A 
ATOM      7  C   UNL     1       7.967   2.583  22.014  0.00  0.00    +0.046 A 
ATOM      8  C   UNL     1       6.761   2.049  22.441  0.00  0.00    +0.004 A 
ATOM      9  C   UNL     1       6.679   0.698  22.795  0.00  0.00    +0.010 A 
ATOM     10  C   UNL     1       7.807  -0.166  22.758  0.00  0.00    +0.012 A 
ENDROOT
BRANCH   1  11
ATOM     11  S   UNL     1       6.306  -2.466  23.372  0.00  0.00    +0.057 S 
ATOM     12  O   UNL     1       5.621  -1.913  24.521  0.00  0.00    -0.153 OA
ATOM     13  O   UNL     1       5.613  -2.709  22.129  0.00  0.00    -0.153 OA
BRANCH  11  14
ATOM     14  N   UNL     1       6.888  -3.949  23.909  0.00  0.00    -0.203 NA
ATOM     15  H   UNL     1       7.787  -3.821  24.376  0.00  0.00    +0.144 HD
ATOM     16  H   UNL     1       6.183  -4.413  24.483  0.00  0.00    +0.144 HD
ENDBRANCH  11  14
ENDBRANCH   1  11
BRANCH   6  17
ATOM     17  O   UNL     1      10.286   2.297  21.549  0.00  0.00    -0.506 OA
ATOM     18  H   UNL     1      10.302   2.290  20.578  0.00  0.00    +0.292 HD
ENDBRANCH   6  17
TORSDOF 3
ENDMDL
MODEL 5
REMARK VINA RESULT:      -5.5      2.589      3.452
REMARK  Name = 
REMARK  3 active torsions:
REMARK  status: ('A' for Active; 'I' for Inactive)
REMARK    1  A    between atoms: N_1  and  S_2
REMARK    2  A    between atoms: S_2  and  C_5
REMARK    3  A    between atoms: C_10  and  O_11
REMARK                            x       y       z     vdW  Elec       q    Type
REMARK                         _______ _______ _______ _____ _____    ______ ____
ROOT
ATOM      1  C   UNL     1       7.622  -2.711  23.876  0.00  0.00    +0.113 A 
ATOM      2  C   UNL     1       6.930  -1.813  24.704  0.00  0.00    +0.029 A 
ATOM      3  C   UNL     1       5.565  -1.952  24.896  0.00  0.00    +0.003 A 
ATOM      4  C   UNL     1       4.887  -2.978  24.248  0.00  0.00    +0.012 A 
ATOM      5  C   UNL     1       5.556  -3.916  23.436  0.00  0.00    +0.025 A 
ATOM      6  C   UNL     1       4.843  -4.952  22.794  0.00  0.00    +0.125 A 
ATOM      7  C   UNL     1       5.484  -5.922  22.029  0.00  0.00    +0.046 A 
ATOM      8  C   UNL     1       6.862  -5.869  21.890  0.00  0.00    +0.004 A 
ATOM      9  C   UNL     1       7.587  -4.830  22.483  0.00  0.00    +0.010 A 
ATOM     10  C   UNL     1       6.963  -3.816  23.260  0.00  0.00    +0.012 A 
ENDROOT
BRANCH   1  11
ATOM     11  S   UNL     1       9.332  -2.330  23.574  0.00  0.00    +0.057 S 
ATOM     12  O   UNL     1      10.167  -3.382  24.115  0.00  0.00    -0.153 OA
ATOM     13  O   UNL     1       9.509  -1.850  22.225  0.00  0.00    -0.153 OA
BRANCH  11  14
ATOM     14  N   UNL     1       9.594  -1.024  24.600  0.00  0.00    -0.203 NA
ATOM     15  H   UNL     1       8.761  -0.854  25.166  0.00  0.00    +0.144 HD
ATOM     16  H   UNL     1      10.444  -1.172  25.143  0.00  0.00    +0.144 HD
ENDBRANCH  11  14
ENDBRANCH   1  11
BRANCH   6  17
ATOM     17  O   UNL     1       3.477  -5.003  22.925  0.00  0.00    -0.506 OA
ATOM     18  H   UNL     1       3.111  -5.546  22.207  0.00  0.00    +0.292 HD
ENDBRANCH   6  17
TORSDOF 3
ENDMDL
MODEL 6
REMARK VINA RESULT:      -5.4      3.314      5.545
REMARK  Name = 
REMARK  3 active torsions:
REMARK  status: ('A' for Active; 'I' for Inactive)
REMARK    1  A    between atoms: N_1  and  S_2
REMARK    2  A    between atoms: S_2  and  C_5
REMARK    3  A    between atoms: C_10  and  O_11
REMARK                            x       y       z     vdW  Elec       q    Type
REMARK                         _______ _______ _______ _____ _____    ______ ____
ROOT
ATOM      1  C   UNL     1       7.054  -4.303  23.150  0.00  0.00    +0.113 A 
ATOM      2  C   UNL     1       7.862  -5.268  23.774  0.00  0.00    +0.029 A 
ATOM      3  C   UNL     1       8.960  -4.878  24.523  0.00  0.00    +0.003 A 
ATOM      4  C   UNL     1       9.263  -3.526  24.637  0.00  0.00    +0.012 A 
ATOM      5  C   UNL     1       8.455  -2.531  24.050  0.00  0.00    +0.025 A 
ATOM      6  C   UNL     1       8.783  -1.164  24.187  0.00  0.00    +0.125 A 
ATOM      7  C   UNL     1       7.976  -0.159  23.663  0.00  0.00    +0.046 A 
ATOM      8  C   UNL     1       6.818  -0.507  22.985  0.00  0.00    +0.004 A 
ATOM      9  C   UNL     1       6.492  -1.855  22.803  0.00  0.00    +0.010 A 
ATOM     10  C   UNL     1       7.300  -2.908  23.313  0.00  0.00    +0.012 A 
ENDROOT
BRANCH   1  11
ATOM     11  S   UNL     1       5.780  -4.930  22.082  0.00  0.00    +0.057 S 
ATOM     12  O   UNL     1       4.482  -4.664  22.665  0.00  0.00    -0.153 OA
ATOM     13  O   UNL     1       6.068  -4.597  20.707  0.00  0.00    -0.153 OA
BRANCH  11  14
ATOM     14  N   UNL     1       5.970  -6.594  22.235  0.00  0.00    -0.203 NA
ATOM     15  H   UNL     1       6.601  -6.940  21.510  0.00  0.00    +0.144 HD
ATOM     16  H   UNL     1       6.261  -6.825  23.185  0.00  0.00    +0.144 HD
ENDBRANCH  11  14
ENDBRANCH   1  11
BRANCH   6  17
ATOM     17  O   UNL     1       9.933  -0.816  24.851  0.00  0.00    -0.506 OA
ATOM     18  H   UNL     1      10.382  -1.624  25.151  0.00  0.00    +0.292 HD
ENDBRANCH   6  17
TORSDOF 3
ENDMDL
MODEL 7
REMARK VINA RESULT:      -5.3      5.370      6.540
REMARK  Name = 
REMARK  3 active torsions:
REMARK  status: ('A' for Active; 'I' for Inactive)
REMARK    1  A    between atoms: N_1  and  S_2
REMARK    2  A    between atoms: S_2  and  C_5
REMARK    3  A    between atoms: C_10  and  O_11
REMARK                            x       y       z     vdW  Elec       q    Type
REMARK                         _______ _______ _______ _____ _____    ______ ____
ROOT
ATOM      1  C   UNL     1       8.648   0.939  23.197  0.00  0.00    +0.113 A 
ATOM      2  C   UNL     1       9.165   0.784  21.901  0.00  0.00    +0.029 A 
ATOM      3  C   UNL     1       9.698  -0.432  21.504  0.00  0.00    +0.003 A 
ATOM      4  C   UNL     1       9.731  -1.489  22.407  0.00  0.00    +0.012 A 
ATOM      5  C   UNL     1       9.193  -1.377  23.705  0.00  0.00    +0.025 A 
ATOM      6  C   UNL     1       9.235  -2.469  24.599  0.00  0.00    +0.125 A 
ATOM      7  C   UNL     1       8.665  -2.403  25.867  0.00  0.00    +0.046 A 
ATOM      8  C   UNL     1       8.040  -1.232  26.266  0.00  0.00    +0.004 A 
ATOM      9  C   UNL     1       8.020  -0.123  25.413  0.00  0.00    +0.010 A 
ATOM     10  C   UNL     1       8.603  -0.151  24.117  0.00  0.00    +0.012 A 
ENDROOT
BRANCH   1  11
ATOM     11  S   UNL     1       8.150   2.585  23.643  0.00  0.00    +0.057 S 
ATOM     12  O   UNL     1       6.710   2.633  23.792  0.00  0.00    -0.153 OA
ATOM     13  O   UNL     1       9.028   3.120  24.656  0.00  0.00    -0.153 OA
BRANCH  11  14
ATOM     14  N   UNL     1       8.449   3.445  22.230  0.00  0.00    -0.203 NA
ATOM     15  H   UNL     1       8.343   2.831  21.421  0.00  0.00    +0.144 HD
ATOM     16  H   UNL     1       7.864   4.280  22.198  0.00  0.00    +0.144 HD
ENDBRANCH  11  14
ENDBRANCH   1  11
BRANCH   6  17
ATOM     17  O   UNL     1       9.859  -3.628  24.209  0.00  0.00    -0.506 OA
ATOM     18  H   UNL     1      10.637  -3.403  23.673  0.00  0.00    +0.292 HD
ENDBRANCH   6  17
TORSDOF 3
ENDMDL
MODEL 8
REMARK VINA RESULT:      -5.3      2.511      5.110
REMARK  Name = 
REMARK  3 active torsions:
REMARK  status: ('A' for Active; 'I' for Inactive)
REMARK    1  A    between atoms: N_1  and  S_2
REMARK    2  A    between atoms: S_2  and  C_5
REMARK    3  A    between atoms: C_10  and  O_11
REMARK                            x       y       z     vdW  Elec       q    Type
REMARK                         _______ _______ _______ _____ _____    ______ ____
ROOT
ATOM      1  C   UNL     1       5.753  -5.641  25.615  0.00  0.00    +0.113 A 
ATOM      2  C   UNL     1       6.370  -5.793  26.868  0.00  0.00    +0.029 A 
ATOM      3  C   UNL     1       7.633  -5.270  27.091  0.00  0.00    +0.003 A 
ATOM      4  C   UNL     1       8.289  -4.609  26.058  0.00  0.00    +0.012 A 
ATOM      5  C   UNL     1       7.686  -4.411  24.800  0.00  0.00    +0.025 A 
ATOM      6  C   UNL     1       8.374  -3.730  23.771  0.00  0.00    +0.125 A 
ATOM      7  C   UNL     1       7.784  -3.475  22.537  0.00  0.00    +0.046 A 
ATOM      8  C   UNL     1       6.485  -3.902  22.308  0.00  0.00    +0.004 A 
ATOM      9  C   UNL     1       5.797  -4.613  23.298  0.00  0.00    +0.010 A 
ATOM     10  C   UNL     1       6.374  -4.903  24.564  0.00  0.00    +0.012 A 
ENDROOT
BRANCH   1  11
ATOM     11  S   UNL     1       4.211  -6.498  25.399  0.00  0.00    +0.057 S 
ATOM     12  O   UNL     1       3.125  -5.541  25.359  0.00  0.00    -0.153 OA
ATOM     13  O   UNL     1       4.344  -7.525  24.394  0.00  0.00    -0.153 OA
BRANCH  11  14
ATOM     14  N   UNL     1       4.024  -7.276  26.877  0.00  0.00    -0.203 NA
ATOM     15  H   UNL     1       3.369  -8.053  26.780  0.00  0.00    +0.144 HD
ATOM     16  H   UNL     1       4.935  -7.544  27.248  0.00  0.00    +0.144 HD
ENDBRANCH  11  14
ENDBRANCH   1  11
BRANCH   6  17
ATOM     17  O   UNL     1       9.663  -3.312  23.992  0.00  0.00    -0.506 OA
ATOM     18  H   UNL     1      10.125  -3.980  24.524  0.00  0.00    +0.292 HD
ENDBRANCH   6  17
TORSDOF 3
ENDMDL
MODEL 9
REMARK VINA RESULT:      -5.2      2.922      4.961
REMARK  Name = 
REMARK  3 active torsions:
REMARK  status: ('A' for Active; 'I' for Inactive)
REMARK    1  A    between atoms: N_1  and  S_2
REMARK    2  A    between atoms: S_2  and  C_5
REMARK    3  A    between atoms: C_10  and  O_11
REMARK                            x       y       z     vdW  Elec       q    Type
REMARK                         _______ _______ _______ _____ _____    ______ ____
ROOT
ATOM      1  C   UNL     1       5.706  -5.062  24.151  0.00  0.00    +0.113 A 
ATOM      2  C   UNL     1       5.004  -5.795  25.122  0.00  0.00    +0.029 A 
ATOM      3  C   UNL     1       5.595  -6.078  26.342  0.00  0.00    +0.003 A 
ATOM      4  C   UNL     1       6.894  -5.645  26.589  0.00  0.00    +0.012 A 
ATOM      5  C   UNL     1       7.614  -4.881  25.648  0.00  0.00    +0.025 A 
ATOM      6  C   UNL     1       8.929  -4.450  25.927  0.00  0.00    +0.125 A 
ATOM      7  C   UNL     1       9.645  -3.652  25.040  0.00  0.00    +0.046 A 
ATOM      8  C   UNL     1       9.052  -3.270  23.846  0.00  0.00    +0.004 A 
ATOM      9  C   UNL     1       7.764  -3.717  23.530  0.00  0.00    +0.010 A 
ATOM     10  C   UNL     1       7.010  -4.544  24.406  0.00  0.00    +0.012 A 
ENDROOT
BRANCH   1  11
ATOM     11  S   UNL     1       4.912  -4.909  22.568  0.00  0.00    +0.057 S 
ATOM     12  O   UNL     1       4.887  -3.517  22.170  0.00  0.00    -0.153 OA
ATOM     13  O   UNL     1       5.376  -5.939  21.670  0.00  0.00    -0.153 OA
BRANCH  11  14
ATOM     14  N   UNL     1       3.310  -5.263  22.937  0.00  0.00    -0.203 NA
ATOM     15  H   UNL     1       3.013  -4.723  23.751  0.00  0.00    +0.144 HD
ATOM     16  H   UNL     1       2.725  -5.129  22.112  0.00  0.00    +0.144 HD
ENDBRANCH  11  14
ENDBRANCH   1  11
BRANCH   6  17
ATOM     17  O   UNL     1       9.522  -4.833  27.105  0.00  0.00    -0.506 OA
ATOM     18  H   UNL     1       9.257  -5.744  27.311  0.00  0.00    +0.292 HD
ENDBRANCH   6  17
TORSDOF 3
ENDMDL
