MODEL 1
REMARK VINA RESULT:      -5.0      0.000      0.000
REMARK  Name = 
REMARK  0 active torsions:
REMARK  status: ('A' for Active; 'I' for Inactive)
REMARK                            x       y       z     vdW  Elec       q    Type
REMARK                         _______ _______ _______ _____ _____    ______ ____
ROOT
ATOM      1  N   UNL     1      10.414  -5.485  25.652  0.00  0.00    -0.329 N 
ATOM      2  H   UNL     1      10.796  -5.716  26.555  0.00  0.00    +0.145 HD
ATOM      3  H   UNL     1      11.048  -5.155  24.932  0.00  0.00    +0.145 HD
ATOM      4  C   UNL     1       9.094  -5.382  25.392  0.00  0.00    +0.195 A 
ATOM      5  N   UNL     1       8.239  -5.741  26.398  0.00  0.00    -0.295 N 
ATOM      6  H   UNL     1       8.594  -6.062  27.283  0.00  0.00    +0.172 HD
ATOM      7  C   UNL     1       6.876  -5.705  26.267  0.00  0.00    +0.258 A 
ATOM      8  O   UNL     1       6.100  -6.032  27.154  0.00  0.00    -0.267 OA
ATOM      9  C   UNL     1       6.427  -5.243  24.970  0.00  0.00    +0.066 A 
ATOM     10  C   UNL     1       5.061  -5.081  24.457  0.00  0.00    +0.091 C 
ATOM     11  C   UNL     1       5.499  -4.592  23.098  0.00  0.00    +0.091 C 
ATOM     12  N   UNL     1       6.776  -4.497  22.885  0.00  0.00    -0.240 NA
ATOM     13  C   UNL     1       7.339  -4.908  24.061  0.00  0.00    +0.164 A 
ATOM     14  N   UNL     1       8.685  -4.962  24.234  0.00  0.00    -0.197 NA
ENDROOT
TORSDOF 0
ENDMDL
MODEL 2
REMARK VINA RESULT:      -4.9      6.948      7.677
REMARK  Name = 
REMARK  0 active torsions:
REMARK  status: ('A' for Active; 'I' for Inactive)
REMARK                            x       y       z     vdW  Elec       q    Type
REMARK                         _______ _______ _______ _____ _____    ______ ____
ROOT
ATOM      1  N   UNL     1      11.081   3.911  22.973  0.00  0.00    -0.329 N 
ATOM      2  H   UNL     1      11.177   4.433  22.118  0.00  0.00    +0.145 HD
ATOM      3  H   UNL     1      11.518   4.277  23.812  0.00  0.00    +0.145 HD
ATOM      4  C   UNL     1      10.592   2.655  23.043  0.00  0.00    +0.195 A 
ATOM      5  N   UNL     1      10.085   2.127  21.887  0.00  0.00    -0.295 N 
ATOM      6  H   UNL     1      10.086   2.662  21.036  0.00  0.00    +0.172 HD
ATOM      7  C   UNL     1       9.539   0.873  21.818  0.00  0.00    +0.258 A 
ATOM      8  O   UNL     1       9.074   0.392  20.793  0.00  0.00    -0.267 OA
ATOM      9  C   UNL     1       9.558   0.157  23.076  0.00  0.00    +0.066 A 
ATOM     10  C   UNL     1       9.062  -1.188  23.394  0.00  0.00    +0.091 C 
ATOM     11  C   UNL     1       9.458  -1.121  24.849  0.00  0.00    +0.091 C 
ATOM     12  N   UNL     1      10.029  -0.031  25.260  0.00  0.00    -0.240 NA
ATOM     13  C   UNL     1      10.082   0.755  24.142  0.00  0.00    +0.164 A 
ATOM     14  N   UNL     1      10.612   2.006  24.167  0.00  0.00    -0.197 NA
ENDROOT
TORSDOF 0
ENDMDL
MODEL 3
REMARK VINA RESULT:      -4.9      3.131      3.932
REMARK  Name = 
REMARK  0 active torsions:
REMARK  status: ('A' for Active; 'I' for Inactive)
REMARK                            x       y       z     vdW  Elec       q    Type
REMARK                         _______ _______ _______ _____ _____    ______ ____
ROOT
ATOM      1  N   UNL     1       6.414  -0.648  23.329  0.00  0.00    -0.329 N 
ATOM      2  H   UNL     1       6.869  -0.115  24.052  0.00  0.00    +0.145 HD
ATOM      3  H   UNL     1       5.606  -0.244  22.869  0.00  0.00    +0.145 HD
ATOM      4  C   UNL     1       6.672  -1.948  23.071  0.00  0.00    +0.195 A 
ATOM      5  N   UNL     1       7.707  -2.518  23.760  0.00  0.00    -0.295 N 
ATOM      6  H   UNL     1       8.238  -1.982  24.425  0.00  0.00    +0.172 HD
ATOM      7  C   UNL     1       8.091  -3.821  23.584  0.00  0.00    +0.258 A 
ATOM      8  O   UNL     1       9.021  -4.342  24.187  0.00  0.00    -0.267 OA
ATOM      9  C   UNL     1       7.295  -4.538  22.610  0.00  0.00    +0.066 A 
ATOM     10  C   UNL     1       7.410  -5.928  22.150  0.00  0.00    +0.091 C 
ATOM     11  C   UNL     1       6.257  -5.829  21.181  0.00  0.00    +0.091 C 
ATOM     12  N   UNL     1       5.642  -4.688  21.103  0.00  0.00    -0.240 NA
ATOM     13  C   UNL     1       6.304  -3.896  21.999  0.00  0.00    +0.164 A 
ATOM     14  N   UNL     1       5.958  -2.597  22.204  0.00  0.00    -0.197 NA
ENDROOT
TORSDOF 0
ENDMDL
MODEL 4
REMARK VINA RESULT:      -4.7      2.478      2.948
REMARK  Name = 
REMARK  0 active torsions:
REMARK  status: ('A' for Active; 'I' for Inactive)
REMARK                            x       y       z     vdW  Elec       q    Type
REMARK                         _______ _______ _______ _____ _____    ______ ____
ROOT
ATOM      1  N   UNL     1       9.868  -5.796  25.728  0.00  0.00    -0.329 N 
ATOM      2  H   UNL     1       9.412  -6.523  26.255  0.00  0.00    +0.145 HD
ATOM      3  H   UNL     1      10.862  -5.654  25.867  0.00  0.00    +0.145 HD
ATOM      4  C   UNL     1       9.215  -4.861  25.008  0.00  0.00    +0.195 A 
ATOM      5  N   UNL     1       7.859  -5.004  24.897  0.00  0.00    -0.295 N 
ATOM      6  H   UNL     1       7.387  -5.774  25.340  0.00  0.00    +0.172 HD
ATOM      7  C   UNL     1       7.074  -4.140  24.181  0.00  0.00    +0.258 A 
ATOM      8  O   UNL     1       5.861  -4.262  24.066  0.00  0.00    -0.267 OA
ATOM      9  C   UNL     1       7.811  -3.059  23.561  0.00  0.00    +0.066 A 
ATOM     10  C   UNL     1       7.324  -1.959  22.719  0.00  0.00    +0.091 C 
ATOM     11  C   UNL     1       8.690  -1.348  22.519  0.00  0.00    +0.091 C 
ATOM     12  N   UNL     1       9.694  -1.938  23.092  0.00  0.00    -0.240 NA
ATOM     13  C   UNL     1       9.128  -3.002  23.736  0.00  0.00    +0.164 A 
ATOM     14  N   UNL     1       9.869  -3.886  24.455  0.00  0.00    -0.197 NA
ENDROOT
TORSDOF 0
ENDMDL
MODEL 5
REMARK VINA RESULT:      -4.6      1.876      2.678
REMARK  Name = 
REMARK  0 active torsions:
REMARK  status: ('A' for Active; 'I' for Inactive)
REMARK                            x       y       z     vdW  Elec       q    Type
REMARK                         _______ _______ _______ _____ _____    ______ ____
ROOT
ATOM      1  N   UNL     1       6.962  -6.209  28.058  0.00  0.00    -0.329 N 
ATOM      2  H   UNL     1       7.679  -6.614  28.638  0.00  0.00    +0.145 HD
ATOM      3  H   UNL     1       5.995  -6.329  28.336  0.00  0.00    +0.145 HD
ATOM      4  C   UNL     1       7.182  -5.699  26.829  0.00  0.00    +0.195 A 
ATOM      5  N   UNL     1       8.484  -5.622  26.417  0.00  0.00    -0.295 N 
ATOM      6  H   UNL     1       9.230  -5.937  27.014  0.00  0.00    +0.172 HD
ATOM      7  C   UNL     1       8.853  -5.108  25.203  0.00  0.00    +0.258 A 
ATOM      8  O   UNL     1      10.014  -5.025  24.826  0.00  0.00    -0.267 OA
ATOM      9  C   UNL     1       7.738  -4.664  24.394  0.00  0.00    +0.066 A 
ATOM     10  C   UNL     1       7.736  -4.056  23.057  0.00  0.00    +0.091 C 
ATOM     11  C   UNL     1       6.235  -3.913  22.991  0.00  0.00    +0.091 C 
ATOM     12  N   UNL     1       5.554  -4.326  24.016  0.00  0.00    -0.240 NA
ATOM     13  C   UNL     1       6.506  -4.790  24.880  0.00  0.00    +0.164 A 
ATOM     14  N   UNL     1       6.186  -5.305  26.096  0.00  0.00    -0.197 NA
ENDROOT
TORSDOF 0
ENDMDL
MODEL 6
REMARK VINA RESULT:      -4.6      5.243      6.114
REMARK  Name = 
REMARK  0 active torsions:
REMARK  status: ('A' for Active; 'I' for Inactive)
REMARK                            x       y       z     vdW  Elec       q    Type
REMARK                         _______ _______ _______ _____ _____    ______ ____
ROOT
ATOM      1  N   UNL     1       9.165   2.267  21.497  0.00  0.00    -0.329 N 
ATOM      2  H   UNL     1      10.068   2.596  21.195  0.00  0.00    +0.145 HD
ATOM      3  H   UNL     1       8.415   2.942  21.594  0.00  0.00    +0.145 HD
ATOM      4  C   UNL     1       8.933   1.029  21.983  0.00  0.00    +0.195 A 
ATOM      5  N   UNL     1       9.976   0.144  21.935  0.00  0.00    -0.295 N 
ATOM      6  H   UNL     1      10.865   0.420  21.554  0.00  0.00    +0.172 HD
ATOM      7  C   UNL     1       9.876  -1.149  22.374  0.00  0.00    +0.258 A 
ATOM      8  O   UNL     1      10.797  -1.954  22.328  0.00  0.00    -0.267 OA
ATOM      9  C   UNL     1       8.571  -1.487  22.901  0.00  0.00    +0.066 A 
ATOM     10  C   UNL     1       8.085  -2.761  23.447  0.00  0.00    +0.091 C 
ATOM     11  C   UNL     1       6.695  -2.248  23.732  0.00  0.00    +0.091 C 
ATOM     12  N   UNL     1       6.445  -1.010  23.430  0.00  0.00    -0.240 NA
ATOM     13  C   UNL     1       7.625  -0.553  22.913  0.00  0.00    +0.164 A 
ATOM     14  N   UNL     1       7.768   0.721  22.462  0.00  0.00    -0.197 NA
ENDROOT
TORSDOF 0
ENDMDL
MODEL 7
REMARK VINA RESULT:      -4.5      6.584      7.147
REMARK  Name = 
REMARK  0 active torsions:
REMARK  status: ('A' for Active; 'I' for Inactive)
REMARK                            x       y       z     vdW  Elec       q    Type
REMARK                         _______ _______ _______ _____ _____    ______ ____
ROOT
ATOM      1  N   UNL     1      10.247   3.907  23.138  0.00  0.00    -0.329 N 
ATOM      2  H   UNL     1      10.354   4.487  23.954  0.00  0.00    +0.145 HD
ATOM      3  H   UNL     1      10.096   4.358  22.243  0.00  0.00    +0.145 HD
ATOM      4  C   UNL     1      10.080   2.568  23.178  0.00  0.00    +0.195 A 
ATOM      5  N   UNL     1      10.194   1.969  24.403  0.00  0.00    -0.295 N 
ATOM      6  H   UNL     1      10.391   2.516  25.224  0.00  0.00    +0.172 HD
ATOM      7  C   UNL     1      10.068   0.618  24.587  0.00  0.00    +0.258 A 
ATOM      8  O   UNL     1      10.177   0.069  25.675  0.00  0.00    -0.267 OA
ATOM      9  C   UNL     1       9.794  -0.114  23.369  0.00  0.00    +0.066 A 
ATOM     10  C   UNL     1       9.609  -1.556  23.166  0.00  0.00    +0.091 C 
ATOM     11  C   UNL     1       9.391  -1.442  21.677  0.00  0.00    +0.091 C 
ATOM     12  N   UNL     1       9.440  -0.253  21.159  0.00  0.00    -0.240 NA
ATOM     13  C   UNL     1       9.693   0.562  22.227  0.00  0.00    +0.164 A 
ATOM     14  N   UNL     1       9.828   1.907  22.090  0.00  0.00    -0.197 NA
ENDROOT
TORSDOF 0
ENDMDL
MODEL 8
REMARK VINA RESULT:      -4.5      2.022      2.980
REMARK  Name = 
REMARK  0 active torsions:
REMARK  status: ('A' for Active; 'I' for Inactive)
REMARK                            x       y       z     vdW  Elec       q    Type
REMARK                         _______ _______ _______ _____ _____    ______ ____
ROOT
ATOM      1  N   UNL     1       4.341  -7.149  26.563  0.00  0.00    -0.329 N 
ATOM      2  H   UNL     1       4.373  -7.523  27.498  0.00  0.00    +0.145 HD
ATOM      3  H   UNL     1       3.606  -7.469  25.942  0.00  0.00    +0.145 HD
ATOM      4  C   UNL     1       5.325  -6.412  26.008  0.00  0.00    +0.195 A 
ATOM      5  N   UNL     1       6.364  -6.057  26.825  0.00  0.00    -0.295 N 
ATOM      6  H   UNL     1       6.378  -6.341  27.790  0.00  0.00    +0.172 HD
ATOM      7  C   UNL     1       7.419  -5.294  26.401  0.00  0.00    +0.258 A 
ATOM      8  O   UNL     1       8.350  -4.962  27.123  0.00  0.00    -0.267 OA
ATOM      9  C   UNL     1       7.338  -4.909  25.008  0.00  0.00    +0.066 A 
ATOM     10  C   UNL     1       8.262  -4.095  24.207  0.00  0.00    +0.091 C 
ATOM     11  C   UNL     1       7.441  -4.188  22.944  0.00  0.00    +0.091 C 
ATOM     12  N   UNL     1       6.339  -4.872  23.001  0.00  0.00    -0.240 NA
ATOM     13  C   UNL     1       6.291  -5.312  24.294  0.00  0.00    +0.164 A 
ATOM     14  N   UNL     1       5.261  -6.068  24.759  0.00  0.00    -0.197 NA
ENDROOT
TORSDOF 0
ENDMDL
MODEL 9
REMARK VINA RESULT:      -4.4      2.382      3.244
REMARK  Name = 
REMARK  0 active torsions:
REMARK  status: ('A' for Active; 'I' for Inactive)
REMARK                            x       y       z     vdW  Elec       q    Type
REMARK                         _______ _______ _______ _____ _____    ______ ____
ROOT
ATOM      1  N   UNL     1       6.305  -6.203  26.993  0.00  0.00    -0.329 N 
ATOM      2  H   UNL     1       6.611  -7.072  27.400  0.00  0.00    +0.145 HD
ATOM      3  H   UNL     1       5.315  -5.988  27.005  0.00  0.00    +0.145 HD
ATOM      4  C   UNL     1       7.092  -5.399  26.247  0.00  0.00    +0.195 A 
ATOM      5  N   UNL     1       8.414  -5.741  26.157  0.00  0.00    -0.295 N 
ATOM      6  H   UNL     1       8.765  -6.557  26.629  0.00  0.00    +0.172 HD
ATOM      7  C   UNL     1       9.328  -5.006  25.451  0.00  0.00    +0.258 A 
ATOM      8  O   UNL     1      10.514  -5.296  25.370  0.00  0.00    -0.267 OA
ATOM      9  C   UNL     1       8.764  -3.841  24.802  0.00  0.00    +0.066 A 
ATOM     10  C   UNL     1       9.423  -2.820  23.977  0.00  0.00    +0.091 C 
ATOM     11  C   UNL     1       8.162  -2.024  23.742  0.00  0.00    +0.091 C 
ATOM     12  N   UNL     1       7.070  -2.467  24.285  0.00  0.00    -0.240 NA
ATOM     13  C   UNL     1       7.464  -3.599  24.943  0.00  0.00    +0.164 A 
ATOM     14  N   UNL     1       6.592  -4.356  25.658  0.00  0.00    -0.197 NA
ENDROOT
TORSDOF 0
ENDMDL
