MODEL 1
REMARK VINA RESULT:      -5.9      0.000      0.000
REMARK  Name = 
REMARK  13 active torsions:
REMARK  status: ('A' for Active; 'I' for Inactive)
REMARK    1  A    between atoms: C_1  and  O_2
REMARK    2  A    between atoms: O_2  and  C_3
REMARK    3  A    between atoms: C_4  and  O_5
REMARK    4  A    between atoms: C_8  and  C_9
REMARK    5  A    between atoms: C_9  and  N_10
REMARK    6  A    between atoms: C_11  and  C_13
REMARK    7  A    between atoms: C_13  and  C_14
REMARK    8  A    between atoms: C_14  and  C_15
REMARK    9  A    between atoms: C_15  and  C_16
REMARK   10  A    between atoms: C_16  and  C_17
REMARK   11  A    between atoms: C_18  and  C_19
REMARK   12  A    between atoms: C_19  and  C_20
REMARK   13  A    between atoms: C_19  and  C_21
REMARK                            x       y       z     vdW  Elec       q    Type
REMARK                         _______ _______ _______ _____ _____    ______ ____
ROOT
ATOM      1  N   UNL     1       8.878  -2.902  25.091  0.00  0.00    -0.311 N 
ATOM      2  H   UNL     1       8.190  -2.158  25.126  0.00  0.00    +0.149 HD
ATOM      3  C   UNL     1       8.695  -4.025  25.858  0.00  0.00    +0.213 C 
ATOM      4  O   UNL     1       9.382  -5.037  25.777  0.00  0.00    -0.276 OA
ENDROOT
BRANCH   1   5
ATOM      5  C   UNL     1       9.883  -2.856  24.066  0.00  0.00    +0.139 C 
BRANCH   5   8
ATOM      6  C   UNL     1       9.927   0.890  23.467  0.00  0.00    +0.162 A 
ATOM      7  C   UNL     1      10.064  -0.350  24.087  0.00  0.00    +0.054 A 
ATOM      8  C   UNL     1       9.874  -1.532  23.355  0.00  0.00    -0.027 A 
ATOM      9  C   UNL     1       9.596  -1.458  21.981  0.00  0.00    +0.009 A 
ATOM     10  C   UNL     1       9.500  -0.221  21.350  0.00  0.00    +0.049 A 
ATOM     11  C   UNL     1       9.661   0.937  22.096  0.00  0.00    +0.158 A 
BRANCH   6  13
ATOM     12  C   UNL     1       8.855   2.531  24.779  0.00  0.00    +0.277 C 
ATOM     13  O   UNL     1      10.034   2.103  24.099  0.00  0.00    -0.491 OA
ENDBRANCH   6  13
BRANCH  11  14
ATOM     14  O   UNL     1       9.516   2.142  21.462  0.00  0.00    -0.503 OA
ATOM     15  H   UNL     1       8.819   1.993  20.794  0.00  0.00    +0.292 HD
ENDBRANCH  11  14
ENDBRANCH   5   8
ENDBRANCH   1   5
BRANCH   3  16
ATOM     16  C   UNL     1       7.489  -3.915  26.752  0.00  0.00    +0.096 C 
BRANCH  16  17
ATOM     17  C   UNL     1       6.944  -5.265  27.203  0.00  0.00    +0.009 C 
BRANCH  17  18
ATOM     18  C   UNL     1       5.904  -5.853  26.242  0.00  0.00    +0.004 C 
BRANCH  18  19
ATOM     19  C   UNL     1       4.799  -4.888  25.778  0.00  0.00    +0.027 C 
BRANCH  19  20
ATOM     20  C   UNL     1       4.282  -5.157  24.392  0.00  0.00    -0.031 C 
ATOM     21  C   UNL     1       4.844  -4.750  23.240  0.00  0.00    -0.028 C 
BRANCH  21  22
ATOM     22  C   UNL     1       6.186  -4.072  23.096  0.00  0.00    +0.005 C 
ATOM     23  C   UNL     1       6.107  -2.844  22.191  0.00  0.00    +0.011 C 
ATOM     24  C   UNL     1       7.217  -5.068  22.562  0.00  0.00    +0.011 C 
ENDBRANCH  21  22
ENDBRANCH  19  20
ENDBRANCH  18  19
ENDBRANCH  17  18
ENDBRANCH  16  17
ENDBRANCH   3  16
TORSDOF 10
ENDMDL
MODEL 2
REMARK VINA RESULT:      -5.7      2.558      7.287
REMARK  Name = 
REMARK  13 active torsions:
REMARK  status: ('A' for Active; 'I' for Inactive)
REMARK    1  A    between atoms: C_1  and  O_2
REMARK    2  A    between atoms: O_2  and  C_3
REMARK    3  A    between atoms: C_4  and  O_5
REMARK    4  A    between atoms: C_8  and  C_9
REMARK    5  A    between atoms: C_9  and  N_10
REMARK    6  A    between atoms: C_11  and  C_13
REMARK    7  A    between atoms: C_13  and  C_14
REMARK    8  A    between atoms: C_14  and  C_15
REMARK    9  A    between atoms: C_15  and  C_16
REMARK   10  A    between atoms: C_16  and  C_17
REMARK   11  A    between atoms: C_18  and  C_19
REMARK   12  A    between atoms: C_19  and  C_20
REMARK   13  A    between atoms: C_19  and  C_21
REMARK                            x       y       z     vdW  Elec       q    Type
REMARK                         _______ _______ _______ _____ _____    ______ ____
ROOT
ATOM      1  N   UNL     1       8.097  -3.537  25.397  0.00  0.00    -0.311 N 
ATOM      2  H   UNL     1       7.637  -2.633  25.371  0.00  0.00    +0.149 HD
ATOM      3  C   UNL     1       9.313  -3.691  24.781  0.00  0.00    +0.213 C 
ATOM      4  O   UNL     1      10.017  -4.690  24.881  0.00  0.00    -0.276 OA
ENDROOT
BRANCH   1   5
ATOM      5  C   UNL     1       7.574  -4.545  26.276  0.00  0.00    +0.139 C 
BRANCH   5   8
ATOM      6  C   UNL     1       5.414  -6.028  23.531  0.00  0.00    +0.162 A 
ATOM      7  C   UNL     1       6.445  -5.353  24.181  0.00  0.00    +0.054 A 
ATOM      8  C   UNL     1       6.545  -5.392  25.580  0.00  0.00    -0.027 A 
ATOM      9  C   UNL     1       5.630  -6.159  26.318  0.00  0.00    +0.009 A 
ATOM     10  C   UNL     1       4.624  -6.868  25.669  0.00  0.00    +0.049 A 
ATOM     11  C   UNL     1       4.522  -6.793  24.288  0.00  0.00    +0.158 A 
BRANCH   6  13
ATOM     12  C   UNL     1       6.354  -5.806  21.379  0.00  0.00    +0.277 C 
ATOM     13  O   UNL     1       5.190  -6.009  22.178  0.00  0.00    -0.491 OA
ENDBRANCH   6  13
BRANCH  11  14
ATOM     14  O   UNL     1       3.496  -7.462  23.676  0.00  0.00    -0.503 OA
ATOM     15  H   UNL     1       3.564  -8.380  24.003  0.00  0.00    +0.292 HD
ENDBRANCH  11  14
ENDBRANCH   5   8
ENDBRANCH   1   5
BRANCH   3  16
ATOM     16  C   UNL     1       9.739  -2.452  24.040  0.00  0.00    +0.096 C 
BRANCH  16  17
ATOM     17  C   UNL     1       8.596  -1.764  23.303  0.00  0.00    +0.009 C 
BRANCH  17  18
ATOM     18  C   UNL     1       8.915  -1.458  21.835  0.00  0.00    +0.004 C 
BRANCH  18  19
ATOM     19  C   UNL     1       9.752  -0.192  21.581  0.00  0.00    +0.027 C 
BRANCH  19  20
ATOM     20  C   UNL     1       8.943   1.063  21.408  0.00  0.00    -0.031 C 
ATOM     21  C   UNL     1       8.881   2.095  22.268  0.00  0.00    -0.028 C 
BRANCH  21  22
ATOM     22  C   UNL     1       9.726   2.271  23.508  0.00  0.00    +0.005 C 
ATOM     23  C   UNL     1       9.044   1.693  24.746  0.00  0.00    +0.011 C 
ATOM     24  C   UNL     1      10.046   3.753  23.713  0.00  0.00    +0.011 C 
ENDBRANCH  21  22
ENDBRANCH  19  20
ENDBRANCH  18  19
ENDBRANCH  17  18
ENDBRANCH  16  17
ENDBRANCH   3  16
TORSDOF 10
ENDMDL
MODEL 3
REMARK VINA RESULT:      -5.7      2.579      6.759
REMARK  Name = 
REMARK  13 active torsions:
REMARK  status: ('A' for Active; 'I' for Inactive)
REMARK    1  A    between atoms: C_1  and  O_2
REMARK    2  A    between atoms: O_2  and  C_3
REMARK    3  A    between atoms: C_4  and  O_5
REMARK    4  A    between atoms: C_8  and  C_9
REMARK    5  A    between atoms: C_9  and  N_10
REMARK    6  A    between atoms: C_11  and  C_13
REMARK    7  A    between atoms: C_13  and  C_14
REMARK    8  A    between atoms: C_14  and  C_15
REMARK    9  A    between atoms: C_15  and  C_16
REMARK   10  A    between atoms: C_16  and  C_17
REMARK   11  A    between atoms: C_18  and  C_19
REMARK   12  A    between atoms: C_19  and  C_20
REMARK   13  A    between atoms: C_19  and  C_21
REMARK                            x       y       z     vdW  Elec       q    Type
REMARK                         _______ _______ _______ _____ _____    ______ ____
ROOT
ATOM      1  N   UNL     1       6.254  -0.550  23.973  0.00  0.00    -0.311 N 
ATOM      2  H   UNL     1       6.616  -0.392  23.039  0.00  0.00    +0.149 HD
ATOM      3  C   UNL     1       6.070   0.520  24.813  0.00  0.00    +0.213 C 
ATOM      4  O   UNL     1       5.502   0.456  25.898  0.00  0.00    -0.276 OA
ENDROOT
BRANCH   1   5
ATOM      5  C   UNL     1       5.724  -1.846  24.290  0.00  0.00    +0.139 C 
BRANCH   5   8
ATOM      6  C   UNL     1       7.961  -4.856  23.710  0.00  0.00    +0.162 A 
ATOM      7  C   UNL     1       7.034  -3.838  23.495  0.00  0.00    +0.054 A 
ATOM      8  C   UNL     1       6.826  -2.853  24.473  0.00  0.00    -0.027 A 
ATOM      9  C   UNL     1       7.595  -2.870  25.647  0.00  0.00    +0.009 A 
ATOM     10  C   UNL     1       8.550  -3.862  25.846  0.00  0.00    +0.049 A 
ATOM     11  C   UNL     1       8.721  -4.844  24.883  0.00  0.00    +0.158 A 
BRANCH   6  13
ATOM     12  C   UNL     1       7.172  -6.131  21.889  0.00  0.00    +0.277 C 
ATOM     13  O   UNL     1       8.201  -5.897  22.849  0.00  0.00    -0.491 OA
ENDBRANCH   6  13
BRANCH  11  14
ATOM     14  O   UNL     1       9.634  -5.836  25.122  0.00  0.00    -0.503 OA
ATOM     15  H   UNL     1       9.193  -6.659  24.836  0.00  0.00    +0.292 HD
ENDBRANCH  11  14
ENDBRANCH   5   8
ENDBRANCH   1   5
BRANCH   3  16
ATOM     16  C   UNL     1       6.561   1.809  24.212  0.00  0.00    +0.096 C 
BRANCH  16  17
ATOM     17  C   UNL     1       6.277   1.928  22.719  0.00  0.00    +0.009 C 
BRANCH  17  18
ATOM     18  C   UNL     1       7.462   2.477  21.916  0.00  0.00    +0.004 C 
BRANCH  18  19
ATOM     19  C   UNL     1       8.458   1.430  21.390  0.00  0.00    +0.027 C 
BRANCH  19  20
ATOM     20  C   UNL     1       9.851   1.564  21.941  0.00  0.00    -0.031 C 
ATOM     21  C   UNL     1      10.356   0.900  22.996  0.00  0.00    -0.028 C 
BRANCH  21  22
ATOM     22  C   UNL     1       9.680  -0.223  23.746  0.00  0.00    +0.005 C 
ATOM     23  C   UNL     1       9.906  -0.115  25.253  0.00  0.00    +0.011 C 
ATOM     24  C   UNL     1      10.179  -1.572  23.223  0.00  0.00    +0.011 C 
ENDBRANCH  21  22
ENDBRANCH  19  20
ENDBRANCH  18  19
ENDBRANCH  17  18
ENDBRANCH  16  17
ENDBRANCH   3  16
TORSDOF 10
ENDMDL
MODEL 4
REMARK VINA RESULT:      -5.7      2.497      6.597
REMARK  Name = 
REMARK  13 active torsions:
REMARK  status: ('A' for Active; 'I' for Inactive)
REMARK    1  A    between atoms: C_1  and  O_2
REMARK    2  A    between atoms: O_2  and  C_3
REMARK    3  A    between atoms: C_4  and  O_5
REMARK    4  A    between atoms: C_8  and  C_9
REMARK    5  A    between atoms: C_9  and  N_10
REMARK    6  A    between atoms: C_11  and  C_13
REMARK    7  A    between atoms: C_13  and  C_14
REMARK    8  A    between atoms: C_14  and  C_15
REMARK    9  A    between atoms: C_15  and  C_16
REMARK   10  A    between atoms: C_16  and  C_17
REMARK   11  A    between atoms: C_18  and  C_19
REMARK   12  A    between atoms: C_19  and  C_20
REMARK   13  A    between atoms: C_19  and  C_21
REMARK                            x       y       z     vdW  Elec       q    Type
REMARK                         _______ _______ _______ _____ _____    ______ ____
ROOT
ATOM      1  N   UNL     1       6.032  -0.189  23.696  0.00  0.00    -0.311 N 
ATOM      2  H   UNL     1       5.877  -0.291  22.699  0.00  0.00    +0.149 HD
ATOM      3  C   UNL     1       6.165   1.068  24.231  0.00  0.00    +0.213 C 
ATOM      4  O   UNL     1       6.204   1.306  25.434  0.00  0.00    -0.276 OA
ENDROOT
BRANCH   1   5
ATOM      5  C   UNL     1       5.864  -1.342  24.535  0.00  0.00    +0.139 C 
BRANCH   5   8
ATOM      6  C   UNL     1       7.681  -4.536  23.590  0.00  0.00    +0.162 A 
ATOM      7  C   UNL     1       7.238  -3.435  24.320  0.00  0.00    +0.054 A 
ATOM      8  C   UNL     1       6.231  -2.604  23.805  0.00  0.00    -0.027 A 
ATOM      9  C   UNL     1       5.636  -2.919  22.574  0.00  0.00    +0.009 A 
ATOM     10  C   UNL     1       6.048  -4.041  21.862  0.00  0.00    +0.049 A 
ATOM     11  C   UNL     1       7.065  -4.833  22.371  0.00  0.00    +0.158 A 
BRANCH   6  13
ATOM     12  C   UNL     1       9.248  -5.106  25.259  0.00  0.00    +0.277 C 
ATOM     13  O   UNL     1       8.696  -5.377  23.971  0.00  0.00    -0.491 OA
ENDBRANCH   6  13
BRANCH  11  14
ATOM     14  O   UNL     1       7.485  -5.906  21.631  0.00  0.00    -0.503 OA
ATOM     15  H   UNL     1       8.378  -5.663  21.319  0.00  0.00    +0.292 HD
ENDBRANCH  11  14
ENDBRANCH   5   8
ENDBRANCH   1   5
BRANCH   3  16
ATOM     16  C   UNL     1       6.163   2.141  23.176  0.00  0.00    +0.096 C 
BRANCH  16  17
ATOM     17  C   UNL     1       7.560   2.553  22.729  0.00  0.00    +0.009 C 
BRANCH  17  18
ATOM     18  C   UNL     1       8.040   1.814  21.474  0.00  0.00    +0.004 C 
BRANCH  18  19
ATOM     19  C   UNL     1       9.408   1.119  21.588  0.00  0.00    +0.027 C 
BRANCH  19  20
ATOM     20  C   UNL     1       9.346  -0.298  22.086  0.00  0.00    -0.031 C 
ATOM     21  C   UNL     1       9.541  -0.705  23.352  0.00  0.00    -0.028 C 
BRANCH  21  22
ATOM     22  C   UNL     1       9.711   0.189  24.558  0.00  0.00    +0.005 C 
ATOM     23  C   UNL     1      11.160   0.640  24.731  0.00  0.00    +0.011 C 
ATOM     24  C   UNL     1       9.219  -0.533  25.814  0.00  0.00    +0.011 C 
ENDBRANCH  21  22
ENDBRANCH  19  20
ENDBRANCH  18  19
ENDBRANCH  17  18
ENDBRANCH  16  17
ENDBRANCH   3  16
TORSDOF 10
ENDMDL
MODEL 5
REMARK VINA RESULT:      -5.6      0.934      2.639
REMARK  Name = 
REMARK  13 active torsions:
REMARK  status: ('A' for Active; 'I' for Inactive)
REMARK    1  A    between atoms: C_1  and  O_2
REMARK    2  A    between atoms: O_2  and  C_3
REMARK    3  A    between atoms: C_4  and  O_5
REMARK    4  A    between atoms: C_8  and  C_9
REMARK    5  A    between atoms: C_9  and  N_10
REMARK    6  A    between atoms: C_11  and  C_13
REMARK    7  A    between atoms: C_13  and  C_14
REMARK    8  A    between atoms: C_14  and  C_15
REMARK    9  A    between atoms: C_15  and  C_16
REMARK   10  A    between atoms: C_16  and  C_17
REMARK   11  A    between atoms: C_18  and  C_19
REMARK   12  A    between atoms: C_19  and  C_20
REMARK   13  A    between atoms: C_19  and  C_21
REMARK                            x       y       z     vdW  Elec       q    Type
REMARK                         _______ _______ _______ _____ _____    ______ ____
ROOT
ATOM      1  N   UNL     1       8.363  -3.364  23.928  0.00  0.00    -0.311 N 
ATOM      2  H   UNL     1       7.717  -2.992  23.241  0.00  0.00    +0.149 HD
ATOM      3  C   UNL     1       8.559  -4.721  24.002  0.00  0.00    +0.213 C 
ATOM      4  O   UNL     1       9.422  -5.258  24.687  0.00  0.00    -0.276 OA
ENDROOT
BRANCH   1   5
ATOM      5  C   UNL     1       9.222  -2.449  24.626  0.00  0.00    +0.139 C 
BRANCH   5   8
ATOM      6  C   UNL     1       9.889   1.152  23.635  0.00  0.00    +0.162 A 
ATOM      7  C   UNL     1       9.737   0.001  24.404  0.00  0.00    +0.054 A 
ATOM      8  C   UNL     1       9.527  -1.241  23.784  0.00  0.00    -0.027 A 
ATOM      9  C   UNL     1       9.523  -1.323  22.383  0.00  0.00    +0.009 A 
ATOM     10  C   UNL     1       9.716  -0.181  21.612  0.00  0.00    +0.049 A 
ATOM     11  C   UNL     1       9.892   1.042  22.242  0.00  0.00    +0.158 A 
BRANCH   6  13
ATOM     12  C   UNL     1       8.850   3.004  24.664  0.00  0.00    +0.277 C 
ATOM     13  O   UNL     1      10.041   2.420  24.137  0.00  0.00    -0.491 OA
ENDBRANCH   6  13
BRANCH  11  14
ATOM     14  O   UNL     1      10.033   2.158  21.462  0.00  0.00    -0.503 OA
ATOM     15  H   UNL     1       9.164   2.602  21.497  0.00  0.00    +0.292 HD
ENDBRANCH  11  14
ENDBRANCH   5   8
ENDBRANCH   1   5
BRANCH   3  16
ATOM     16  C   UNL     1       7.654  -5.480  23.069  0.00  0.00    +0.096 C 
BRANCH  16  17
ATOM     17  C   UNL     1       6.476  -4.655  22.564  0.00  0.00    +0.009 C 
BRANCH  17  18
ATOM     18  C   UNL     1       5.189  -5.471  22.395  0.00  0.00    +0.004 C 
BRANCH  18  19
ATOM     19  C   UNL     1       4.301  -5.589  23.645  0.00  0.00    +0.027 C 
BRANCH  19  20
ATOM     20  C   UNL     1       4.490  -4.485  24.648  0.00  0.00    -0.031 C 
ATOM     21  C   UNL     1       5.088  -4.594  25.848  0.00  0.00    -0.028 C 
BRANCH  21  22
ATOM     22  C   UNL     1       5.823  -5.807  26.369  0.00  0.00    +0.005 C 
ATOM     23  C   UNL     1       4.892  -6.754  27.123  0.00  0.00    +0.011 C 
ATOM     24  C   UNL     1       6.983  -5.367  27.264  0.00  0.00    +0.011 C 
ENDBRANCH  21  22
ENDBRANCH  19  20
ENDBRANCH  18  19
ENDBRANCH  17  18
ENDBRANCH  16  17
ENDBRANCH   3  16
TORSDOF 10
ENDMDL
MODEL 6
REMARK VINA RESULT:      -5.6      2.348      6.993
REMARK  Name = 
REMARK  13 active torsions:
REMARK  status: ('A' for Active; 'I' for Inactive)
REMARK    1  A    between atoms: C_1  and  O_2
REMARK    2  A    between atoms: O_2  and  C_3
REMARK    3  A    between atoms: C_4  and  O_5
REMARK    4  A    between atoms: C_8  and  C_9
REMARK    5  A    between atoms: C_9  and  N_10
REMARK    6  A    between atoms: C_11  and  C_13
REMARK    7  A    between atoms: C_13  and  C_14
REMARK    8  A    between atoms: C_14  and  C_15
REMARK    9  A    between atoms: C_15  and  C_16
REMARK   10  A    between atoms: C_16  and  C_17
REMARK   11  A    between atoms: C_18  and  C_19
REMARK   12  A    between atoms: C_19  and  C_20
REMARK   13  A    between atoms: C_19  and  C_21
REMARK                            x       y       z     vdW  Elec       q    Type
REMARK                         _______ _______ _______ _____ _____    ______ ____
ROOT
ATOM      1  N   UNL     1       8.261  -1.911  23.187  0.00  0.00    -0.311 N 
ATOM      2  H   UNL     1       7.578  -1.700  23.907  0.00  0.00    +0.149 HD
ATOM      3  C   UNL     1       9.578  -1.585  23.392  0.00  0.00    +0.213 C 
ATOM      4  O   UNL     1      10.497  -1.929  22.657  0.00  0.00    -0.276 OA
ENDROOT
BRANCH   1   5
ATOM      5  C   UNL     1       7.863  -2.753  22.094  0.00  0.00    +0.139 C 
BRANCH   5   8
ATOM      6  C   UNL     1       6.236  -5.315  24.372  0.00  0.00    +0.162 A 
ATOM      7  C   UNL     1       6.938  -4.194  23.934  0.00  0.00    +0.054 A 
ATOM      8  C   UNL     1       6.986  -3.879  22.567  0.00  0.00    -0.027 A 
ATOM      9  C   UNL     1       6.277  -4.670  21.649  0.00  0.00    +0.009 A 
ATOM     10  C   UNL     1       5.541  -5.765  22.089  0.00  0.00    +0.049 A 
ATOM     11  C   UNL     1       5.530  -6.080  23.439  0.00  0.00    +0.158 A 
BRANCH   6  13
ATOM     12  C   UNL     1       7.271  -5.347  26.491  0.00  0.00    +0.277 C 
ATOM     13  O   UNL     1       6.172  -5.746  25.673  0.00  0.00    -0.491 OA
ENDBRANCH   6  13
BRANCH  11  14
ATOM     14  O   UNL     1       4.836  -7.189  23.842  0.00  0.00    -0.503 OA
ATOM     15  H   UNL     1       4.039  -7.207  23.276  0.00  0.00    +0.292 HD
ENDBRANCH  11  14
ENDBRANCH   5   8
ENDBRANCH   1   5
BRANCH   3  16
ATOM     16  C   UNL     1       9.787  -0.834  24.680  0.00  0.00    +0.096 C 
BRANCH  16  17
ATOM     17  C   UNL     1      10.761   0.331  24.550  0.00  0.00    +0.009 C 
BRANCH  17  18
ATOM     18  C   UNL     1      10.077   1.660  24.209  0.00  0.00    +0.004 C 
BRANCH  18  19
ATOM     19  C   UNL     1      10.273   2.165  22.770  0.00  0.00    +0.027 C 
BRANCH  19  20
ATOM     20  C   UNL     1       9.240   1.675  21.793  0.00  0.00    -0.031 C 
ATOM     21  C   UNL     1       7.922   1.936  21.832  0.00  0.00    -0.028 C 
BRANCH  21  22
ATOM     22  C   UNL     1       7.232   2.896  22.772  0.00  0.00    +0.005 C 
ATOM     23  C   UNL     1       5.803   2.458  23.083  0.00  0.00    +0.011 C 
ATOM     24  C   UNL     1       7.246   4.306  22.178  0.00  0.00    +0.011 C 
ENDBRANCH  21  22
ENDBRANCH  19  20
ENDBRANCH  18  19
ENDBRANCH  17  18
ENDBRANCH  16  17
ENDBRANCH   3  16
TORSDOF 10
ENDMDL
MODEL 7
REMARK VINA RESULT:      -5.6      2.287      7.019
REMARK  Name = 
REMARK  13 active torsions:
REMARK  status: ('A' for Active; 'I' for Inactive)
REMARK    1  A    between atoms: C_1  and  O_2
REMARK    2  A    between atoms: O_2  and  C_3
REMARK    3  A    between atoms: C_4  and  O_5
REMARK    4  A    between atoms: C_8  and  C_9
REMARK    5  A    between atoms: C_9  and  N_10
REMARK    6  A    between atoms: C_11  and  C_13
REMARK    7  A    between atoms: C_13  and  C_14
REMARK    8  A    between atoms: C_14  and  C_15
REMARK    9  A    between atoms: C_15  and  C_16
REMARK   10  A    between atoms: C_16  and  C_17
REMARK   11  A    between atoms: C_18  and  C_19
REMARK   12  A    between atoms: C_19  and  C_20
REMARK   13  A    between atoms: C_19  and  C_21
REMARK                            x       y       z     vdW  Elec       q    Type
REMARK                         _______ _______ _______ _____ _____    ______ ____
ROOT
ATOM      1  N   UNL     1       8.460  -2.022  22.653  0.00  0.00    -0.311 N 
ATOM      2  H   UNL     1       7.554  -1.611  22.455  0.00  0.00    +0.149 HD
ATOM      3  C   UNL     1       9.580  -1.502  22.055  0.00  0.00    +0.213 C 
ATOM      4  O   UNL     1      10.728  -1.824  22.339  0.00  0.00    -0.276 OA
ENDROOT
BRANCH   1   5
ATOM      5  C   UNL     1       8.561  -2.967  23.729  0.00  0.00    +0.139 C 
BRANCH   5   8
ATOM      6  C   UNL     1       6.010  -5.590  24.737  0.00  0.00    +0.162 A 
ATOM      7  C   UNL     1       6.906  -4.525  24.802  0.00  0.00    +0.054 A 
ATOM      8  C   UNL     1       7.490  -4.018  23.631  0.00  0.00    -0.027 A 
ATOM      9  C   UNL     1       7.125  -4.557  22.387  0.00  0.00    +0.009 A 
ATOM     10  C   UNL     1       6.199  -5.594  22.316  0.00  0.00    +0.049 A 
ATOM     11  C   UNL     1       5.656  -6.101  23.486  0.00  0.00    +0.158 A 
BRANCH   6  13
ATOM     12  C   UNL     1       5.553  -5.481  27.049  0.00  0.00    +0.277 C 
ATOM     13  O   UNL     1       5.429  -6.198  25.821  0.00  0.00    -0.491 OA
ENDBRANCH   6  13
BRANCH  11  14
ATOM     14  O   UNL     1       4.782  -7.152  23.393  0.00  0.00    -0.503 OA
ATOM     15  H   UNL     1       5.251  -7.823  22.860  0.00  0.00    +0.292 HD
ENDBRANCH  11  14
ENDBRANCH   5   8
ENDBRANCH   1   5
BRANCH   3  16
ATOM     16  C   UNL     1       9.248  -0.413  21.070  0.00  0.00    +0.096 C 
BRANCH  16  17
ATOM     17  C   UNL     1       8.906   0.917  21.730  0.00  0.00    +0.009 C 
BRANCH  17  18
ATOM     18  C   UNL     1      10.141   1.723  22.150  0.00  0.00    +0.004 C 
BRANCH  18  19
ATOM     19  C   UNL     1      10.217   2.105  23.638  0.00  0.00    +0.027 C 
BRANCH  19  20
ATOM     20  C   UNL     1      10.318   0.935  24.576  0.00  0.00    -0.031 C 
ATOM     21  C   UNL     1       9.312   0.397  25.288  0.00  0.00    -0.028 C 
BRANCH  21  22
ATOM     22  C   UNL     1       7.850   0.761  25.178  0.00  0.00    +0.005 C 
ATOM     23  C   UNL     1       7.524   2.040  25.946  0.00  0.00    +0.011 C 
ATOM     24  C   UNL     1       6.987  -0.400  25.674  0.00  0.00    +0.011 C 
ENDBRANCH  21  22
ENDBRANCH  19  20
ENDBRANCH  18  19
ENDBRANCH  17  18
ENDBRANCH  16  17
ENDBRANCH   3  16
TORSDOF 10
ENDMDL
MODEL 8
REMARK VINA RESULT:      -5.5      2.148      7.499
REMARK  Name = 
REMARK  13 active torsions:
REMARK  status: ('A' for Active; 'I' for Inactive)
REMARK    1  A    between atoms: C_1  and  O_2
REMARK    2  A    between atoms: O_2  and  C_3
REMARK    3  A    between atoms: C_4  and  O_5
REMARK    4  A    between atoms: C_8  and  C_9
REMARK    5  A    between atoms: C_9  and  N_10
REMARK    6  A    between atoms: C_11  and  C_13
REMARK    7  A    between atoms: C_13  and  C_14
REMARK    8  A    between atoms: C_14  and  C_15
REMARK    9  A    between atoms: C_15  and  C_16
REMARK   10  A    between atoms: C_16  and  C_17
REMARK   11  A    between atoms: C_18  and  C_19
REMARK   12  A    between atoms: C_19  and  C_20
REMARK   13  A    between atoms: C_19  and  C_21
REMARK                            x       y       z     vdW  Elec       q    Type
REMARK                         _______ _______ _______ _____ _____    ______ ____
ROOT
ATOM      1  N   UNL     1       8.607  -1.732  23.369  0.00  0.00    -0.311 N 
ATOM      2  H   UNL     1       8.088  -1.226  24.078  0.00  0.00    +0.149 HD
ATOM      3  C   UNL     1       9.796  -1.220  22.913  0.00  0.00    +0.213 C 
ATOM      4  O   UNL     1      10.569  -1.821  22.174  0.00  0.00    -0.276 OA
ENDROOT
BRANCH   1   5
ATOM      5  C   UNL     1       8.201  -3.071  23.049  0.00  0.00    +0.139 C 
BRANCH   5   8
ATOM      6  C   UNL     1       6.642  -5.048  25.888  0.00  0.00    +0.162 A 
ATOM      7  C   UNL     1       6.804  -4.383  24.675  0.00  0.00    +0.054 A 
ATOM      8  C   UNL     1       8.068  -3.909  24.290  0.00  0.00    -0.027 A 
ATOM      9  C   UNL     1       9.178  -4.155  25.113  0.00  0.00    +0.009 A 
ATOM     10  C   UNL     1       9.027  -4.855  26.306  0.00  0.00    +0.049 A 
ATOM     11  C   UNL     1       7.766  -5.289  26.684  0.00  0.00    +0.158 A 
BRANCH   6  13
ATOM     12  C   UNL     1       4.890  -6.615  25.691  0.00  0.00    +0.277 C 
ATOM     13  O   UNL     1       5.446  -5.500  26.386  0.00  0.00    -0.491 OA
ENDBRANCH   6  13
BRANCH  11  14
ATOM     14  O   UNL     1       7.635  -5.935  27.884  0.00  0.00    -0.503 OA
ATOM     15  H   UNL     1       8.243  -6.697  27.828  0.00  0.00    +0.292 HD
ENDBRANCH  11  14
ENDBRANCH   5   8
ENDBRANCH   1   5
BRANCH   3  16
ATOM     16  C   UNL     1      10.098   0.133  23.499  0.00  0.00    +0.096 C 
BRANCH  16  17
ATOM     17  C   UNL     1      10.142   1.247  22.460  0.00  0.00    +0.009 C 
BRANCH  17  18
ATOM     18  C   UNL     1       8.888   1.307  21.579  0.00  0.00    +0.004 C 
BRANCH  18  19
ATOM     19  C   UNL     1       7.600   1.772  22.278  0.00  0.00    +0.027 C 
BRANCH  19  20
ATOM     20  C   UNL     1       7.310   3.241  22.135  0.00  0.00    -0.031 C 
ATOM     21  C   UNL     1       7.683   4.212  22.986  0.00  0.00    -0.028 C 
BRANCH  21  22
ATOM     22  C   UNL     1       8.596   4.048  24.178  0.00  0.00    +0.005 C 
ATOM     23  C   UNL     1       7.973   4.613  25.453  0.00  0.00    +0.011 C 
ATOM     24  C   UNL     1       9.944   4.715  23.897  0.00  0.00    +0.011 C 
ENDBRANCH  21  22
ENDBRANCH  19  20
ENDBRANCH  18  19
ENDBRANCH  17  18
ENDBRANCH  16  17
ENDBRANCH   3  16
TORSDOF 10
ENDMDL
MODEL 9
REMARK VINA RESULT:      -5.5      1.480      2.597
REMARK  Name = 
REMARK  13 active torsions:
REMARK  status: ('A' for Active; 'I' for Inactive)
REMARK    1  A    between atoms: C_1  and  O_2
REMARK    2  A    between atoms: O_2  and  C_3
REMARK    3  A    between atoms: C_4  and  O_5
REMARK    4  A    between atoms: C_8  and  C_9
REMARK    5  A    between atoms: C_9  and  N_10
REMARK    6  A    between atoms: C_11  and  C_13
REMARK    7  A    between atoms: C_13  and  C_14
REMARK    8  A    between atoms: C_14  and  C_15
REMARK    9  A    between atoms: C_15  and  C_16
REMARK   10  A    between atoms: C_16  and  C_17
REMARK   11  A    between atoms: C_18  and  C_19
REMARK   12  A    between atoms: C_19  and  C_20
REMARK   13  A    between atoms: C_19  and  C_21
REMARK                            x       y       z     vdW  Elec       q    Type
REMARK                         _______ _______ _______ _____ _____    ______ ____
ROOT
ATOM      1  N   UNL     1       8.899  -3.577  23.747  0.00  0.00    -0.311 N 
ATOM      2  H   UNL     1       8.518  -3.385  22.827  0.00  0.00    +0.149 HD
ATOM      3  C   UNL     1       8.668  -4.798  24.330  0.00  0.00    +0.213 C 
ATOM      4  O   UNL     1       9.205  -5.183  25.363  0.00  0.00    -0.276 OA
ENDROOT
BRANCH   1   5
ATOM      5  C   UNL     1       9.859  -2.660  24.294  0.00  0.00    +0.139 C 
BRANCH   5   8
ATOM      6  C   UNL     1       9.971   1.047  23.493  0.00  0.00    +0.162 A 
ATOM      7  C   UNL     1      10.069  -0.158  24.184  0.00  0.00    +0.054 A 
ATOM      8  C   UNL     1       9.893  -1.377  23.511  0.00  0.00    -0.027 A 
ATOM      9  C   UNL     1       9.668  -1.376  22.126  0.00  0.00    +0.009 A 
ATOM     10  C   UNL     1       9.610  -0.175  21.425  0.00  0.00    +0.049 A 
ATOM     11  C   UNL     1       9.757   1.020  22.112  0.00  0.00    +0.158 A 
BRANCH   6  13
ATOM     12  C   UNL     1       8.892   2.737  24.735  0.00  0.00    +0.277 C 
ATOM     13  O   UNL     1      10.068   2.292  24.062  0.00  0.00    -0.491 OA
ENDBRANCH   6  13
BRANCH  11  14
ATOM     14  O   UNL     1       9.650   2.190  21.408  0.00  0.00    -0.503 OA
ATOM     15  H   UNL     1       9.046   1.985  20.669  0.00  0.00    +0.292 HD
ENDBRANCH  11  14
ENDBRANCH   5   8
ENDBRANCH   1   5
BRANCH   3  16
ATOM     16  C   UNL     1       7.751  -5.660  23.505  0.00  0.00    +0.096 C 
BRANCH  16  17
ATOM     17  C   UNL     1       7.154  -4.933  22.305  0.00  0.00    +0.009 C 
BRANCH  17  18
ATOM     18  C   UNL     1       5.622  -4.868  22.334  0.00  0.00    +0.004 C 
BRANCH  18  19
ATOM     19  C   UNL     1       5.018  -3.610  22.981  0.00  0.00    +0.027 C 
BRANCH  19  20
ATOM     20  C   UNL     1       5.931  -2.416  22.992  0.00  0.00    -0.031 C 
ATOM     21  C   UNL     1       6.156  -1.596  24.034  0.00  0.00    -0.028 C 
BRANCH  21  22
ATOM     22  C   UNL     1       5.656  -1.794  25.445  0.00  0.00    +0.005 C 
ATOM     23  C   UNL     1       5.021  -0.523  26.006  0.00  0.00    +0.011 C 
ATOM     24  C   UNL     1       6.804  -2.262  26.343  0.00  0.00    +0.011 C 
ENDBRANCH  21  22
ENDBRANCH  19  20
ENDBRANCH  18  19
ENDBRANCH  17  18
ENDBRANCH  16  17
ENDBRANCH   3  16
TORSDOF 10
ENDMDL
