MODEL 1
REMARK VINA RESULT:      -5.6      0.000      0.000
REMARK  Name = 
REMARK  13 active torsions:
REMARK  status: ('A' for Active; 'I' for Inactive)
REMARK    1  A    between atoms: C_2  and  N_3
REMARK    2  A    between atoms: C_2  and  C_4
REMARK    3  A    between atoms: C_2  and  C_11
REMARK    4  A    between atoms: C_4  and  C_5
REMARK    5  A    between atoms: C_11  and  O_13
REMARK    6  A    between atoms: C_11  and  C_14
REMARK    7  A    between atoms: C_14  and  C_15
REMARK    8  A    between atoms: C_15  and  C_17
REMARK    9  A    between atoms: C_15  and  C_21
REMARK   10  A    between atoms: C_17  and  C_18
REMARK   11  A    between atoms: C_18  and  C_19
REMARK   12  A    between atoms: C_18  and  C_20
REMARK   13  A    between atoms: C_21  and  O_22
REMARK                            x       y       z     vdW  Elec       q    Type
REMARK                         _______ _______ _______ _____ _____    ______ ____
ROOT
ATOM      1  C   UNL     1       7.955  -5.488  26.070  0.00  0.00    +0.132 C 
ENDROOT
BRANCH   1   2
ATOM      2  O   UNL     1       8.013  -5.854  27.459  0.00  0.00    -0.390 OA
ATOM      3  H   UNL     1       8.889  -5.618  27.809  0.00  0.00    +0.210 HD
ENDBRANCH   1   2
BRANCH   1   4
ATOM      4  C   UNL     1       9.212  -4.661  25.672  0.00  0.00    +0.080 C 
BRANCH   4   5
ATOM      5  N   UNL     1      10.404  -5.510  25.515  0.00  0.00    -0.325 NA
ATOM      6  H   UNL     1      10.171  -6.475  25.755  0.00  0.00    +0.119 HD
ATOM      7  H   UNL     1      10.679  -5.545  24.533  0.00  0.00    +0.119 HD
ENDBRANCH   4   5
BRANCH   4   8
ATOM      8  C   UNL     1       9.010  -3.894  24.345  0.00  0.00    +0.024 C 
BRANCH   8   9
ATOM      9  C   UNL     1       9.508  -2.427  24.366  0.00  0.00    -0.009 C 
ATOM     10  C   UNL     1       8.533  -1.527  25.141  0.00  0.00    +0.003 C 
ATOM     11  C   UNL     1       7.204  -1.344  24.412  0.00  0.00    +0.000 C 
ATOM     12  C   UNL     1       7.397  -0.868  22.972  0.00  0.00    +0.000 C 
ATOM     13  C   UNL     1       8.410  -1.705  22.195  0.00  0.00    +0.000 C 
ATOM     14  C   UNL     1       9.722  -1.843  22.960  0.00  0.00    +0.003 C 
ENDBRANCH   8   9
ENDBRANCH   4   8
ENDBRANCH   1   4
BRANCH   1  15
ATOM     15  C   UNL     1       6.615  -4.773  25.891  0.00  0.00    +0.047 C 
BRANCH  15  16
ATOM     16  C   UNL     1       5.575  -5.467  24.997  0.00  0.00    +0.100 C 
BRANCH  16  17
ATOM     17  C   UNL     1       5.005  -6.655  25.764  0.00  0.00    +0.308 C 
ATOM     18  O   UNL     1       5.220  -6.844  26.949  0.00  0.00    -0.251 OA
BRANCH  17  19
ATOM     19  O   UNL     1       4.235  -7.484  25.028  0.00  0.00    -0.480 OA
ATOM     20  H   UNL     1       3.715  -7.054  24.324  0.00  0.00    +0.295 HD
ENDBRANCH  17  19
ENDBRANCH  16  17
BRANCH  16  21
ATOM     21  C   UNL     1       6.075  -5.895  23.599  0.00  0.00    +0.017 C 
BRANCH  21  22
ATOM     22  C   UNL     1       6.183  -4.733  22.582  0.00  0.00    -0.016 C 
ATOM     23  C   UNL     1       5.004  -3.763  22.717  0.00  0.00    +0.007 C 
ATOM     24  C   UNL     1       6.265  -5.209  21.125  0.00  0.00    +0.007 C 
ENDBRANCH  21  22
ENDBRANCH  16  21
ENDBRANCH  15  16
ENDBRANCH   1  15
TORSDOF 11
ENDMDL
MODEL 2
REMARK VINA RESULT:      -5.5      2.571      5.219
REMARK  Name = 
REMARK  13 active torsions:
REMARK  status: ('A' for Active; 'I' for Inactive)
REMARK    1  A    between atoms: C_2  and  N_3
REMARK    2  A    between atoms: C_2  and  C_4
REMARK    3  A    between atoms: C_2  and  C_11
REMARK    4  A    between atoms: C_4  and  C_5
REMARK    5  A    between atoms: C_11  and  O_13
REMARK    6  A    between atoms: C_11  and  C_14
REMARK    7  A    between atoms: C_14  and  C_15
REMARK    8  A    between atoms: C_15  and  C_17
REMARK    9  A    between atoms: C_15  and  C_21
REMARK   10  A    between atoms: C_17  and  C_18
REMARK   11  A    between atoms: C_18  and  C_19
REMARK   12  A    between atoms: C_18  and  C_20
REMARK   13  A    between atoms: C_21  and  O_22
REMARK                            x       y       z     vdW  Elec       q    Type
REMARK                         _______ _______ _______ _____ _____    ______ ____
ROOT
ATOM      1  C   UNL     1       9.079  -3.825  25.535  0.00  0.00    +0.132 C 
ENDROOT
BRANCH   1   2
ATOM      2  O   UNL     1       9.999  -3.855  24.430  0.00  0.00    -0.390 OA
ATOM      3  H   UNL     1       9.491  -3.909  23.602  0.00  0.00    +0.210 HD
ENDBRANCH   1   2
BRANCH   1   4
ATOM      4  C   UNL     1       8.177  -5.093  25.528  0.00  0.00    +0.080 C 
BRANCH   4   5
ATOM      5  N   UNL     1       8.187  -5.783  26.829  0.00  0.00    -0.325 NA
ATOM      6  H   UNL     1       9.077  -5.615  27.299  0.00  0.00    +0.119 HD
ATOM      7  H   UNL     1       7.485  -5.373  27.446  0.00  0.00    +0.119 HD
ENDBRANCH   4   5
BRANCH   4   8
ATOM      8  C   UNL     1       6.706  -4.761  25.190  0.00  0.00    +0.024 C 
BRANCH   8   9
ATOM      9  C   UNL     1       6.146  -5.504  23.950  0.00  0.00    -0.009 C 
ATOM     10  C   UNL     1       7.156  -5.477  22.792  0.00  0.00    +0.003 C 
ATOM     11  C   UNL     1       7.331  -4.080  22.204  0.00  0.00    +0.000 C 
ATOM     12  C   UNL     1       5.996  -3.447  21.812  0.00  0.00    +0.000 C 
ATOM     13  C   UNL     1       4.950  -3.516  22.922  0.00  0.00    +0.000 C 
ATOM     14  C   UNL     1       4.805  -4.935  23.462  0.00  0.00    +0.003 C 
ENDBRANCH   8   9
ENDBRANCH   4   8
ENDBRANCH   1   4
BRANCH   1  15
ATOM     15  C   UNL     1       8.339  -2.492  25.414  0.00  0.00    +0.047 C 
BRANCH  15  16
ATOM     16  C   UNL     1       8.996  -1.413  24.539  0.00  0.00    +0.100 C 
BRANCH  16  17
ATOM     17  C   UNL     1       9.649  -0.387  25.458  0.00  0.00    +0.308 C 
ATOM     18  O   UNL     1      10.622   0.271  25.132  0.00  0.00    -0.251 OA
BRANCH  17  19
ATOM     19  O   UNL     1       9.061  -0.258  26.667  0.00  0.00    -0.480 OA
ATOM     20  H   UNL     1       8.580   0.577  26.809  0.00  0.00    +0.295 HD
ENDBRANCH  17  19
ENDBRANCH  16  17
BRANCH  16  21
ATOM     21  C   UNL     1       8.067  -0.728  23.511  0.00  0.00    +0.017 C 
BRANCH  21  22
ATOM     22  C   UNL     1       8.724  -0.479  22.131  0.00  0.00    -0.016 C 
ATOM     23  C   UNL     1       9.955  -1.370  21.932  0.00  0.00    +0.007 C 
ATOM     24  C   UNL     1       9.133   0.983  21.911  0.00  0.00    +0.007 C 
ENDBRANCH  21  22
ENDBRANCH  16  21
ENDBRANCH  15  16
ENDBRANCH   1  15
TORSDOF 11
ENDMDL
MODEL 3
REMARK VINA RESULT:      -5.5      2.959      4.329
REMARK  Name = 
REMARK  13 active torsions:
REMARK  status: ('A' for Active; 'I' for Inactive)
REMARK    1  A    between atoms: C_2  and  N_3
REMARK    2  A    between atoms: C_2  and  C_4
REMARK    3  A    between atoms: C_2  and  C_11
REMARK    4  A    between atoms: C_4  and  C_5
REMARK    5  A    between atoms: C_11  and  O_13
REMARK    6  A    between atoms: C_11  and  C_14
REMARK    7  A    between atoms: C_14  and  C_15
REMARK    8  A    between atoms: C_15  and  C_17
REMARK    9  A    between atoms: C_15  and  C_21
REMARK   10  A    between atoms: C_17  and  C_18
REMARK   11  A    between atoms: C_18  and  C_19
REMARK   12  A    between atoms: C_18  and  C_20
REMARK   13  A    between atoms: C_21  and  O_22
REMARK                            x       y       z     vdW  Elec       q    Type
REMARK                         _______ _______ _______ _____ _____    ______ ____
ROOT
ATOM      1  C   UNL     1       9.807  -1.592  24.165  0.00  0.00    +0.132 C 
ENDROOT
BRANCH   1   2
ATOM      2  O   UNL     1       8.688  -1.126  24.937  0.00  0.00    -0.390 OA
ATOM      3  H   UNL     1       8.749  -1.499  25.833  0.00  0.00    +0.210 HD
ENDBRANCH   1   2
BRANCH   1   4
ATOM      4  C   UNL     1       9.883  -0.839  22.805  0.00  0.00    +0.080 C 
BRANCH   4   5
ATOM      5  N   UNL     1      10.034  -1.764  21.670  0.00  0.00    -0.325 NA
ATOM      6  H   UNL     1       9.819  -2.715  21.972  0.00  0.00    +0.119 HD
ATOM      7  H   UNL     1       9.337  -1.553  20.954  0.00  0.00    +0.119 HD
ENDBRANCH   4   5
BRANCH   4   8
ATOM      8  C   UNL     1       8.622   0.017  22.542  0.00  0.00    +0.024 C 
BRANCH   8   9
ATOM      9  C   UNL     1       8.875   1.295  21.703  0.00  0.00    -0.009 C 
ATOM     10  C   UNL     1      10.190   1.974  22.119  0.00  0.00    +0.003 C 
ATOM     11  C   UNL     1      10.115   2.585  23.515  0.00  0.00    +0.000 C 
ATOM     12  C   UNL     1       8.916   3.522  23.670  0.00  0.00    +0.000 C 
ATOM     13  C   UNL     1       7.603   2.897  23.205  0.00  0.00    +0.000 C 
ATOM     14  C   UNL     1       7.730   2.316  21.801  0.00  0.00    +0.003 C 
ENDBRANCH   8   9
ENDBRANCH   4   8
ENDBRANCH   1   4
BRANCH   1  15
ATOM     15  C   UNL     1       9.634  -3.109  24.066  0.00  0.00    +0.047 C 
BRANCH  15  16
ATOM     16  C   UNL     1       8.529  -3.735  24.932  0.00  0.00    +0.100 C 
BRANCH  16  17
ATOM     17  C   UNL     1       9.180  -4.728  25.889  0.00  0.00    +0.308 C 
ATOM     18  O   UNL     1       8.816  -4.871  27.044  0.00  0.00    -0.251 OA
BRANCH  17  19
ATOM     19  O   UNL     1      10.192  -5.444  25.356  0.00  0.00    -0.480 OA
ATOM     20  H   UNL     1      10.880  -4.920  24.905  0.00  0.00    +0.295 HD
ENDBRANCH  17  19
ENDBRANCH  16  17
BRANCH  16  21
ATOM     21  C   UNL     1       7.364  -4.391  24.157  0.00  0.00    +0.017 C 
BRANCH  21  22
ATOM     22  C   UNL     1       7.401  -4.144  22.629  0.00  0.00    -0.016 C 
ATOM     23  C   UNL     1       6.412  -3.047  22.218  0.00  0.00    +0.007 C 
ATOM     24  C   UNL     1       7.107  -5.405  21.806  0.00  0.00    +0.007 C 
ENDBRANCH  21  22
ENDBRANCH  16  21
ENDBRANCH  15  16
ENDBRANCH   1  15
TORSDOF 11
ENDMDL
MODEL 4
REMARK VINA RESULT:      -5.3      3.010      3.969
REMARK  Name = 
REMARK  13 active torsions:
REMARK  status: ('A' for Active; 'I' for Inactive)
REMARK    1  A    between atoms: C_2  and  N_3
REMARK    2  A    between atoms: C_2  and  C_4
REMARK    3  A    between atoms: C_2  and  C_11
REMARK    4  A    between atoms: C_4  and  C_5
REMARK    5  A    between atoms: C_11  and  O_13
REMARK    6  A    between atoms: C_11  and  C_14
REMARK    7  A    between atoms: C_14  and  C_15
REMARK    8  A    between atoms: C_15  and  C_17
REMARK    9  A    between atoms: C_15  and  C_21
REMARK   10  A    between atoms: C_17  and  C_18
REMARK   11  A    between atoms: C_18  and  C_19
REMARK   12  A    between atoms: C_18  and  C_20
REMARK   13  A    between atoms: C_21  and  O_22
REMARK                            x       y       z     vdW  Elec       q    Type
REMARK                         _______ _______ _______ _____ _____    ______ ____
ROOT
ATOM      1  C   UNL     1       8.807  -2.643  23.276  0.00  0.00    +0.132 C 
ENDROOT
BRANCH   1   2
ATOM      2  O   UNL     1      10.213  -2.717  23.570  0.00  0.00    -0.390 OA
ATOM      3  H   UNL     1      10.701  -2.233  22.883  0.00  0.00    +0.210 HD
ENDBRANCH   1   2
BRANCH   1   4
ATOM      4  C   UNL     1       8.417  -1.202  22.839  0.00  0.00    +0.080 C 
BRANCH   4   5
ATOM      5  N   UNL     1       6.960  -0.992  22.870  0.00  0.00    -0.325 NA
ATOM      6  H   UNL     1       6.724  -0.334  23.614  0.00  0.00    +0.119 HD
ATOM      7  H   UNL     1       6.655  -0.534  22.010  0.00  0.00    +0.119 HD
ENDBRANCH   4   5
BRANCH   4   8
ATOM      8  C   UNL     1       9.060  -0.124  23.741  0.00  0.00    +0.024 C 
BRANCH   8   9
ATOM      9  C   UNL     1      10.026   0.839  23.004  0.00  0.00    -0.009 C 
ATOM     10  C   UNL     1      10.466   1.988  23.926  0.00  0.00    +0.003 C 
ATOM     11  C   UNL     1       9.325   2.950  24.243  0.00  0.00    +0.000 C 
ATOM     12  C   UNL     1       8.637   3.465  22.978  0.00  0.00    +0.000 C 
ATOM     13  C   UNL     1       8.244   2.350  22.012  0.00  0.00    +0.000 C 
ATOM     14  C   UNL     1       9.424   1.429  21.719  0.00  0.00    +0.003 C 
ENDBRANCH   8   9
ENDBRANCH   4   8
ENDBRANCH   1   4
BRANCH   1  15
ATOM     15  C   UNL     1       8.100  -3.164  24.529  0.00  0.00    +0.047 C 
BRANCH  15  16
ATOM     16  C   UNL     1       7.834  -4.676  24.594  0.00  0.00    +0.100 C 
BRANCH  16  17
ATOM     17  C   UNL     1       8.918  -5.314  25.454  0.00  0.00    +0.308 C 
ATOM     18  O   UNL     1      10.103  -5.267  25.170  0.00  0.00    -0.251 OA
BRANCH  17  19
ATOM     19  O   UNL     1       8.465  -5.936  26.563  0.00  0.00    -0.480 OA
ATOM     20  H   UNL     1       8.378  -5.370  27.352  0.00  0.00    +0.295 HD
ENDBRANCH  17  19
ENDBRANCH  16  17
BRANCH  16  21
ATOM     21  C   UNL     1       7.711  -5.393  23.230  0.00  0.00    +0.017 C 
BRANCH  21  22
ATOM     22  C   UNL     1       6.305  -5.298  22.589  0.00  0.00    -0.016 C 
ATOM     23  C   UNL     1       5.283  -6.138  23.363  0.00  0.00    +0.007 C 
ATOM     24  C   UNL     1       6.281  -5.728  21.116  0.00  0.00    +0.007 C 
ENDBRANCH  21  22
ENDBRANCH  16  21
ENDBRANCH  15  16
ENDBRANCH   1  15
TORSDOF 11
ENDMDL
MODEL 5
REMARK VINA RESULT:      -5.3      2.223      3.321
REMARK  Name = 
REMARK  13 active torsions:
REMARK  status: ('A' for Active; 'I' for Inactive)
REMARK    1  A    between atoms: C_2  and  N_3
REMARK    2  A    between atoms: C_2  and  C_4
REMARK    3  A    between atoms: C_2  and  C_11
REMARK    4  A    between atoms: C_4  and  C_5
REMARK    5  A    between atoms: C_11  and  O_13
REMARK    6  A    between atoms: C_11  and  C_14
REMARK    7  A    between atoms: C_14  and  C_15
REMARK    8  A    between atoms: C_15  and  C_17
REMARK    9  A    between atoms: C_15  and  C_21
REMARK   10  A    between atoms: C_17  and  C_18
REMARK   11  A    between atoms: C_18  and  C_19
REMARK   12  A    between atoms: C_18  and  C_20
REMARK   13  A    between atoms: C_21  and  O_22
REMARK                            x       y       z     vdW  Elec       q    Type
REMARK                         _______ _______ _______ _____ _____    ______ ____
ROOT
ATOM      1  C   UNL     1       8.585  -2.592  25.626  0.00  0.00    +0.132 C 
ENDROOT
BRANCH   1   2
ATOM      2  O   UNL     1       8.237  -1.703  26.702  0.00  0.00    -0.390 OA
ATOM      3  H   UNL     1       8.348  -0.786  26.397  0.00  0.00    +0.210 HD
ENDBRANCH   1   2
BRANCH   1   4
ATOM      4  C   UNL     1       9.322  -1.818  24.496  0.00  0.00    +0.080 C 
BRANCH   4   5
ATOM      5  N   UNL     1      10.220  -2.692  23.723  0.00  0.00    -0.325 NA
ATOM      6  H   UNL     1      10.580  -3.432  24.327  0.00  0.00    +0.119 HD
ATOM      7  H   UNL     1       9.692  -3.180  22.999  0.00  0.00    +0.119 HD
ENDBRANCH   4   5
BRANCH   4   8
ATOM      8  C   UNL     1       8.337  -1.166  23.497  0.00  0.00    +0.024 C 
BRANCH   8   9
ATOM      9  C   UNL     1       8.037   0.330  23.773  0.00  0.00    -0.009 C 
ATOM     10  C   UNL     1       7.613   1.051  22.484  0.00  0.00    +0.003 C 
ATOM     11  C   UNL     1       8.762   1.191  21.489  0.00  0.00    +0.000 C 
ATOM     12  C   UNL     1       9.998   1.833  22.121  0.00  0.00    +0.000 C 
ATOM     13  C   UNL     1      10.406   1.177  23.438  0.00  0.00    +0.000 C 
ATOM     14  C   UNL     1       9.226   1.077  24.398  0.00  0.00    +0.003 C 
ENDBRANCH   8   9
ENDBRANCH   4   8
ENDBRANCH   1   4
BRANCH   1  15
ATOM     15  C   UNL     1       7.276  -3.268  25.214  0.00  0.00    +0.047 C 
BRANCH  15  16
ATOM     16  C   UNL     1       7.376  -4.709  24.690  0.00  0.00    +0.100 C 
BRANCH  16  17
ATOM     17  C   UNL     1       8.537  -5.394  25.401  0.00  0.00    +0.308 C 
ATOM     18  O   UNL     1       9.644  -5.512  24.903  0.00  0.00    -0.251 OA
BRANCH  17  19
ATOM     19  O   UNL     1       8.247  -5.860  26.635  0.00  0.00    -0.480 OA
ATOM     20  H   UNL     1       7.458  -6.430  26.690  0.00  0.00    +0.295 HD
ENDBRANCH  17  19
ENDBRANCH  16  17
BRANCH  16  21
ATOM     21  C   UNL     1       7.497  -4.856  23.157  0.00  0.00    +0.017 C 
BRANCH  21  22
ATOM     22  C   UNL     1       6.144  -4.800  22.406  0.00  0.00    -0.016 C 
ATOM     23  C   UNL     1       6.109  -5.803  21.248  0.00  0.00    +0.007 C 
ATOM     24  C   UNL     1       5.812  -3.405  21.860  0.00  0.00    +0.007 C 
ENDBRANCH  21  22
ENDBRANCH  16  21
ENDBRANCH  15  16
ENDBRANCH   1  15
TORSDOF 11
ENDMDL
MODEL 6
REMARK VINA RESULT:      -5.3      3.285      4.454
REMARK  Name = 
REMARK  13 active torsions:
REMARK  status: ('A' for Active; 'I' for Inactive)
REMARK    1  A    between atoms: C_2  and  N_3
REMARK    2  A    between atoms: C_2  and  C_4
REMARK    3  A    between atoms: C_2  and  C_11
REMARK    4  A    between atoms: C_4  and  C_5
REMARK    5  A    between atoms: C_11  and  O_13
REMARK    6  A    between atoms: C_11  and  C_14
REMARK    7  A    between atoms: C_14  and  C_15
REMARK    8  A    between atoms: C_15  and  C_17
REMARK    9  A    between atoms: C_15  and  C_21
REMARK   10  A    between atoms: C_17  and  C_18
REMARK   11  A    between atoms: C_18  and  C_19
REMARK   12  A    between atoms: C_18  and  C_20
REMARK   13  A    between atoms: C_21  and  O_22
REMARK                            x       y       z     vdW  Elec       q    Type
REMARK                         _______ _______ _______ _____ _____    ______ ____
ROOT
ATOM      1  C   UNL     1       9.345  -2.517  23.675  0.00  0.00    +0.132 C 
ENDROOT
BRANCH   1   2
ATOM      2  O   UNL     1       9.176  -2.022  25.014  0.00  0.00    -0.390 OA
ATOM      3  H   UNL     1       8.351  -1.508  25.056  0.00  0.00    +0.210 HD
ENDBRANCH   1   2
BRANCH   1   4
ATOM      4  C   UNL     1      10.351  -1.628  22.889  0.00  0.00    +0.080 C 
BRANCH   4   5
ATOM      5  N   UNL     1      10.045  -1.589  21.450  0.00  0.00    -0.325 NA
ATOM      6  H   UNL     1      10.297  -2.480  21.021  0.00  0.00    +0.119 HD
ATOM      7  H   UNL     1       9.037  -1.509  21.310  0.00  0.00    +0.119 HD
ENDBRANCH   4   5
BRANCH   4   8
ATOM      8  C   UNL     1      10.364  -0.169  23.401  0.00  0.00    +0.024 C 
BRANCH   8   9
ATOM      9  C   UNL     1       9.421   0.791  22.632  0.00  0.00    -0.009 C 
ATOM     10  C   UNL     1      10.169   2.058  22.188  0.00  0.00    +0.003 C 
ATOM     11  C   UNL     1      10.553   2.951  23.365  0.00  0.00    +0.000 C 
ATOM     12  C   UNL     1       9.354   3.280  24.255  0.00  0.00    +0.000 C 
ATOM     13  C   UNL     1       8.552   2.045  24.661  0.00  0.00    +0.000 C 
ATOM     14  C   UNL     1       8.183   1.199  23.447  0.00  0.00    +0.003 C 
ENDBRANCH   8   9
ENDBRANCH   4   8
ENDBRANCH   1   4
BRANCH   1  15
ATOM     15  C   UNL     1       7.935  -2.592  23.086  0.00  0.00    +0.047 C 
BRANCH  15  16
ATOM     16  C   UNL     1       7.518  -3.932  22.460  0.00  0.00    +0.100 C 
BRANCH  16  17
ATOM     17  C   UNL     1       6.149  -3.751  21.815  0.00  0.00    +0.308 C 
ATOM     18  O   UNL     1       5.650  -4.580  21.073  0.00  0.00    -0.251 OA
BRANCH  17  19
ATOM     19  O   UNL     1       5.525  -2.596  22.132  0.00  0.00    -0.480 OA
ATOM     20  H   UNL     1       5.836  -1.808  21.650  0.00  0.00    +0.295 HD
ENDBRANCH  17  19
ENDBRANCH  16  17
BRANCH  16  21
ATOM     21  C   UNL     1       7.527  -5.147  23.414  0.00  0.00    +0.017 C 
BRANCH  21  22
ATOM     22  C   UNL     1       6.771  -4.913  24.745  0.00  0.00    -0.016 C 
ATOM     23  C   UNL     1       7.658  -5.236  25.953  0.00  0.00    +0.007 C 
ATOM     24  C   UNL     1       5.474  -5.726  24.856  0.00  0.00    +0.007 C 
ENDBRANCH  21  22
ENDBRANCH  16  21
ENDBRANCH  15  16
ENDBRANCH   1  15
TORSDOF 11
ENDMDL
MODEL 7
REMARK VINA RESULT:      -5.3      3.063      4.821
REMARK  Name = 
REMARK  13 active torsions:
REMARK  status: ('A' for Active; 'I' for Inactive)
REMARK    1  A    between atoms: C_2  and  N_3
REMARK    2  A    between atoms: C_2  and  C_4
REMARK    3  A    between atoms: C_2  and  C_11
REMARK    4  A    between atoms: C_4  and  C_5
REMARK    5  A    between atoms: C_11  and  O_13
REMARK    6  A    between atoms: C_11  and  C_14
REMARK    7  A    between atoms: C_14  and  C_15
REMARK    8  A    between atoms: C_15  and  C_17
REMARK    9  A    between atoms: C_15  and  C_21
REMARK   10  A    between atoms: C_17  and  C_18
REMARK   11  A    between atoms: C_18  and  C_19
REMARK   12  A    between atoms: C_18  and  C_20
REMARK   13  A    between atoms: C_21  and  O_22
REMARK                            x       y       z     vdW  Elec       q    Type
REMARK                         _______ _______ _______ _____ _____    ______ ____
ROOT
ATOM      1  C   UNL     1       8.852  -2.351  23.461  0.00  0.00    +0.132 C 
ENDROOT
BRANCH   1   2
ATOM      2  O   UNL     1       8.091  -2.855  22.350  0.00  0.00    -0.390 OA
ATOM      3  H   UNL     1       8.561  -2.642  21.527  0.00  0.00    +0.210 HD
ENDBRANCH   1   2
BRANCH   1   4
ATOM      4  C   UNL     1      10.111  -1.589  22.958  0.00  0.00    +0.080 C 
BRANCH   4   5
ATOM      5  N   UNL     1      10.165  -1.522  21.488  0.00  0.00    -0.325 NA
ATOM      6  H   UNL     1       9.218  -1.567  21.108  0.00  0.00    +0.119 HD
ATOM      7  H   UNL     1      10.521  -0.612  21.193  0.00  0.00    +0.119 HD
ENDBRANCH   4   5
BRANCH   4   8
ATOM      8  C   UNL     1      10.168  -0.138  23.490  0.00  0.00    +0.024 C 
BRANCH   8   9
ATOM      9  C   UNL     1       9.289   0.870  22.706  0.00  0.00    -0.009 C 
ATOM     10  C   UNL     1      10.127   2.057  22.207  0.00  0.00    +0.003 C 
ATOM     11  C   UNL     1      10.605   2.954  23.346  0.00  0.00    +0.000 C 
ATOM     12  C   UNL     1       9.455   3.407  24.245  0.00  0.00    +0.000 C 
ATOM     13  C   UNL     1       8.565   2.255  24.706  0.00  0.00    +0.000 C 
ATOM     14  C   UNL     1       8.104   1.402  23.529  0.00  0.00    +0.003 C 
ENDBRANCH   8   9
ENDBRANCH   4   8
ENDBRANCH   1   4
BRANCH   1  15
ATOM     15  C   UNL     1       9.130  -3.564  24.351  0.00  0.00    +0.047 C 
BRANCH  15  16
ATOM     16  C   UNL     1       8.696  -3.457  25.821  0.00  0.00    +0.100 C 
BRANCH  16  17
ATOM     17  C   UNL     1       8.807  -4.839  26.452  0.00  0.00    +0.308 C 
ATOM     18  O   UNL     1       8.022  -5.252  27.289  0.00  0.00    -0.251 OA
BRANCH  17  19
ATOM     19  O   UNL     1       9.845  -5.580  26.008  0.00  0.00    -0.480 OA
ATOM     20  H   UNL     1      10.318  -5.214  25.239  0.00  0.00    +0.295 HD
ENDBRANCH  17  19
ENDBRANCH  16  17
BRANCH  16  21
ATOM     21  C   UNL     1       7.297  -2.845  26.062  0.00  0.00    +0.017 C 
BRANCH  21  22
ATOM     22  C   UNL     1       7.321  -1.478  26.789  0.00  0.00    -0.016 C 
ATOM     23  C   UNL     1       6.349  -0.485  26.140  0.00  0.00    +0.007 C 
ATOM     24  C   UNL     1       8.716  -0.842  26.837  0.00  0.00    +0.007 C 
ENDBRANCH  21  22
ENDBRANCH  16  21
ENDBRANCH  15  16
ENDBRANCH   1  15
TORSDOF 11
ENDMDL
MODEL 8
REMARK VINA RESULT:      -5.3      2.166      3.010
REMARK  Name = 
REMARK  13 active torsions:
REMARK  status: ('A' for Active; 'I' for Inactive)
REMARK    1  A    between atoms: C_2  and  N_3
REMARK    2  A    between atoms: C_2  and  C_4
REMARK    3  A    between atoms: C_2  and  C_11
REMARK    4  A    between atoms: C_4  and  C_5
REMARK    5  A    between atoms: C_11  and  O_13
REMARK    6  A    between atoms: C_11  and  C_14
REMARK    7  A    between atoms: C_14  and  C_15
REMARK    8  A    between atoms: C_15  and  C_17
REMARK    9  A    between atoms: C_15  and  C_21
REMARK   10  A    between atoms: C_17  and  C_18
REMARK   11  A    between atoms: C_18  and  C_19
REMARK   12  A    between atoms: C_18  and  C_20
REMARK   13  A    between atoms: C_21  and  O_22
REMARK                            x       y       z     vdW  Elec       q    Type
REMARK                         _______ _______ _______ _____ _____    ______ ____
ROOT
ATOM      1  C   UNL     1       7.147  -2.033  26.583  0.00  0.00    +0.132 C 
ENDROOT
BRANCH   1   2
ATOM      2  O   UNL     1       5.992  -2.155  25.734  0.00  0.00    -0.390 OA
ATOM      3  H   UNL     1       5.583  -3.024  25.886  0.00  0.00    +0.210 HD
ENDBRANCH   1   2
BRANCH   1   4
ATOM      4  C   UNL     1       7.847  -0.662  26.357  0.00  0.00    +0.080 C 
BRANCH   4   5
ATOM      5  N   UNL     1       9.097  -0.548  27.126  0.00  0.00    -0.325 NA
ATOM      6  H   UNL     1       9.883  -0.851  26.549  0.00  0.00    +0.119 HD
ATOM      7  H   UNL     1       9.290   0.433  27.333  0.00  0.00    +0.119 HD
ENDBRANCH   4   5
BRANCH   4   8
ATOM      8  C   UNL     1       8.193  -0.421  24.870  0.00  0.00    +0.024 C 
BRANCH   8   9
ATOM      9  C   UNL     1       9.695  -0.586  24.523  0.00  0.00    -0.009 C 
ATOM     10  C   UNL     1      10.244   0.678  23.843  0.00  0.00    +0.003 C 
ATOM     11  C   UNL     1       9.672   0.883  22.444  0.00  0.00    +0.000 C 
ATOM     12  C   UNL     1       9.840  -0.356  21.564  0.00  0.00    +0.000 C 
ATOM     13  C   UNL     1       9.361  -1.640  22.238  0.00  0.00    +0.000 C 
ATOM     14  C   UNL     1       9.975  -1.802  23.625  0.00  0.00    +0.003 C 
ENDBRANCH   8   9
ENDBRANCH   4   8
ENDBRANCH   1   4
BRANCH   1  15
ATOM     15  C   UNL     1       8.004  -3.265  26.285  0.00  0.00    +0.047 C 
BRANCH  15  16
ATOM     16  C   UNL     1       7.328  -4.407  25.511  0.00  0.00    +0.100 C 
BRANCH  16  17
ATOM     17  C   UNL     1       7.164  -5.591  26.456  0.00  0.00    +0.308 C 
ATOM     18  O   UNL     1       6.155  -6.275  26.494  0.00  0.00    -0.251 OA
BRANCH  17  19
ATOM     19  O   UNL     1       8.229  -5.830  27.252  0.00  0.00    -0.480 OA
ATOM     20  H   UNL     1       8.334  -6.755  27.540  0.00  0.00    +0.295 HD
ENDBRANCH  17  19
ENDBRANCH  16  17
BRANCH  16  21
ATOM     21  C   UNL     1       8.029  -4.833  24.201  0.00  0.00    +0.017 C 
BRANCH  21  22
ATOM     22  C   UNL     1       7.161  -4.654  22.931  0.00  0.00    -0.016 C 
ATOM     23  C   UNL     1       5.688  -4.428  23.291  0.00  0.00    +0.007 C 
ATOM     24  C   UNL     1       7.254  -5.841  21.963  0.00  0.00    +0.007 C 
ENDBRANCH  21  22
ENDBRANCH  16  21
ENDBRANCH  15  16
ENDBRANCH   1  15
TORSDOF 11
ENDMDL
MODEL 9
REMARK VINA RESULT:      -5.2      2.534      3.458
REMARK  Name = 
REMARK  13 active torsions:
REMARK  status: ('A' for Active; 'I' for Inactive)
REMARK    1  A    between atoms: C_2  and  N_3
REMARK    2  A    between atoms: C_2  and  C_4
REMARK    3  A    between atoms: C_2  and  C_11
REMARK    4  A    between atoms: C_4  and  C_5
REMARK    5  A    between atoms: C_11  and  O_13
REMARK    6  A    between atoms: C_11  and  C_14
REMARK    7  A    between atoms: C_14  and  C_15
REMARK    8  A    between atoms: C_15  and  C_17
REMARK    9  A    between atoms: C_15  and  C_21
REMARK   10  A    between atoms: C_17  and  C_18
REMARK   11  A    between atoms: C_18  and  C_19
REMARK   12  A    between atoms: C_18  and  C_20
REMARK   13  A    between atoms: C_21  and  O_22
REMARK                            x       y       z     vdW  Elec       q    Type
REMARK                         _______ _______ _______ _____ _____    ______ ____
ROOT
ATOM      1  C   UNL     1       7.160  -2.441  25.386  0.00  0.00    +0.132 C 
ENDROOT
BRANCH   1   2
ATOM      2  O   UNL     1       7.039  -2.051  26.765  0.00  0.00    -0.390 OA
ATOM      3  H   UNL     1       7.797  -1.488  26.998  0.00  0.00    +0.210 HD
ENDBRANCH   1   2
BRANCH   1   4
ATOM      4  C   UNL     1       6.395  -1.444  24.469  0.00  0.00    +0.080 C 
BRANCH   4   5
ATOM      5  N   UNL     1       5.322  -0.742  25.192  0.00  0.00    -0.325 NA
ATOM      6  H   UNL     1       5.290   0.234  24.895  0.00  0.00    +0.119 HD
ATOM      7  H   UNL     1       4.414  -1.125  24.926  0.00  0.00    +0.119 HD
ENDBRANCH   4   5
BRANCH   4   8
ATOM      8  C   UNL     1       7.330  -0.369  23.868  0.00  0.00    +0.024 C 
BRANCH   8   9
ATOM      9  C   UNL     1       8.780  -0.850  23.608  0.00  0.00    -0.009 C 
ATOM     10  C   UNL     1       9.797   0.071  24.302  0.00  0.00    +0.003 C 
ATOM     11  C   UNL     1       9.860   1.456  23.665  0.00  0.00    +0.000 C 
ATOM     12  C   UNL     1      10.092   1.386  22.155  0.00  0.00    +0.000 C 
ATOM     13  C   UNL     1       9.137   0.429  21.445  0.00  0.00    +0.000 C 
ATOM     14  C   UNL     1       9.125  -0.942  22.113  0.00  0.00    +0.003 C 
ENDBRANCH   8   9
ENDBRANCH   4   8
ENDBRANCH   1   4
BRANCH   1  15
ATOM     15  C   UNL     1       6.677  -3.891  25.327  0.00  0.00    +0.047 C 
BRANCH  15  16
ATOM     16  C   UNL     1       7.536  -4.874  24.515  0.00  0.00    +0.100 C 
BRANCH  16  17
ATOM     17  C   UNL     1       8.747  -5.256  25.358  0.00  0.00    +0.308 C 
ATOM     18  O   UNL     1       9.894  -5.047  25.002  0.00  0.00    -0.251 OA
BRANCH  17  19
ATOM     19  O   UNL     1       8.451  -5.843  26.537  0.00  0.00    -0.480 OA
ATOM     20  H   UNL     1       9.211  -5.996  27.128  0.00  0.00    +0.295 HD
ENDBRANCH  17  19
ENDBRANCH  16  17
BRANCH  16  21
ATOM     21  C   UNL     1       7.964  -4.386  23.113  0.00  0.00    +0.017 C 
BRANCH  21  22
ATOM     22  C   UNL     1       7.008  -4.817  21.973  0.00  0.00    -0.016 C 
ATOM     23  C   UNL     1       5.980  -3.723  21.665  0.00  0.00    +0.007 C 
ATOM     24  C   UNL     1       6.262  -6.124  22.271  0.00  0.00    +0.007 C 
ENDBRANCH  21  22
ENDBRANCH  16  21
ENDBRANCH  15  16
ENDBRANCH   1  15
TORSDOF 11
ENDMDL
