MODEL 1
REMARK VINA RESULT:      -7.9      0.000      0.000
REMARK  Name = 
REMARK  4 active torsions:
REMARK  status: ('A' for Active; 'I' for Inactive)
REMARK    1  A    between atoms: C_2  and  C_24
REMARK    2  A    between atoms: C_7  and  S_10
REMARK    3  A    between atoms: S_10  and  N_13
REMARK    4  A    between atoms: N_16  and  C_17
REMARK                            x       y       z     vdW  Elec       q    Type
REMARK                         _______ _______ _______ _____ _____    ______ ____
ROOT
ATOM      1  C   UNL     1       8.865   3.825  23.994  0.00  0.00    +0.084 C 
ATOM      2  N   UNL     1       8.412   3.361  22.670  0.00  0.00    -0.186 NA
ATOM      3  H   UNL     1       7.418   3.422  22.446  0.00  0.00    +0.148 HD
ATOM      4  S   UNL     1       9.103   1.935  22.130  0.00  0.00    +0.059 S 
ATOM      5  O   UNL     1      10.526   2.143  21.980  0.00  0.00    -0.153 OA
ATOM      6  O   UNL     1       8.264   1.452  21.059  0.00  0.00    -0.153 OA
ATOM      7  C   UNL     1       8.887   0.869  23.528  0.00  0.00    +0.110 A 
ATOM      8  C   UNL     1       9.009  -0.508  23.304  0.00  0.00    +0.057 A 
ATOM      9  C   UNL     1       8.812  -1.390  24.364  0.00  0.00    +0.107 A 
ATOM     10  C   UNL     1       8.494  -0.902  25.637  0.00  0.00    +0.029 A 
ATOM     11  C   UNL     1       8.367   0.477  25.847  0.00  0.00    +0.007 A 
ATOM     12  C   UNL     1       8.552   1.388  24.793  0.00  0.00    -0.019 A 
ATOM     13  C   UNL     1       8.283   2.861  25.050  0.00  0.00    +0.057 C 
ENDROOT
BRANCH   1  14
ATOM     14  C   UNL     1       8.403   5.293  24.168  0.00  0.00    +0.008 C 
ATOM     15  C   UNL     1       8.499   5.811  25.611  0.00  0.00    +0.005 C 
ATOM     16  C   UNL     1       9.871   6.476  25.748  0.00  0.00    +0.000 C 
ATOM     17  C   UNL     1      10.487   6.488  24.355  0.00  0.00    +0.000 C 
ATOM     18  C   UNL     1       9.308   6.285  23.417  0.00  0.00    +0.005 C 
ENDBRANCH   1  14
BRANCH   9  19
ATOM     19  S   UNL     1       8.751  -3.143  24.043  0.00  0.00    +0.061 S 
ATOM     20  O   UNL     1      10.095  -3.657  24.208  0.00  0.00    -0.153 OA
ATOM     21  O   UNL     1       8.033  -3.319  22.797  0.00  0.00    -0.153 OA
BRANCH  19  22
ATOM     22  N   UNL     1       7.801  -3.733  25.282  0.00  0.00    -0.174 NA
ATOM     23  C   UNL     1       8.405  -4.183  26.546  0.00  0.00    +0.125 C 
ATOM     24  C   UNL     1       7.895  -5.581  26.923  0.00  0.00    +0.101 C 
ATOM     25  N   UNL     1       6.426  -5.692  26.996  0.00  0.00    -0.303 NA
ATOM     26  C   UNL     1       5.879  -4.918  28.111  0.00  0.00    +0.105 C 
ATOM     27  C   UNL     1       5.849  -5.271  25.702  0.00  0.00    +0.101 C 
ATOM     28  C   UNL     1       6.344  -3.921  25.130  0.00  0.00    +0.125 C 
ENDBRANCH  19  22
ENDBRANCH   9  19
TORSDOF 3
ENDMDL
MODEL 2
REMARK VINA RESULT:      -7.9      2.228      2.938
REMARK  Name = 
REMARK  4 active torsions:
REMARK  status: ('A' for Active; 'I' for Inactive)
REMARK    1  A    between atoms: C_2  and  C_24
REMARK    2  A    between atoms: C_7  and  S_10
REMARK    3  A    between atoms: S_10  and  N_13
REMARK    4  A    between atoms: N_16  and  C_17
REMARK                            x       y       z     vdW  Elec       q    Type
REMARK                         _______ _______ _______ _____ _____    ______ ____
ROOT
ATOM      1  C   UNL     1       7.280   3.660  23.194  0.00  0.00    +0.084 C 
ATOM      2  N   UNL     1       8.294   3.240  22.210  0.00  0.00    -0.186 NA
ATOM      3  H   UNL     1       7.993   3.036  21.257  0.00  0.00    +0.148 HD
ATOM      4  S   UNL     1       9.432   2.146  22.770  0.00  0.00    +0.059 S 
ATOM      5  O   UNL     1      10.188   2.773  23.831  0.00  0.00    -0.153 OA
ATOM      6  O   UNL     1      10.053   1.568  21.602  0.00  0.00    -0.153 OA
ATOM      7  C   UNL     1       8.414   0.911  23.527  0.00  0.00    +0.110 A 
ATOM      8  C   UNL     1       9.002  -0.336  23.771  0.00  0.00    +0.057 A 
ATOM      9  C   UNL     1       8.232  -1.354  24.332  0.00  0.00    +0.107 A 
ATOM     10  C   UNL     1       6.886  -1.127  24.645  0.00  0.00    +0.029 A 
ATOM     11  C   UNL     1       6.308   0.122  24.390  0.00  0.00    +0.007 A 
ATOM     12  C   UNL     1       7.059   1.163  23.817  0.00  0.00    -0.019 A 
ATOM     13  C   UNL     1       6.350   2.455  23.450  0.00  0.00    +0.057 C 
ENDROOT
BRANCH   1  14
ATOM     14  C   UNL     1       6.550   4.902  22.625  0.00  0.00    +0.008 C 
ATOM     15  C   UNL     1       5.818   5.737  23.686  0.00  0.00    +0.005 C 
ATOM     16  C   UNL     1       6.798   6.819  24.146  0.00  0.00    +0.000 C 
ATOM     17  C   UNL     1       8.018   6.711  23.239  0.00  0.00    +0.000 C 
ATOM     18  C   UNL     1       7.524   5.933  22.030  0.00  0.00    +0.005 C 
ENDBRANCH   1  14
BRANCH   9  19
ATOM     19  S   UNL     1       8.907  -3.001  24.444  0.00  0.00    +0.061 S 
ATOM     20  O   UNL     1       8.647  -3.480  25.787  0.00  0.00    -0.153 OA
ATOM     21  O   UNL     1      10.256  -2.940  23.922  0.00  0.00    -0.153 OA
BRANCH  19  22
ATOM     22  N   UNL     1       7.972  -3.878  23.377  0.00  0.00    -0.174 NA
ATOM     23  C   UNL     1       7.569  -3.308  22.083  0.00  0.00    +0.125 C 
ATOM     24  C   UNL     1       6.056  -3.460  21.869  0.00  0.00    +0.101 C 
ATOM     25  N   UNL     1       5.564  -4.846  21.987  0.00  0.00    -0.303 NA
ATOM     26  C   UNL     1       6.056  -5.691  20.898  0.00  0.00    +0.105 C 
ATOM     27  C   UNL     1       5.949  -5.381  23.311  0.00  0.00    +0.101 C 
ATOM     28  C   UNL     1       7.431  -5.210  23.721  0.00  0.00    +0.125 C 
ENDBRANCH  19  22
ENDBRANCH   9  19
TORSDOF 3
ENDMDL
MODEL 3
REMARK VINA RESULT:      -7.8      3.797      5.633
REMARK  Name = 
REMARK  4 active torsions:
REMARK  status: ('A' for Active; 'I' for Inactive)
REMARK    1  A    between atoms: C_2  and  C_24
REMARK    2  A    between atoms: C_7  and  S_10
REMARK    3  A    between atoms: S_10  and  N_13
REMARK    4  A    between atoms: N_16  and  C_17
REMARK                            x       y       z     vdW  Elec       q    Type
REMARK                         _______ _______ _______ _____ _____    ______ ____
ROOT
ATOM      1  C   UNL     1       9.234  -1.622  23.601  0.00  0.00    +0.084 C 
ATOM      2  N   UNL     1       9.815  -2.951  23.866  0.00  0.00    -0.186 NA
ATOM      3  H   UNL     1      10.250  -3.455  23.093  0.00  0.00    +0.148 HD
ATOM      4  S   UNL     1       8.906  -3.952  24.853  0.00  0.00    +0.059 S 
ATOM      5  O   UNL     1       8.795  -3.333  26.156  0.00  0.00    -0.153 OA
ATOM      6  O   UNL     1       9.416  -5.289  24.662  0.00  0.00    -0.153 OA
ATOM      7  C   UNL     1       7.306  -3.854  24.102  0.00  0.00    +0.110 A 
ATOM      8  C   UNL     1       6.383  -4.853  24.437  0.00  0.00    +0.057 A 
ATOM      9  C   UNL     1       5.122  -4.842  23.844  0.00  0.00    +0.107 A 
ATOM     10  C   UNL     1       4.786  -3.842  22.924  0.00  0.00    +0.029 A 
ATOM     11  C   UNL     1       5.718  -2.853  22.591  0.00  0.00    +0.007 A 
ATOM     12  C   UNL     1       7.001  -2.846  23.168  0.00  0.00    -0.019 A 
ATOM     13  C   UNL     1       8.012  -1.822  22.680  0.00  0.00    +0.057 C 
ENDROOT
BRANCH   1  14
ATOM     14  C   UNL     1      10.341  -0.732  22.983  0.00  0.00    +0.008 C 
ATOM     15  C   UNL     1       9.876   0.094  21.774  0.00  0.00    +0.005 C 
ATOM     16  C   UNL     1       9.422   1.451  22.319  0.00  0.00    +0.000 C 
ATOM     17  C   UNL     1       9.778   1.463  23.800  0.00  0.00    +0.000 C 
ATOM     18  C   UNL     1      10.819   0.365  23.949  0.00  0.00    +0.005 C 
ENDBRANCH   1  14
BRANCH   9  19
ATOM     19  S   UNL     1       4.024  -6.224  24.097  0.00  0.00    +0.061 S 
ATOM     20  O   UNL     1       4.838  -7.422  24.114  0.00  0.00    -0.153 OA
ATOM     21  O   UNL     1       2.936  -6.075  23.153  0.00  0.00    -0.153 OA
BRANCH  19  22
ATOM     22  N   UNL     1       3.424  -5.969  25.632  0.00  0.00    -0.174 NA
ATOM     23  C   UNL     1       2.359  -4.982  25.871  0.00  0.00    +0.125 C 
ATOM     24  C   UNL     1       2.741  -4.038  27.020  0.00  0.00    +0.101 C 
ATOM     25  N   UNL     1       3.086  -4.725  28.279  0.00  0.00    -0.303 NA
ATOM     26  C   UNL     1       1.923  -5.384  28.874  0.00  0.00    +0.105 C 
ATOM     27  C   UNL     1       4.183  -5.682  28.018  0.00  0.00    +0.101 C 
ATOM     28  C   UNL     1       3.995  -6.640  26.819  0.00  0.00    +0.125 C 
ENDBRANCH  19  22
ENDBRANCH   9  19
TORSDOF 3
ENDMDL
MODEL 4
REMARK VINA RESULT:      -7.7      3.139      8.789
REMARK  Name = 
REMARK  4 active torsions:
REMARK  status: ('A' for Active; 'I' for Inactive)
REMARK    1  A    between atoms: C_2  and  C_24
REMARK    2  A    between atoms: C_7  and  S_10
REMARK    3  A    between atoms: S_10  and  N_13
REMARK    4  A    between atoms: N_16  and  C_17
REMARK                            x       y       z     vdW  Elec       q    Type
REMARK                         _______ _______ _______ _____ _____    ______ ____
ROOT
ATOM      1  C   UNL     1       3.912  -5.533  23.094  0.00  0.00    +0.084 C 
ATOM      2  N   UNL     1       5.132  -6.326  22.855  0.00  0.00    -0.186 NA
ATOM      3  H   UNL     1       5.513  -6.876  23.625  0.00  0.00    +0.148 HD
ATOM      4  S   UNL     1       6.324  -5.565  21.959  0.00  0.00    +0.059 S 
ATOM      5  O   UNL     1       5.800  -5.289  20.640  0.00  0.00    -0.153 OA
ATOM      6  O   UNL     1       7.541  -6.309  22.180  0.00  0.00    -0.153 OA
ATOM      7  C   UNL     1       6.467  -4.006  22.789  0.00  0.00    +0.110 A 
ATOM      8  C   UNL     1       7.627  -3.260  22.544  0.00  0.00    +0.057 A 
ATOM      9  C   UNL     1       7.805  -2.044  23.200  0.00  0.00    +0.107 A 
ATOM     10  C   UNL     1       6.833  -1.577  24.094  0.00  0.00    +0.029 A 
ATOM     11  C   UNL     1       5.681  -2.336  24.336  0.00  0.00    +0.007 A 
ATOM     12  C   UNL     1       5.481  -3.570  23.694  0.00  0.00    -0.019 A 
ATOM     13  C   UNL     1       4.274  -4.407  24.085  0.00  0.00    +0.057 C 
ENDROOT
BRANCH   1  14
ATOM     14  C   UNL     1       2.814  -6.493  23.615  0.00  0.00    +0.008 C 
ATOM     15  C   UNL     1       1.995  -5.928  24.786  0.00  0.00    +0.005 C 
ATOM     16  C   UNL     1       0.771  -5.241  24.175  0.00  0.00    +0.000 C 
ATOM     17  C   UNL     1       0.800  -5.553  22.684  0.00  0.00    +0.000 C 
ATOM     18  C   UNL     1       1.720  -6.757  22.566  0.00  0.00    +0.005 C 
ENDBRANCH   1  14
BRANCH   9  19
ATOM     19  S   UNL     1       9.367  -1.195  23.064  0.00  0.00    +0.061 S 
ATOM     20  O   UNL     1       9.936  -1.547  21.779  0.00  0.00    -0.153 OA
ATOM     21  O   UNL     1      10.091  -1.445  24.293  0.00  0.00    -0.153 OA
BRANCH  19  22
ATOM     22  N   UNL     1       8.934   0.415  23.029  0.00  0.00    -0.174 NA
ATOM     23  C   UNL     1       9.111   1.269  24.214  0.00  0.00    +0.125 C 
ATOM     24  C   UNL     1       7.816   2.030  24.533  0.00  0.00    +0.101 C 
ATOM     25  N   UNL     1       7.289   2.827  23.409  0.00  0.00    -0.303 NA
ATOM     26  C   UNL     1       8.166   3.952  23.084  0.00  0.00    +0.105 C 
ATOM     27  C   UNL     1       7.085   1.938  22.245  0.00  0.00    +0.101 C 
ATOM     28  C   UNL     1       8.271   1.023  21.857  0.00  0.00    +0.125 C 
ENDBRANCH  19  22
ENDBRANCH   9  19
TORSDOF 3
ENDMDL
MODEL 5
REMARK VINA RESULT:      -7.6      2.484      8.831
REMARK  Name = 
REMARK  4 active torsions:
REMARK  status: ('A' for Active; 'I' for Inactive)
REMARK    1  A    between atoms: C_2  and  C_24
REMARK    2  A    between atoms: C_7  and  S_10
REMARK    3  A    between atoms: S_10  and  N_13
REMARK    4  A    between atoms: N_16  and  C_17
REMARK                            x       y       z     vdW  Elec       q    Type
REMARK                         _______ _______ _______ _____ _____    ______ ____
ROOT
ATOM      1  C   UNL     1       5.037  -5.881  24.945  0.00  0.00    +0.084 C 
ATOM      2  N   UNL     1       5.434  -6.326  23.597  0.00  0.00    -0.186 NA
ATOM      3  H   UNL     1       6.100  -7.095  23.515  0.00  0.00    +0.148 HD
ATOM      4  S   UNL     1       5.728  -5.104  22.491  0.00  0.00    +0.059 S 
ATOM      5  O   UNL     1       4.502  -4.366  22.287  0.00  0.00    -0.153 OA
ATOM      6  O   UNL     1       6.472  -5.701  21.408  0.00  0.00    -0.153 OA
ATOM      7  C   UNL     1       6.819  -4.043  23.396  0.00  0.00    +0.110 A 
ATOM      8  C   UNL     1       7.565  -3.116  22.657  0.00  0.00    +0.057 A 
ATOM      9  C   UNL     1       8.465  -2.284  23.319  0.00  0.00    +0.107 A 
ATOM     10  C   UNL     1       8.620  -2.377  24.707  0.00  0.00    +0.029 A 
ATOM     11  C   UNL     1       7.875  -3.312  25.435  0.00  0.00    +0.007 A 
ATOM     12  C   UNL     1       6.966  -4.170  24.791  0.00  0.00    -0.019 A 
ATOM     13  C   UNL     1       6.276  -5.247  25.612  0.00  0.00    +0.057 C 
ENDROOT
BRANCH   1  14
ATOM     14  C   UNL     1       4.479  -7.109  25.707  0.00  0.00    +0.008 C 
ATOM     15  C   UNL     1       4.558  -6.983  27.236  0.00  0.00    +0.005 C 
ATOM     16  C   UNL     1       3.224  -6.390  27.697  0.00  0.00    +0.000 C 
ATOM     17  C   UNL     1       2.328  -6.332  26.466  0.00  0.00    +0.000 C 
ATOM     18  C   UNL     1       2.969  -7.300  25.485  0.00  0.00    +0.005 C 
ENDBRANCH   1  14
BRANCH   9  19
ATOM     19  S   UNL     1       9.570  -1.257  22.367  0.00  0.00    +0.061 S 
ATOM     20  O   UNL     1       9.032  -1.177  21.024  0.00  0.00    -0.153 OA
ATOM     21  O   UNL     1      10.911  -1.749  22.605  0.00  0.00    -0.153 OA
BRANCH  19  22
ATOM     22  N   UNL     1       9.426   0.241  23.086  0.00  0.00    -0.174 NA
ATOM     23  C   UNL     1       8.231   1.071  22.869  0.00  0.00    +0.125 C 
ATOM     24  C   UNL     1       8.627   2.494  22.452  0.00  0.00    +0.101 C 
ATOM     25  N   UNL     1       9.546   3.167  23.388  0.00  0.00    -0.303 NA
ATOM     26  C   UNL     1       8.901   3.453  24.670  0.00  0.00    +0.105 C 
ATOM     27  C   UNL     1      10.754   2.331  23.559  0.00  0.00    +0.101 C 
ATOM     28  C   UNL     1      10.520   0.836  23.882  0.00  0.00    +0.125 C 
ENDBRANCH  19  22
ENDBRANCH   9  19
TORSDOF 3
ENDMDL
MODEL 6
REMARK VINA RESULT:      -7.4      2.542      3.409
REMARK  Name = 
REMARK  4 active torsions:
REMARK  status: ('A' for Active; 'I' for Inactive)
REMARK    1  A    between atoms: C_2  and  C_24
REMARK    2  A    between atoms: C_7  and  S_10
REMARK    3  A    between atoms: S_10  and  N_13
REMARK    4  A    between atoms: N_16  and  C_17
REMARK                            x       y       z     vdW  Elec       q    Type
REMARK                         _______ _______ _______ _____ _____    ______ ____
ROOT
ATOM      1  C   UNL     1       8.298   2.487  24.872  0.00  0.00    +0.084 C 
ATOM      2  N   UNL     1       7.956   2.117  26.257  0.00  0.00    -0.186 NA
ATOM      3  H   UNL     1       8.646   2.283  26.990  0.00  0.00    +0.148 HD
ATOM      4  S   UNL     1       7.170   0.649  26.438  0.00  0.00    +0.059 S 
ATOM      5  O   UNL     1       5.899   0.722  25.752  0.00  0.00    -0.153 OA
ATOM      6  O   UNL     1       7.289   0.290  27.831  0.00  0.00    -0.153 OA
ATOM      7  C   UNL     1       8.200  -0.438  25.493  0.00  0.00    +0.110 A 
ATOM      8  C   UNL     1       8.057  -1.812  25.727  0.00  0.00    +0.057 A 
ATOM      9  C   UNL     1       8.870  -2.707  25.035  0.00  0.00    +0.107 A 
ATOM     10  C   UNL     1       9.818  -2.235  24.119  0.00  0.00    +0.029 A 
ATOM     11  C   UNL     1       9.957  -0.860  23.900  0.00  0.00    +0.007 A 
ATOM     12  C   UNL     1       9.155   0.066  24.591  0.00  0.00    -0.019 A 
ATOM     13  C   UNL     1       9.431   1.549  24.404  0.00  0.00    +0.057 C 
ENDROOT
BRANCH   1  14
ATOM     14  C   UNL     1       8.687   3.986  24.862  0.00  0.00    +0.008 C 
ATOM     15  C   UNL     1       8.843   4.582  23.454  0.00  0.00    +0.005 C 
ATOM     16  C   UNL     1       7.484   5.176  23.076  0.00  0.00    +0.000 C 
ATOM     17  C   UNL     1       6.606   5.072  24.317  0.00  0.00    +0.000 C 
ATOM     18  C   UNL     1       7.588   4.881  25.461  0.00  0.00    +0.005 C 
ENDBRANCH   1  14
BRANCH   9  19
ATOM     19  S   UNL     1       8.848  -4.434  25.481  0.00  0.00    +0.061 S 
ATOM     20  O   UNL     1       8.822  -4.503  26.928  0.00  0.00    -0.153 OA
ATOM     21  O   UNL     1       9.899  -5.079  24.722  0.00  0.00    -0.153 OA
BRANCH  19  22
ATOM     22  N   UNL     1       7.379  -4.968  24.898  0.00  0.00    -0.174 NA
ATOM     23  C   UNL     1       7.094  -4.963  23.455  0.00  0.00    +0.125 C 
ATOM     24  C   UNL     1       5.749  -4.279  23.170  0.00  0.00    +0.101 C 
ATOM     25  N   UNL     1       4.609  -4.851  23.909  0.00  0.00    -0.303 NA
ATOM     26  C   UNL     1       4.297  -6.208  23.460  0.00  0.00    +0.105 C 
ATOM     27  C   UNL     1       4.905  -4.808  25.357  0.00  0.00    +0.101 C 
ATOM     28  C   UNL     1       6.278  -5.370  25.798  0.00  0.00    +0.125 C 
ENDBRANCH  19  22
ENDBRANCH   9  19
TORSDOF 3
ENDMDL
MODEL 7
REMARK VINA RESULT:      -7.3      2.157      8.378
REMARK  Name = 
REMARK  4 active torsions:
REMARK  status: ('A' for Active; 'I' for Inactive)
REMARK    1  A    between atoms: C_2  and  C_24
REMARK    2  A    between atoms: C_7  and  S_10
REMARK    3  A    between atoms: S_10  and  N_13
REMARK    4  A    between atoms: N_16  and  C_17
REMARK                            x       y       z     vdW  Elec       q    Type
REMARK                         _______ _______ _______ _____ _____    ______ ____
ROOT
ATOM      1  C   UNL     1       6.463  -5.129  26.509  0.00  0.00    +0.084 C 
ATOM      2  N   UNL     1       7.810  -5.628  26.175  0.00  0.00    -0.186 NA
ATOM      3  H   UNL     1       8.476  -5.776  26.933  0.00  0.00    +0.148 HD
ATOM      4  S   UNL     1       8.519  -4.938  24.824  0.00  0.00    +0.059 S 
ATOM      5  O   UNL     1       7.711  -5.257  23.668  0.00  0.00    -0.153 OA
ATOM      6  O   UNL     1       9.929  -5.239  24.902  0.00  0.00    -0.153 OA
ATOM      7  C   UNL     1       8.303  -3.209  25.138  0.00  0.00    +0.110 A 
ATOM      8  C   UNL     1       9.102  -2.324  24.403  0.00  0.00    +0.057 A 
ATOM      9  C   UNL     1       8.995  -0.954  24.639  0.00  0.00    +0.107 A 
ATOM     10  C   UNL     1       8.099  -0.473  25.602  0.00  0.00    +0.029 A 
ATOM     11  C   UNL     1       7.311  -1.368  26.335  0.00  0.00    +0.007 A 
ATOM     12  C   UNL     1       7.405  -2.755  26.123  0.00  0.00    -0.019 A 
ATOM     13  C   UNL     1       6.617  -3.684  27.030  0.00  0.00    +0.057 C 
ENDROOT
BRANCH   1  14
ATOM     14  C   UNL     1       5.839  -6.101  27.541  0.00  0.00    +0.008 C 
ATOM     15  C   UNL     1       5.315  -5.411  28.810  0.00  0.00    +0.005 C 
ATOM     16  C   UNL     1       3.837  -5.101  28.563  0.00  0.00    +0.000 C 
ATOM     17  C   UNL     1       3.474  -5.753  27.235  0.00  0.00    +0.000 C 
ATOM     18  C   UNL     1       4.568  -6.784  27.008  0.00  0.00    +0.005 C 
ENDBRANCH   1  14
BRANCH   9  19
ATOM     19  S   UNL     1      10.156   0.159  23.869  0.00  0.00    +0.061 S 
ATOM     20  O   UNL     1      10.688  -0.514  22.702  0.00  0.00    -0.153 OA
ATOM     21  O   UNL     1      11.033   0.643  24.916  0.00  0.00    -0.153 OA
BRANCH  19  22
ATOM     22  N   UNL     1       9.200   1.428  23.360  0.00  0.00    -0.174 NA
ATOM     23  C   UNL     1       9.229   2.722  24.059  0.00  0.00    +0.125 C 
ATOM     24  C   UNL     1       7.806   3.187  24.401  0.00  0.00    +0.101 C 
ATOM     25  N   UNL     1       6.897   3.258  23.243  0.00  0.00    -0.303 NA
ATOM     26  C   UNL     1       7.286   4.316  22.311  0.00  0.00    +0.105 C 
ATOM     27  C   UNL     1       6.856   1.935  22.583  0.00  0.00    +0.101 C 
ATOM     28  C   UNL     1       8.221   1.280  22.263  0.00  0.00    +0.125 C 
ENDBRANCH  19  22
ENDBRANCH   9  19
TORSDOF 3
ENDMDL
MODEL 8
REMARK VINA RESULT:      -7.2      1.866      2.464
REMARK  Name = 
REMARK  4 active torsions:
REMARK  status: ('A' for Active; 'I' for Inactive)
REMARK    1  A    between atoms: C_2  and  C_24
REMARK    2  A    between atoms: C_7  and  S_10
REMARK    3  A    between atoms: S_10  and  N_13
REMARK    4  A    between atoms: N_16  and  C_17
REMARK                            x       y       z     vdW  Elec       q    Type
REMARK                         _______ _______ _______ _____ _____    ______ ____
ROOT
ATOM      1  C   UNL     1       8.407   3.277  24.173  0.00  0.00    +0.084 C 
ATOM      2  N   UNL     1       7.006   3.074  24.584  0.00  0.00    -0.186 NA
ATOM      3  H   UNL     1       6.796   2.994  25.579  0.00  0.00    +0.148 HD
ATOM      4  S   UNL     1       6.133   1.987  23.656  0.00  0.00    +0.059 S 
ATOM      5  O   UNL     1       6.050   2.499  22.306  0.00  0.00    -0.153 OA
ATOM      6  O   UNL     1       4.969   1.629  24.431  0.00  0.00    -0.153 OA
ATOM      7  C   UNL     1       7.220   0.590  23.608  0.00  0.00    +0.110 A 
ATOM      8  C   UNL     1       6.660  -0.639  23.235  0.00  0.00    +0.057 A 
ATOM      9  C   UNL     1       7.465  -1.776  23.216  0.00  0.00    +0.107 A 
ATOM     10  C   UNL     1       8.818  -1.687  23.569  0.00  0.00    +0.029 A 
ATOM     11  C   UNL     1       9.364  -0.455  23.947  0.00  0.00    +0.007 A 
ATOM     12  C   UNL     1       8.572   0.706  23.983  0.00  0.00    -0.019 A 
ATOM     13  C   UNL     1       9.185   1.990  24.517  0.00  0.00    +0.057 C 
ENDROOT
BRANCH   1  14
ATOM     14  C   UNL     1       8.938   4.539  24.899  0.00  0.00    +0.008 C 
ATOM     15  C   UNL     1      10.049   5.277  24.137  0.00  0.00    +0.005 C 
ATOM     16  C   UNL     1       9.361   6.347  23.286  0.00  0.00    +0.000 C 
ATOM     17  C   UNL     1       7.890   6.334  23.681  0.00  0.00    +0.000 C 
ATOM     18  C   UNL     1       7.865   5.634  25.030  0.00  0.00    +0.005 C 
ENDBRANCH   1  14
BRANCH   9  19
ATOM     19  S   UNL     1       6.718  -3.374  22.955  0.00  0.00    +0.061 S 
ATOM     20  O   UNL     1       7.609  -4.130  22.099  0.00  0.00    -0.153 OA
ATOM     21  O   UNL     1       5.340  -3.137  22.574  0.00  0.00    -0.153 OA
BRANCH  19  22
ATOM     22  N   UNL     1       6.729  -4.062  24.474  0.00  0.00    -0.174 NA
ATOM     23  C   UNL     1       5.826  -3.577  25.529  0.00  0.00    +0.125 C 
ATOM     24  C   UNL     1       6.604  -3.291  26.821  0.00  0.00    +0.101 C 
ATOM     25  N   UNL     1       7.395  -4.433  27.318  0.00  0.00    -0.303 NA
ATOM     26  C   UNL     1       6.539  -5.526  27.780  0.00  0.00    +0.105 C 
ATOM     27  C   UNL     1       8.320  -4.875  26.253  0.00  0.00    +0.101 C 
ATOM     28  C   UNL     1       7.703  -5.107  24.853  0.00  0.00    +0.125 C 
ENDBRANCH  19  22
ENDBRANCH   9  19
TORSDOF 3
ENDMDL
MODEL 9
REMARK VINA RESULT:      -7.2      2.272      8.495
REMARK  Name = 
REMARK  4 active torsions:
REMARK  status: ('A' for Active; 'I' for Inactive)
REMARK    1  A    between atoms: C_2  and  C_24
REMARK    2  A    between atoms: C_7  and  S_10
REMARK    3  A    between atoms: S_10  and  N_13
REMARK    4  A    between atoms: N_16  and  C_17
REMARK                            x       y       z     vdW  Elec       q    Type
REMARK                         _______ _______ _______ _____ _____    ______ ____
ROOT
ATOM      1  C   UNL     1       5.458  -5.300  24.945  0.00  0.00    +0.084 C 
ATOM      2  N   UNL     1       6.016  -5.696  23.639  0.00  0.00    -0.186 NA
ATOM      3  H   UNL     1       6.784  -6.366  23.622  0.00  0.00    +0.148 HD
ATOM      4  S   UNL     1       6.226  -4.452  22.538  0.00  0.00    +0.059 S 
ATOM      5  O   UNL     1       4.930  -3.890  22.228  0.00  0.00    -0.153 OA
ATOM      6  O   UNL     1       7.126  -4.949  21.525  0.00  0.00    -0.153 OA
ATOM      7  C   UNL     1       7.089  -3.246  23.505  0.00  0.00    +0.110 A 
ATOM      8  C   UNL     1       7.756  -2.231  22.809  0.00  0.00    +0.057 A 
ATOM      9  C   UNL     1       8.480  -1.278  23.523  0.00  0.00    +0.107 A 
ATOM     10  C   UNL     1       8.538  -1.339  24.920  0.00  0.00    +0.029 A 
ATOM     11  C   UNL     1       7.873  -2.363  25.605  0.00  0.00    +0.007 A 
ATOM     12  C   UNL     1       7.142  -3.342  24.909  0.00  0.00    -0.019 A 
ATOM     13  C   UNL     1       6.543  -4.497  25.693  0.00  0.00    +0.057 C 
ENDROOT
BRANCH   1  14
ATOM     14  C   UNL     1       5.015  -6.587  25.684  0.00  0.00    +0.008 C 
ATOM     15  C   UNL     1       4.554  -6.350  27.130  0.00  0.00    +0.005 C 
ATOM     16  C   UNL     1       3.038  -6.143  27.079  0.00  0.00    +0.000 C 
ATOM     17  C   UNL     1       2.611  -6.423  25.644  0.00  0.00    +0.000 C 
ATOM     18  C   UNL     1       3.762  -7.222  25.055  0.00  0.00    +0.005 C 
ENDBRANCH   1  14
BRANCH   9  19
ATOM     19  S   UNL     1       9.506  -0.116  22.640  0.00  0.00    +0.061 S 
ATOM     20  O   UNL     1       9.357  -0.398  21.227  0.00  0.00    -0.153 OA
ATOM     21  O   UNL     1      10.809  -0.141  23.272  0.00  0.00    -0.153 OA
BRANCH  19  22
ATOM     22  N   UNL     1       8.794   1.357  22.965  0.00  0.00    -0.174 NA
ATOM     23  C   UNL     1       9.333   2.241  24.011  0.00  0.00    +0.125 C 
ATOM     24  C   UNL     1       8.219   2.697  24.963  0.00  0.00    +0.101 C 
ATOM     25  N   UNL     1       7.076   3.345  24.293  0.00  0.00    -0.303 NA
ATOM     26  C   UNL     1       7.449   4.634  23.709  0.00  0.00    +0.105 C 
ATOM     27  C   UNL     1       6.530   2.422  23.275  0.00  0.00    +0.101 C 
ATOM     28  C   UNL     1       7.550   1.790  22.297  0.00  0.00    +0.125 C 
ENDBRANCH  19  22
ENDBRANCH   9  19
TORSDOF 3
ENDMDL
