MODEL 1
REMARK VINA RESULT:      -4.5      0.000      0.000
REMARK  Name = 
REMARK  10 active torsions:
REMARK  status: ('A' for Active; 'I' for Inactive)
REMARK    1  A    between atoms: O_1  and  C_2
REMARK    2  A    between atoms: C_2  and  C_3
REMARK    3  A    between atoms: C_3  and  O_5
REMARK    4  A    between atoms: C_3  and  C_6
REMARK    5  A    between atoms: C_6  and  O_8
REMARK    6  A    between atoms: C_6  and  C_9
REMARK    7  A    between atoms: C_9  and  C_10
REMARK    8  A    between atoms: C_10  and  O_12
REMARK    9  A    between atoms: C_10  and  C_13
REMARK   10  A    between atoms: C_13  and  O_14
REMARK                            x       y       z     vdW  Elec       q    Type
REMARK                         _______ _______ _______ _____ _____    ______ ____
ROOT
ATOM      1  C   UNL     1       9.911   3.460  23.324  0.00  0.00    +0.148 C 
ENDROOT
BRANCH   1   2
ATOM      2  O   UNL     1       9.253   3.807  24.551  0.00  0.00    -0.389 OA
ATOM      3  H   UNL     1       8.814   4.664  24.405  0.00  0.00    +0.210 HD
ENDBRANCH   1   2
BRANCH   1   4
ATOM      4  C   UNL     1       9.458   2.056  22.874  0.00  0.00    +0.168 C 
BRANCH   4   5
ATOM      5  O   UNL     1       9.751   1.915  21.468  0.00  0.00    -0.387 OA
ATOM      6  H   UNL     1       9.231   2.596  21.008  0.00  0.00    +0.210 HD
ENDBRANCH   4   5
BRANCH   4   7
ATOM      7  C   UNL     1      10.137   0.906  23.632  0.00  0.00    +0.189 C 
BRANCH   7   8
ATOM      8  O   UNL     1       9.850   0.968  25.029  0.00  0.00    -0.392 OA
ATOM      9  H   UNL     1      10.679   0.748  25.490  0.00  0.00    +0.210 HD
ENDBRANCH   7   8
ENDBRANCH   4   7
ENDBRANCH   1   4
BRANCH   1  10
ATOM     10  C   UNL     1      11.417   3.655  23.549  0.00  0.00    +0.076 C 
BRANCH  10  11
ATOM     11  C   UNL     1      11.940   5.093  23.465  0.00  0.00    +0.225 C 
BRANCH  11  12
ATOM     12  C   UNL     1      13.226   5.286  22.645  0.00  0.00    +0.334 C 
ATOM     13  O   UNL     1      13.201   5.749  21.514  0.00  0.00    -0.248 OA
BRANCH  12  14
ATOM     14  O   UNL     1      14.379   5.029  23.301  0.00  0.00    -0.479 OA
ATOM     15  H   UNL     1      15.050   4.558  22.775  0.00  0.00    +0.295 HD
ENDBRANCH  12  14
ENDBRANCH  11  12
BRANCH  11  16
ATOM     16  O   UNL     1      10.900   5.946  22.977  0.00  0.00    -0.381 OA
ATOM     17  H   UNL     1      11.311   6.489  22.271  0.00  0.00    +0.211 HD
ENDBRANCH  11  16
ENDBRANCH  10  11
ENDBRANCH   1  10
TORSDOF 10
ENDMDL
MODEL 2
REMARK VINA RESULT:      -4.5      3.593      5.938
REMARK  Name = 
REMARK  10 active torsions:
REMARK  status: ('A' for Active; 'I' for Inactive)
REMARK    1  A    between atoms: O_1  and  C_2
REMARK    2  A    between atoms: C_2  and  C_3
REMARK    3  A    between atoms: C_3  and  O_5
REMARK    4  A    between atoms: C_3  and  C_6
REMARK    5  A    between atoms: C_6  and  O_8
REMARK    6  A    between atoms: C_6  and  C_9
REMARK    7  A    between atoms: C_9  and  C_10
REMARK    8  A    between atoms: C_10  and  O_12
REMARK    9  A    between atoms: C_10  and  C_13
REMARK   10  A    between atoms: C_13  and  O_14
REMARK                            x       y       z     vdW  Elec       q    Type
REMARK                         _______ _______ _______ _____ _____    ______ ____
ROOT
ATOM      1  C   UNL     1       9.493   1.066  21.774  0.00  0.00    +0.148 C 
ENDROOT
BRANCH   1   2
ATOM      2  O   UNL     1      10.303   2.224  21.526  0.00  0.00    -0.389 OA
ATOM      3  H   UNL     1      11.221   1.914  21.432  0.00  0.00    +0.210 HD
ENDBRANCH   1   2
BRANCH   1   4
ATOM      4  C   UNL     1       8.025   1.494  21.971  0.00  0.00    +0.168 C 
BRANCH   4   5
ATOM      5  O   UNL     1       7.314   0.403  22.591  0.00  0.00    -0.387 OA
ATOM      6  H   UNL     1       7.961  -0.312  22.718  0.00  0.00    +0.210 HD
ENDBRANCH   4   5
BRANCH   4   7
ATOM      7  C   UNL     1       7.848   2.748  22.839  0.00  0.00    +0.189 C 
BRANCH   7   8
ATOM      8  O   UNL     1       8.062   3.937  22.078  0.00  0.00    -0.392 OA
ATOM      9  H   UNL     1       8.975   4.221  22.262  0.00  0.00    +0.210 HD
ENDBRANCH   7   8
ENDBRANCH   4   7
ENDBRANCH   1   4
BRANCH   1  10
ATOM     10  C   UNL     1      10.144   0.301  22.935  0.00  0.00    +0.076 C 
BRANCH  10  11
ATOM     11  C   UNL     1      10.397  -1.195  22.711  0.00  0.00    +0.225 C 
BRANCH  11  12
ATOM     12  C   UNL     1       9.667  -2.143  23.675  0.00  0.00    +0.334 C 
ATOM     13  O   UNL     1      10.143  -3.223  23.994  0.00  0.00    -0.248 OA
BRANCH  12  14
ATOM     14  O   UNL     1       8.541  -1.649  24.236  0.00  0.00    -0.479 OA
ATOM     15  H   UNL     1       7.892  -1.296  23.600  0.00  0.00    +0.295 HD
ENDBRANCH  12  14
ENDBRANCH  11  12
BRANCH  11  16
ATOM     16  O   UNL     1      10.094  -1.527  21.353  0.00  0.00    -0.381 OA
ATOM     17  H   UNL     1       9.380  -2.199  21.397  0.00  0.00    +0.211 HD
ENDBRANCH  11  16
ENDBRANCH  10  11
ENDBRANCH   1  10
TORSDOF 10
ENDMDL
MODEL 3
REMARK VINA RESULT:      -4.3      3.728      5.456
REMARK  Name = 
REMARK  10 active torsions:
REMARK  status: ('A' for Active; 'I' for Inactive)
REMARK    1  A    between atoms: O_1  and  C_2
REMARK    2  A    between atoms: C_2  and  C_3
REMARK    3  A    between atoms: C_3  and  O_5
REMARK    4  A    between atoms: C_3  and  C_6
REMARK    5  A    between atoms: C_6  and  O_8
REMARK    6  A    between atoms: C_6  and  C_9
REMARK    7  A    between atoms: C_9  and  C_10
REMARK    8  A    between atoms: C_10  and  O_12
REMARK    9  A    between atoms: C_10  and  C_13
REMARK   10  A    between atoms: C_13  and  O_14
REMARK                            x       y       z     vdW  Elec       q    Type
REMARK                         _______ _______ _______ _____ _____    ______ ____
ROOT
ATOM      1  C   UNL     1      10.310  -1.285  22.767  0.00  0.00    +0.148 C 
ENDROOT
BRANCH   1   2
ATOM      2  O   UNL     1      10.009  -1.567  21.392  0.00  0.00    -0.389 OA
ATOM      3  H   UNL     1      10.597  -2.294  21.117  0.00  0.00    +0.210 HD
ENDBRANCH   1   2
BRANCH   1   4
ATOM      4  C   UNL     1       9.401  -2.135  23.679  0.00  0.00    +0.168 C 
BRANCH   4   5
ATOM      5  O   UNL     1       8.683  -1.245  24.559  0.00  0.00    -0.387 OA
ATOM      6  H   UNL     1       7.785  -1.606  24.644  0.00  0.00    +0.210 HD
ENDBRANCH   4   5
BRANCH   4   7
ATOM      7  C   UNL     1       8.382  -2.997  22.920  0.00  0.00    +0.189 C 
BRANCH   7   8
ATOM      8  O   UNL     1       7.325  -2.197  22.386  0.00  0.00    -0.392 OA
ATOM      9  H   UNL     1       6.754  -2.800  21.878  0.00  0.00    +0.210 HD
ENDBRANCH   7   8
ENDBRANCH   4   7
ENDBRANCH   1   4
BRANCH   1  10
ATOM     10  C   UNL     1      10.225   0.238  22.944  0.00  0.00    +0.076 C 
BRANCH  10  11
ATOM     11  C   UNL     1       9.522   1.016  21.826  0.00  0.00    +0.225 C 
BRANCH  11  12
ATOM     12  C   UNL     1       8.045   1.358  22.083  0.00  0.00    +0.334 C 
ATOM     13  O   UNL     1       7.288   0.562  22.621  0.00  0.00    -0.248 OA
BRANCH  12  14
ATOM     14  O   UNL     1       7.682   2.626  21.794  0.00  0.00    -0.479 OA
ATOM     15  H   UNL     1       7.962   3.289  22.451  0.00  0.00    +0.295 HD
ENDBRANCH  12  14
ENDBRANCH  11  12
BRANCH  11  16
ATOM     16  O   UNL     1      10.269   2.201  21.533  0.00  0.00    -0.381 OA
ATOM     17  H   UNL     1      11.075   1.896  21.063  0.00  0.00    +0.211 HD
ENDBRANCH  11  16
ENDBRANCH  10  11
ENDBRANCH   1  10
TORSDOF 10
ENDMDL
MODEL 4
REMARK VINA RESULT:      -4.3      2.922      5.403
REMARK  Name = 
REMARK  10 active torsions:
REMARK  status: ('A' for Active; 'I' for Inactive)
REMARK    1  A    between atoms: O_1  and  C_2
REMARK    2  A    between atoms: C_2  and  C_3
REMARK    3  A    between atoms: C_3  and  O_5
REMARK    4  A    between atoms: C_3  and  C_6
REMARK    5  A    between atoms: C_6  and  O_8
REMARK    6  A    between atoms: C_6  and  C_9
REMARK    7  A    between atoms: C_9  and  C_10
REMARK    8  A    between atoms: C_10  and  O_12
REMARK    9  A    between atoms: C_10  and  C_13
REMARK   10  A    between atoms: C_13  and  O_14
REMARK                            x       y       z     vdW  Elec       q    Type
REMARK                         _______ _______ _______ _____ _____    ______ ____
ROOT
ATOM      1  C   UNL     1       9.859   1.972  23.999  0.00  0.00    +0.148 C 
ENDROOT
BRANCH   1   2
ATOM      2  O   UNL     1       8.694   1.825  24.825  0.00  0.00    -0.389 OA
ATOM      3  H   UNL     1       8.369   0.915  24.697  0.00  0.00    +0.210 HD
ENDBRANCH   1   2
BRANCH   1   4
ATOM      4  C   UNL     1       9.454   2.575  22.638  0.00  0.00    +0.168 C 
BRANCH   4   5
ATOM      5  O   UNL     1      10.612   2.570  21.778  0.00  0.00    -0.387 OA
ATOM      6  H   UNL     1      11.211   3.257  22.117  0.00  0.00    +0.210 HD
ENDBRANCH   4   5
BRANCH   4   7
ATOM      7  C   UNL     1       8.318   1.822  21.931  0.00  0.00    +0.189 C 
BRANCH   7   8
ATOM      8  O   UNL     1       8.823   0.990  20.886  0.00  0.00    -0.392 OA
ATOM      9  H   UNL     1       8.327   0.153  20.938  0.00  0.00    +0.210 HD
ENDBRANCH   7   8
ENDBRANCH   4   7
ENDBRANCH   1   4
BRANCH   1  10
ATOM     10  C   UNL     1      10.560   0.607  23.961  0.00  0.00    +0.076 C 
BRANCH  10  11
ATOM     11  C   UNL     1       9.651  -0.628  23.983  0.00  0.00    +0.225 C 
BRANCH  11  12
ATOM     12  C   UNL     1      10.138  -1.825  23.149  0.00  0.00    +0.334 C 
ATOM     13  O   UNL     1      10.275  -2.935  23.642  0.00  0.00    -0.248 OA
BRANCH  12  14
ATOM     14  O   UNL     1      10.277  -1.593  21.825  0.00  0.00    -0.479 OA
ATOM     15  H   UNL     1       9.740  -0.856  21.483  0.00  0.00    +0.295 HD
ENDBRANCH  12  14
ENDBRANCH  11  12
BRANCH  11  16
ATOM     16  O   UNL     1       9.420  -1.020  25.339  0.00  0.00    -0.381 OA
ATOM     17  H   UNL     1      10.150  -1.636  25.565  0.00  0.00    +0.211 HD
ENDBRANCH  11  16
ENDBRANCH  10  11
ENDBRANCH   1  10
TORSDOF 10
ENDMDL
MODEL 5
REMARK VINA RESULT:      -4.3      4.761      7.014
REMARK  Name = 
REMARK  10 active torsions:
REMARK  status: ('A' for Active; 'I' for Inactive)
REMARK    1  A    between atoms: O_1  and  C_2
REMARK    2  A    between atoms: C_2  and  C_3
REMARK    3  A    between atoms: C_3  and  O_5
REMARK    4  A    between atoms: C_3  and  C_6
REMARK    5  A    between atoms: C_6  and  O_8
REMARK    6  A    between atoms: C_6  and  C_9
REMARK    7  A    between atoms: C_9  and  C_10
REMARK    8  A    between atoms: C_10  and  O_12
REMARK    9  A    between atoms: C_10  and  C_13
REMARK   10  A    between atoms: C_13  and  O_14
REMARK                            x       y       z     vdW  Elec       q    Type
REMARK                         _______ _______ _______ _____ _____    ______ ____
ROOT
ATOM      1  C   UNL     1       8.884  -3.046  24.054  0.00  0.00    +0.148 C 
ENDROOT
BRANCH   1   2
ATOM      2  O   UNL     1      10.308  -3.107  23.883  0.00  0.00    -0.389 OA
ATOM      3  H   UNL     1      10.473  -3.259  22.935  0.00  0.00    +0.210 HD
ENDBRANCH   1   2
BRANCH   1   4
ATOM      4  C   UNL     1       8.375  -4.384  24.629  0.00  0.00    +0.168 C 
BRANCH   4   5
ATOM      5  O   UNL     1       8.403  -5.369  23.576  0.00  0.00    -0.387 OA
ATOM      6  H   UNL     1       7.846  -5.022  22.858  0.00  0.00    +0.210 HD
ENDBRANCH   4   5
BRANCH   4   7
ATOM      7  C   UNL     1       9.199  -4.911  25.812  0.00  0.00    +0.189 C 
BRANCH   7   8
ATOM      8  O   UNL     1      10.363  -5.606  25.362  0.00  0.00    -0.392 OA
ATOM      9  H   UNL     1      10.839  -5.893  26.162  0.00  0.00    +0.210 HD
ENDBRANCH   7   8
ENDBRANCH   4   7
ENDBRANCH   1   4
BRANCH   1  10
ATOM     10  C   UNL     1       8.287  -2.608  22.709  0.00  0.00    +0.076 C 
BRANCH  10  11
ATOM     11  C   UNL     1       8.865  -1.329  22.090  0.00  0.00    +0.225 C 
BRANCH  11  12
ATOM     12  C   UNL     1       9.059  -0.152  23.060  0.00  0.00    +0.334 C 
ATOM     13  O   UNL     1       8.111   0.497  23.476  0.00  0.00    -0.248 OA
BRANCH  12  14
ATOM     14  O   UNL     1      10.320   0.028  23.512  0.00  0.00    -0.479 OA
ATOM     15  H   UNL     1      10.637  -0.665  24.119  0.00  0.00    +0.295 HD
ENDBRANCH  12  14
ENDBRANCH  11  12
BRANCH  11  16
ATOM     16  O   UNL     1      10.092  -1.640  21.424  0.00  0.00    -0.381 OA
ATOM     17  H   UNL     1      10.595  -2.210  22.045  0.00  0.00    +0.211 HD
ENDBRANCH  11  16
ENDBRANCH  10  11
ENDBRANCH   1  10
TORSDOF 10
ENDMDL
MODEL 6
REMARK VINA RESULT:      -4.2      2.807      5.327
REMARK  Name = 
REMARK  10 active torsions:
REMARK  status: ('A' for Active; 'I' for Inactive)
REMARK    1  A    between atoms: O_1  and  C_2
REMARK    2  A    between atoms: C_2  and  C_3
REMARK    3  A    between atoms: C_3  and  O_5
REMARK    4  A    between atoms: C_3  and  C_6
REMARK    5  A    between atoms: C_6  and  O_8
REMARK    6  A    between atoms: C_6  and  C_9
REMARK    7  A    between atoms: C_9  and  C_10
REMARK    8  A    between atoms: C_10  and  O_12
REMARK    9  A    between atoms: C_10  and  C_13
REMARK   10  A    between atoms: C_13  and  O_14
REMARK                            x       y       z     vdW  Elec       q    Type
REMARK                         _______ _______ _______ _____ _____    ______ ____
ROOT
ATOM      1  C   UNL     1       8.783   1.809  21.950  0.00  0.00    +0.148 C 
ENDROOT
BRANCH   1   2
ATOM      2  O   UNL     1      10.095   2.041  21.416  0.00  0.00    -0.389 OA
ATOM      3  H   UNL     1      10.650   2.353  22.153  0.00  0.00    +0.210 HD
ENDBRANCH   1   2
BRANCH   1   4
ATOM      4  C   UNL     1       8.588   2.655  23.225  0.00  0.00    +0.168 C 
BRANCH   4   5
ATOM      5  O   UNL     1       8.084   1.793  24.267  0.00  0.00    -0.387 OA
ATOM      6  H   UNL     1       7.471   2.331  24.797  0.00  0.00    +0.210 HD
ENDBRANCH   4   5
BRANCH   4   7
ATOM      7  C   UNL     1       9.869   3.333  23.730  0.00  0.00    +0.189 C 
BRANCH   7   8
ATOM      8  O   UNL     1      10.899   2.373  23.975  0.00  0.00    -0.392 OA
ATOM      9  H   UNL     1      10.875   1.748  23.228  0.00  0.00    +0.210 HD
ENDBRANCH   7   8
ENDBRANCH   4   7
ENDBRANCH   1   4
BRANCH   1  10
ATOM     10  C   UNL     1       8.622   0.290  22.105  0.00  0.00    +0.076 C 
BRANCH  10  11
ATOM     11  C   UNL     1       9.905  -0.511  22.353  0.00  0.00    +0.225 C 
BRANCH  11  12
ATOM     12  C   UNL     1      10.027  -1.155  23.744  0.00  0.00    +0.334 C 
ATOM     13  O   UNL     1      10.073  -2.368  23.886  0.00  0.00    -0.248 OA
BRANCH  12  14
ATOM     14  O   UNL     1      10.205  -0.294  24.770  0.00  0.00    -0.479 OA
ATOM     15  H   UNL     1       9.515   0.390  24.851  0.00  0.00    +0.295 HD
ENDBRANCH  12  14
ENDBRANCH  11  12
BRANCH  11  16
ATOM     16  O   UNL     1      10.053  -1.497  21.327  0.00  0.00    -0.381 OA
ATOM     17  H   UNL     1      10.083  -0.998  20.482  0.00  0.00    +0.211 HD
ENDBRANCH  11  16
ENDBRANCH  10  11
ENDBRANCH   1  10
TORSDOF 10
ENDMDL
MODEL 7
REMARK VINA RESULT:      -4.2      9.034     11.321
REMARK  Name = 
REMARK  10 active torsions:
REMARK  status: ('A' for Active; 'I' for Inactive)
REMARK    1  A    between atoms: O_1  and  C_2
REMARK    2  A    between atoms: C_2  and  C_3
REMARK    3  A    between atoms: C_3  and  O_5
REMARK    4  A    between atoms: C_3  and  C_6
REMARK    5  A    between atoms: C_6  and  O_8
REMARK    6  A    between atoms: C_6  and  C_9
REMARK    7  A    between atoms: C_9  and  C_10
REMARK    8  A    between atoms: C_10  and  O_12
REMARK    9  A    between atoms: C_10  and  C_13
REMARK   10  A    between atoms: C_13  and  O_14
REMARK                            x       y       z     vdW  Elec       q    Type
REMARK                         _______ _______ _______ _____ _____    ______ ____
ROOT
ATOM      1  C   UNL     1       7.754  -5.547  26.105  0.00  0.00    +0.148 C 
ENDROOT
BRANCH   1   2
ATOM      2  O   UNL     1       7.964  -5.798  27.503  0.00  0.00    -0.389 OA
ATOM      3  H   UNL     1       8.704  -5.230  27.785  0.00  0.00    +0.210 HD
ENDBRANCH   1   2
BRANCH   1   4
ATOM      4  C   UNL     1       8.945  -4.747  25.540  0.00  0.00    +0.168 C 
BRANCH   4   5
ATOM      5  O   UNL     1      10.052  -5.653  25.352  0.00  0.00    -0.387 OA
ATOM      6  H   UNL     1      10.208  -5.703  24.394  0.00  0.00    +0.210 HD
ENDBRANCH   4   5
BRANCH   4   7
ATOM      7  C   UNL     1       8.654  -4.050  24.203  0.00  0.00    +0.189 C 
BRANCH   7   8
ATOM      8  O   UNL     1       8.265  -4.994  23.203  0.00  0.00    -0.392 OA
ATOM      9  H   UNL     1       7.310  -4.866  23.061  0.00  0.00    +0.210 HD
ENDBRANCH   7   8
ENDBRANCH   4   7
ENDBRANCH   1   4
BRANCH   1  10
ATOM     10  C   UNL     1       6.368  -4.902  25.967  0.00  0.00    +0.076 C 
BRANCH  10  11
ATOM     11  C   UNL     1       5.190  -5.858  25.746  0.00  0.00    +0.225 C 
BRANCH  11  12
ATOM     12  C   UNL     1       5.006  -6.362  24.305  0.00  0.00    +0.334 C 
ATOM     13  O   UNL     1       5.495  -5.771  23.353  0.00  0.00    -0.248 OA
BRANCH  12  14
ATOM     14  O   UNL     1       4.386  -7.556  24.181  0.00  0.00    -0.479 OA
ATOM     15  H   UNL     1       3.556  -7.637  24.686  0.00  0.00    +0.295 HD
ENDBRANCH  12  14
ENDBRANCH  11  12
BRANCH  11  16
ATOM     16  O   UNL     1       5.296  -6.957  26.655  0.00  0.00    -0.381 OA
ATOM     17  H   UNL     1       4.380  -7.287  26.781  0.00  0.00    +0.211 HD
ENDBRANCH  11  16
ENDBRANCH  10  11
ENDBRANCH   1  10
TORSDOF 10
ENDMDL
MODEL 8
REMARK VINA RESULT:      -4.2      3.976      5.874
REMARK  Name = 
REMARK  10 active torsions:
REMARK  status: ('A' for Active; 'I' for Inactive)
REMARK    1  A    between atoms: O_1  and  C_2
REMARK    2  A    between atoms: C_2  and  C_3
REMARK    3  A    between atoms: C_3  and  O_5
REMARK    4  A    between atoms: C_3  and  C_6
REMARK    5  A    between atoms: C_6  and  O_8
REMARK    6  A    between atoms: C_6  and  C_9
REMARK    7  A    between atoms: C_9  and  C_10
REMARK    8  A    between atoms: C_10  and  O_12
REMARK    9  A    between atoms: C_10  and  C_13
REMARK   10  A    between atoms: C_13  and  O_14
REMARK                            x       y       z     vdW  Elec       q    Type
REMARK                         _______ _______ _______ _____ _____    ______ ____
ROOT
ATOM      1  C   UNL     1       9.439  -2.431  24.156  0.00  0.00    +0.148 C 
ENDROOT
BRANCH   1   2
ATOM      2  O   UNL     1      10.517  -2.770  23.271  0.00  0.00    -0.389 OA
ATOM      3  H   UNL     1      10.300  -2.389  22.401  0.00  0.00    +0.210 HD
ENDBRANCH   1   2
BRANCH   1   4
ATOM      4  C   UNL     1       8.134  -3.080  23.652  0.00  0.00    +0.168 C 
BRANCH   4   5
ATOM      5  O   UNL     1       8.031  -2.847  22.232  0.00  0.00    -0.387 OA
ATOM      6  H   UNL     1       7.083  -2.879  22.015  0.00  0.00    +0.210 HD
ENDBRANCH   4   5
BRANCH   4   7
ATOM      7  C   UNL     1       8.047  -4.592  23.905  0.00  0.00    +0.189 C 
BRANCH   7   8
ATOM      8  O   UNL     1       9.280  -5.102  24.415  0.00  0.00    -0.392 OA
ATOM      9  H   UNL     1       9.162  -6.064  24.509  0.00  0.00    +0.210 HD
ENDBRANCH   7   8
ENDBRANCH   4   7
ENDBRANCH   1   4
BRANCH   1  10
ATOM     10  C   UNL     1       9.434  -0.902  24.296  0.00  0.00    +0.076 C 
BRANCH  10  11
ATOM     11  C   UNL     1      10.446  -0.135  23.437  0.00  0.00    +0.225 C 
BRANCH  11  12
ATOM     12  C   UNL     1       9.935   0.328  22.063  0.00  0.00    +0.334 C 
ATOM     13  O   UNL     1       9.874   1.513  21.769  0.00  0.00    -0.248 OA
BRANCH  12  14
ATOM     14  O   UNL     1       9.682  -0.657  21.174  0.00  0.00    -0.479 OA
ATOM     15  H   UNL     1       9.027  -1.315  21.471  0.00  0.00    +0.295 HD
ENDBRANCH  12  14
ENDBRANCH  11  12
BRANCH  11  16
ATOM     16  O   UNL     1      10.956   0.973  24.184  0.00  0.00    -0.381 OA
ATOM     17  H   UNL     1      10.527   0.918  25.066  0.00  0.00    +0.211 HD
ENDBRANCH  11  16
ENDBRANCH  10  11
ENDBRANCH   1  10
TORSDOF 10
ENDMDL
MODEL 9
REMARK VINA RESULT:      -4.2      8.170      9.395
REMARK  Name = 
REMARK  10 active torsions:
REMARK  status: ('A' for Active; 'I' for Inactive)
REMARK    1  A    between atoms: O_1  and  C_2
REMARK    2  A    between atoms: C_2  and  C_3
REMARK    3  A    between atoms: C_3  and  O_5
REMARK    4  A    between atoms: C_3  and  C_6
REMARK    5  A    between atoms: C_6  and  O_8
REMARK    6  A    between atoms: C_6  and  C_9
REMARK    7  A    between atoms: C_9  and  C_10
REMARK    8  A    between atoms: C_10  and  O_12
REMARK    9  A    between atoms: C_10  and  C_13
REMARK   10  A    between atoms: C_13  and  O_14
REMARK                            x       y       z     vdW  Elec       q    Type
REMARK                         _______ _______ _______ _____ _____    ______ ____
ROOT
ATOM      1  C   UNL     1       9.063  -4.632  24.900  0.00  0.00    +0.148 C 
ENDROOT
BRANCH   1   2
ATOM      2  O   UNL     1       9.853  -5.798  25.174  0.00  0.00    -0.389 OA
ATOM      3  H   UNL     1      10.014  -5.812  26.135  0.00  0.00    +0.210 HD
ENDBRANCH   1   2
BRANCH   1   4
ATOM      4  C   UNL     1       8.622  -3.982  26.227  0.00  0.00    +0.168 C 
BRANCH   4   5
ATOM      5  O   UNL     1       8.215  -2.625  25.954  0.00  0.00    -0.387 OA
ATOM      6  H   UNL     1       8.053  -2.573  24.997  0.00  0.00    +0.210 HD
ENDBRANCH   4   5
BRANCH   4   7
ATOM      7  C   UNL     1       7.463  -4.708  26.925  0.00  0.00    +0.189 C 
BRANCH   7   8
ATOM      8  O   UNL     1       7.900  -5.935  27.511  0.00  0.00    -0.392 OA
ATOM      9  H   UNL     1       7.364  -6.639  27.105  0.00  0.00    +0.210 HD
ENDBRANCH   7   8
ENDBRANCH   4   7
ENDBRANCH   1   4
BRANCH   1  10
ATOM     10  C   UNL     1       7.942  -5.062  23.942  0.00  0.00    +0.076 C 
BRANCH  10  11
ATOM     11  C   UNL     1       7.507  -4.031  22.894  0.00  0.00    +0.225 C 
BRANCH  11  12
ATOM     12  C   UNL     1       6.060  -3.528  23.018  0.00  0.00    +0.334 C 
ATOM     13  O   UNL     1       5.263  -3.636  22.098  0.00  0.00    -0.248 OA
BRANCH  12  14
ATOM     14  O   UNL     1       5.703  -3.081  24.243  0.00  0.00    -0.479 OA
ATOM     15  H   UNL     1       6.391  -3.175  24.926  0.00  0.00    +0.295 HD
ENDBRANCH  12  14
ENDBRANCH  11  12
BRANCH  11  16
ATOM     16  O   UNL     1       8.425  -2.933  22.902  0.00  0.00    -0.381 OA
ATOM     17  H   UNL     1       9.139  -3.180  22.275  0.00  0.00    +0.211 HD
ENDBRANCH  11  16
ENDBRANCH  10  11
ENDBRANCH   1  10
TORSDOF 10
ENDMDL
