MODEL 1
REMARK VINA RESULT:      -5.4      0.000      0.000
REMARK  Name = 
REMARK  2 active torsions:
REMARK  status: ('A' for Active; 'I' for Inactive)
REMARK    1  A    between atoms: O_1  and  N_2
REMARK    2  A    between atoms: N_5  and  C_6
REMARK                            x       y       z     vdW  Elec       q    Type
REMARK                         _______ _______ _______ _____ _____    ______ ____
ROOT
ATOM      1  N   UNL     1       7.407  -5.706  26.583  0.00  0.00    -0.142 N 
ATOM      2  H   UNL     1       6.513  -5.232  26.461  0.00  0.00    +0.299 HD
ATOM      3  C   UNL     1       8.445  -4.895  26.190  0.00  0.00    +0.411 C 
ATOM      4  N   UNL     1       8.082  -4.014  25.204  0.00  0.00    -0.242 N 
ATOM      5  H   UNL     1       7.820  -4.472  24.342  0.00  0.00    +0.265 HD
ATOM      6  N   UNL     1       9.622  -4.978  26.721  0.00  0.00    -0.127 NA
ATOM      7  H   UNL     1       9.538  -5.713  27.432  0.00  0.00    +0.306 HD
ENDROOT
BRANCH   4   8
ATOM      8  C   UNL     1       8.734  -2.777  24.998  0.00  0.00    +0.100 A 
ATOM      9  C   UNL     1       8.543  -1.695  25.871  0.00  0.00    +0.043 A 
ATOM     10  C   UNL     1       9.191  -0.477  25.668  0.00  0.00    +0.023 A 
ATOM     11  C   UNL     1      10.018  -0.316  24.562  0.00  0.00    +0.041 A 
ATOM     12 CL   UNL     1      10.852   1.170  24.329  0.00  0.00    -0.084 Cl
ATOM     13  C   UNL     1      10.175  -1.355  23.646  0.00  0.00    +0.023 A 
ATOM     14  C   UNL     1       9.522  -2.576  23.856  0.00  0.00    +0.043 A 
ENDBRANCH   4   8
BRANCH   1  15
ATOM     15  O   UNL     1       7.589  -6.179  27.894  0.00  0.00    -0.233 OA
ATOM     16  H   UNL     1       7.355  -7.123  27.832  0.00  0.00    +0.262 HD
ENDBRANCH   1  15
TORSDOF 2
ENDMDL
MODEL 2
REMARK VINA RESULT:      -5.1      3.689      4.233
REMARK  Name = 
REMARK  2 active torsions:
REMARK  status: ('A' for Active; 'I' for Inactive)
REMARK    1  A    between atoms: O_1  and  N_2
REMARK    2  A    between atoms: N_5  and  C_6
REMARK                            x       y       z     vdW  Elec       q    Type
REMARK                         _______ _______ _______ _____ _____    ______ ____
ROOT
ATOM      1  N   UNL     1       6.854  -3.535  21.911  0.00  0.00    -0.142 N 
ATOM      2  H   UNL     1       7.591  -3.769  21.247  0.00  0.00    +0.299 HD
ATOM      3  C   UNL     1       7.158  -2.375  22.584  0.00  0.00    +0.411 C 
ATOM      4  N   UNL     1       8.508  -2.178  22.713  0.00  0.00    -0.242 N 
ATOM      5  H   UNL     1       8.959  -2.886  23.277  0.00  0.00    +0.265 HD
ATOM      6  N   UNL     1       6.240  -1.577  23.027  0.00  0.00    -0.127 NA
ATOM      7  H   UNL     1       5.355  -2.010  22.740  0.00  0.00    +0.306 HD
ENDROOT
BRANCH   4   8
ATOM      8  C   UNL     1       9.089  -0.897  22.863  0.00  0.00    +0.100 A 
ATOM      9  C   UNL     1       9.276  -0.046  21.763  0.00  0.00    +0.043 A 
ATOM     10  C   UNL     1       9.845   1.218  21.913  0.00  0.00    +0.023 A 
ATOM     11  C   UNL     1      10.267   1.634  23.171  0.00  0.00    +0.041 A 
ATOM     12 CL   UNL     1      10.932   3.208  23.371  0.00  0.00    -0.084 Cl
ATOM     13  C   UNL     1      10.150   0.783  24.268  0.00  0.00    +0.023 A 
ATOM     14  C   UNL     1       9.577  -0.486  24.111  0.00  0.00    +0.043 A 
ENDBRANCH   4   8
BRANCH   1  15
ATOM     15  O   UNL     1       5.587  -3.465  21.306  0.00  0.00    -0.233 OA
ATOM     16  H   UNL     1       5.208  -4.349  21.465  0.00  0.00    +0.262 HD
ENDBRANCH   1  15
TORSDOF 2
ENDMDL
MODEL 3
REMARK VINA RESULT:      -5.1      5.245      6.147
REMARK  Name = 
REMARK  2 active torsions:
REMARK  status: ('A' for Active; 'I' for Inactive)
REMARK    1  A    between atoms: O_1  and  N_2
REMARK    2  A    between atoms: N_5  and  C_6
REMARK                            x       y       z     vdW  Elec       q    Type
REMARK                         _______ _______ _______ _____ _____    ______ ____
ROOT
ATOM      1  N   UNL     1      10.120   1.946  21.586  0.00  0.00    -0.142 N 
ATOM      2  H   UNL     1      10.968   1.498  21.240  0.00  0.00    +0.299 HD
ATOM      3  C   UNL     1       9.302   1.029  22.200  0.00  0.00    +0.411 C 
ATOM      4  N   UNL     1       9.441  -0.233  21.681  0.00  0.00    -0.242 N 
ATOM      5  H   UNL     1       9.157  -0.296  20.713  0.00  0.00    +0.265 HD
ATOM      6  N   UNL     1       8.504   1.356  23.164  0.00  0.00    -0.127 NA
ATOM      7  H   UNL     1       8.669   2.358  23.313  0.00  0.00    +0.306 HD
ENDROOT
BRANCH   4   8
ATOM      8  C   UNL     1       9.157  -1.405  22.419  0.00  0.00    +0.100 A 
ATOM      9  C   UNL     1       7.976  -2.133  22.208  0.00  0.00    +0.043 A 
ATOM     10  C   UNL     1       7.698  -3.291  22.934  0.00  0.00    +0.023 A 
ATOM     11  C   UNL     1       8.592  -3.719  23.909  0.00  0.00    +0.041 A 
ATOM     12 CL   UNL     1       8.277  -5.169  24.779  0.00  0.00    -0.084 Cl
ATOM     13  C   UNL     1       9.741  -2.978  24.181  0.00  0.00    +0.023 A 
ATOM     14  C   UNL     1      10.014  -1.816  23.449  0.00  0.00    +0.043 A 
ENDBRANCH   4   8
BRANCH   1  15
ATOM     15  O   UNL     1      10.395   3.039  22.427  0.00  0.00    -0.233 OA
ATOM     16  H   UNL     1      10.527   3.778  21.806  0.00  0.00    +0.262 HD
ENDBRANCH   1  15
TORSDOF 2
ENDMDL
MODEL 4
REMARK VINA RESULT:      -5.0      6.636      7.735
REMARK  Name = 
REMARK  2 active torsions:
REMARK  status: ('A' for Active; 'I' for Inactive)
REMARK    1  A    between atoms: O_1  and  N_2
REMARK    2  A    between atoms: N_5  and  C_6
REMARK                            x       y       z     vdW  Elec       q    Type
REMARK                         _______ _______ _______ _____ _____    ______ ____
ROOT
ATOM      1  N   UNL     1       6.743   5.195  21.798  0.00  0.00    -0.142 N 
ATOM      2  H   UNL     1       6.194   4.746  21.066  0.00  0.00    +0.299 HD
ATOM      3  C   UNL     1       7.556   4.281  22.425  0.00  0.00    +0.411 C 
ATOM      4  N   UNL     1       7.031   3.015  22.417  0.00  0.00    -0.242 N 
ATOM      5  H   UNL     1       6.169   2.940  22.940  0.00  0.00    +0.265 HD
ATOM      6  N   UNL     1       8.690   4.616  22.950  0.00  0.00    -0.127 NA
ATOM      7  H   UNL     1       8.782   5.620  22.757  0.00  0.00    +0.306 HD
ENDROOT
BRANCH   4   8
ATOM      8  C   UNL     1       7.828   1.850  22.495  0.00  0.00    +0.100 A 
ATOM      9  C   UNL     1       8.613   1.427  21.411  0.00  0.00    +0.043 A 
ATOM     10  C   UNL     1       9.403   0.280  21.491  0.00  0.00    +0.023 A 
ATOM     11  C   UNL     1       9.389  -0.481  22.655  0.00  0.00    +0.041 A 
ATOM     12 CL   UNL     1      10.391  -1.873  22.775  0.00  0.00    -0.084 Cl
ATOM     13  C   UNL     1       8.570  -0.117  23.722  0.00  0.00    +0.023 A 
ATOM     14  C   UNL     1       7.780   1.036  23.635  0.00  0.00    +0.043 A 
ENDBRANCH   4   8
BRANCH   1  15
ATOM     15  O   UNL     1       7.474   6.297  21.322  0.00  0.00    -0.233 OA
ATOM     16  H   UNL     1       8.080   5.905  20.668  0.00  0.00    +0.262 HD
ENDBRANCH   1  15
TORSDOF 2
ENDMDL
MODEL 5
REMARK VINA RESULT:      -4.8      5.520      6.522
REMARK  Name = 
REMARK  2 active torsions:
REMARK  status: ('A' for Active; 'I' for Inactive)
REMARK    1  A    between atoms: O_1  and  N_2
REMARK    2  A    between atoms: N_5  and  C_6
REMARK                            x       y       z     vdW  Elec       q    Type
REMARK                         _______ _______ _______ _____ _____    ______ ____
ROOT
ATOM      1  N   UNL     1      10.415   3.925  23.395  0.00  0.00    -0.142 N 
ATOM      2  H   UNL     1      10.561   3.940  24.404  0.00  0.00    +0.299 HD
ATOM      3  C   UNL     1      10.156   2.647  22.961  0.00  0.00    +0.411 C 
ATOM      4  N   UNL     1      10.752   1.693  23.743  0.00  0.00    -0.242 N 
ATOM      5  H   UNL     1      11.762   1.735  23.718  0.00  0.00    +0.265 HD
ATOM      6  N   UNL     1       9.419   2.409  21.924  0.00  0.00    -0.127 NA
ATOM      7  H   UNL     1       9.120   3.335  21.596  0.00  0.00    +0.306 HD
ENDROOT
BRANCH   4   8
ATOM      8  C   UNL     1      10.256   0.374  23.863  0.00  0.00    +0.100 A 
ATOM      9  C   UNL     1       9.527  -0.033  24.991  0.00  0.00    +0.043 A 
ATOM     10  C   UNL     1       9.034  -1.332  25.106  0.00  0.00    +0.023 A 
ATOM     11  C   UNL     1       9.296  -2.256  24.100  0.00  0.00    +0.041 A 
ATOM     12 CL   UNL     1       8.658  -3.848  24.216  0.00  0.00    -0.084 Cl
ATOM     13  C   UNL     1      10.072  -1.894  23.000  0.00  0.00    +0.023 A 
ATOM     14  C   UNL     1      10.564  -0.587  22.890  0.00  0.00    +0.043 A 
ENDBRANCH   4   8
BRANCH   1  15
ATOM     15  O   UNL     1       9.415   4.824  22.984  0.00  0.00    -0.233 OA
ATOM     16  H   UNL     1       9.152   5.267  23.810  0.00  0.00    +0.262 HD
ENDBRANCH   1  15
TORSDOF 2
ENDMDL
MODEL 6
REMARK VINA RESULT:      -4.8      1.753      1.864
REMARK  Name = 
REMARK  2 active torsions:
REMARK  status: ('A' for Active; 'I' for Inactive)
REMARK    1  A    between atoms: O_1  and  N_2
REMARK    2  A    between atoms: N_5  and  C_6
REMARK                            x       y       z     vdW  Elec       q    Type
REMARK                         _______ _______ _______ _____ _____    ______ ____
ROOT
ATOM      1  N   UNL     1       7.913  -5.041  25.627  0.00  0.00    -0.142 N 
ATOM      2  H   UNL     1       7.082  -4.538  25.936  0.00  0.00    +0.299 HD
ATOM      3  C   UNL     1       8.667  -4.260  24.784  0.00  0.00    +0.411 C 
ATOM      4  N   UNL     1       7.910  -3.362  24.077  0.00  0.00    -0.242 N 
ATOM      5  H   UNL     1       7.258  -3.805  23.444  0.00  0.00    +0.265 HD
ATOM      6  N   UNL     1       9.952  -4.384  24.698  0.00  0.00    -0.127 NA
ATOM      7  H   UNL     1      10.191  -5.121  25.371  0.00  0.00    +0.306 HD
ENDROOT
BRANCH   4   8
ATOM      8  C   UNL     1       8.426  -2.144  23.577  0.00  0.00    +0.100 A 
ATOM      9  C   UNL     1       8.535  -1.007  24.391  0.00  0.00    +0.043 A 
ATOM     10  C   UNL     1       9.048   0.192  23.897  0.00  0.00    +0.023 A 
ATOM     11  C   UNL     1       9.431   0.276  22.563  0.00  0.00    +0.041 A 
ATOM     12 CL   UNL     1      10.103   1.739  21.958  0.00  0.00    -0.084 Cl
ATOM     13  C   UNL     1       9.274  -0.821  21.718  0.00  0.00    +0.023 A 
ATOM     14  C   UNL     1       8.758  -2.023  22.220  0.00  0.00    +0.043 A 
ENDBRANCH   4   8
BRANCH   1  15
ATOM     15  O   UNL     1       8.676  -5.529  26.701  0.00  0.00    -0.233 OA
ATOM     16  H   UNL     1       8.975  -4.721  27.156  0.00  0.00    +0.262 HD
ENDBRANCH   1  15
TORSDOF 2
ENDMDL
MODEL 7
REMARK VINA RESULT:      -4.8      1.352      1.945
REMARK  Name = 
REMARK  2 active torsions:
REMARK  status: ('A' for Active; 'I' for Inactive)
REMARK    1  A    between atoms: O_1  and  N_2
REMARK    2  A    between atoms: N_5  and  C_6
REMARK                            x       y       z     vdW  Elec       q    Type
REMARK                         _______ _______ _______ _____ _____    ______ ____
ROOT
ATOM      1  N   UNL     1       6.908  -5.788  26.826  0.00  0.00    -0.142 N 
ATOM      2  H   UNL     1       6.164  -5.127  27.042  0.00  0.00    +0.299 HD
ATOM      3  C   UNL     1       7.765  -5.266  25.887  0.00  0.00    +0.411 C 
ATOM      4  N   UNL     1       7.145  -4.383  25.041  0.00  0.00    -0.242 N 
ATOM      5  H   UNL     1       6.430  -4.816  24.472  0.00  0.00    +0.265 HD
ATOM      6  N   UNL     1       9.016  -5.591  25.841  0.00  0.00    -0.127 NA
ATOM      7  H   UNL     1       9.147  -6.244  26.622  0.00  0.00    +0.306 HD
ENDROOT
BRANCH   4   8
ATOM      8  C   UNL     1       7.833  -3.346  24.370  0.00  0.00    +0.100 A 
ATOM      9  C   UNL     1       7.845  -3.263  22.969  0.00  0.00    +0.043 A 
ATOM     10  C   UNL     1       8.521  -2.238  22.309  0.00  0.00    +0.023 A 
ATOM     11  C   UNL     1       9.225  -1.294  23.049  0.00  0.00    +0.041 A 
ATOM     12 CL   UNL     1      10.026  -0.003  22.244  0.00  0.00    -0.084 Cl
ATOM     13  C   UNL     1       9.280  -1.390  24.438  0.00  0.00    +0.023 A 
ATOM     14  C   UNL     1       8.599  -2.423  25.095  0.00  0.00    +0.043 A 
ENDBRANCH   4   8
BRANCH   1  15
ATOM     15  O   UNL     1       7.598  -6.215  27.974  0.00  0.00    -0.233 OA
ATOM     16  H   UNL     1       7.373  -5.541  28.641  0.00  0.00    +0.262 HD
ENDBRANCH   1  15
TORSDOF 2
ENDMDL
MODEL 8
REMARK VINA RESULT:      -4.8      2.684      3.653
REMARK  Name = 
REMARK  2 active torsions:
REMARK  status: ('A' for Active; 'I' for Inactive)
REMARK    1  A    between atoms: O_1  and  N_2
REMARK    2  A    between atoms: N_5  and  C_6
REMARK                            x       y       z     vdW  Elec       q    Type
REMARK                         _______ _______ _______ _____ _____    ______ ____
ROOT
ATOM      1  N   UNL     1       6.095  -7.242  28.795  0.00  0.00    -0.142 N 
ATOM      2  H   UNL     1       6.546  -8.011  28.301  0.00  0.00    +0.299 HD
ATOM      3  C   UNL     1       6.321  -6.050  28.149  0.00  0.00    +0.411 C 
ATOM      4  N   UNL     1       7.512  -6.036  27.469  0.00  0.00    -0.242 N 
ATOM      5  H   UNL     1       8.315  -6.115  28.077  0.00  0.00    +0.265 HD
ATOM      6  N   UNL     1       5.476  -5.071  28.195  0.00  0.00    -0.127 NA
ATOM      7  H   UNL     1       4.696  -5.424  28.761  0.00  0.00    +0.306 HD
ENDROOT
BRANCH   4   8
ATOM      8  C   UNL     1       7.747  -5.213  26.344  0.00  0.00    +0.100 A 
ATOM      9  C   UNL     1       6.972  -5.326  25.180  0.00  0.00    +0.043 A 
ATOM     10  C   UNL     1       7.203  -4.510  24.073  0.00  0.00    +0.023 A 
ATOM     11  C   UNL     1       8.242  -3.587  24.107  0.00  0.00    +0.041 A 
ATOM     12 CL   UNL     1       8.506  -2.550  22.761  0.00  0.00    -0.084 Cl
ATOM     13  C   UNL     1       9.066  -3.499  25.227  0.00  0.00    +0.023 A 
ATOM     14  C   UNL     1       8.829  -4.321  26.337  0.00  0.00    +0.043 A 
ENDBRANCH   4   8
BRANCH   1  15
ATOM     15  O   UNL     1       4.722  -7.467  28.999  0.00  0.00    -0.233 OA
ATOM     16  H   UNL     1       4.296  -6.720  28.540  0.00  0.00    +0.262 HD
ENDBRANCH   1  15
TORSDOF 2
ENDMDL
MODEL 9
REMARK VINA RESULT:      -4.8      6.158      7.220
REMARK  Name = 
REMARK  2 active torsions:
REMARK  status: ('A' for Active; 'I' for Inactive)
REMARK    1  A    between atoms: O_1  and  N_2
REMARK    2  A    between atoms: N_5  and  C_6
REMARK                            x       y       z     vdW  Elec       q    Type
REMARK                         _______ _______ _______ _____ _____    ______ ____
ROOT
ATOM      1  N   UNL     1       7.772   4.786  22.080  0.00  0.00    -0.142 N 
ATOM      2  H   UNL     1       8.675   5.092  22.441  0.00  0.00    +0.299 HD
ATOM      3  C   UNL     1       7.698   3.414  22.054  0.00  0.00    +0.411 C 
ATOM      4  N   UNL     1       8.923   2.824  21.879  0.00  0.00    -0.242 N 
ATOM      5  H   UNL     1       9.343   3.040  20.985  0.00  0.00    +0.265 HD
ATOM      6  N   UNL     1       6.577   2.783  22.188  0.00  0.00    -0.127 NA
ATOM      7  H   UNL     1       5.875   3.519  22.322  0.00  0.00    +0.306 HD
ENDROOT
BRANCH   4   8
ATOM      8  C   UNL     1       9.219   1.515  22.327  0.00  0.00    +0.100 A 
ATOM      9  C   UNL     1       9.254   0.430  21.439  0.00  0.00    +0.043 A 
ATOM     10  C   UNL     1       9.550  -0.860  21.881  0.00  0.00    +0.023 A 
ATOM     11  C   UNL     1       9.784  -1.083  23.233  0.00  0.00    +0.041 A 
ATOM     12 CL   UNL     1      10.189  -2.663  23.779  0.00  0.00    -0.084 Cl
ATOM     13  C   UNL     1       9.693  -0.032  24.144  0.00  0.00    +0.023 A 
ATOM     14  C   UNL     1       9.395   1.260  23.693  0.00  0.00    +0.043 A 
ENDBRANCH   4   8
BRANCH   1  15
ATOM     15  O   UNL     1       6.693   5.348  22.786  0.00  0.00    -0.233 OA
ATOM     16  H   UNL     1       5.930   4.813  22.503  0.00  0.00    +0.262 HD
ENDBRANCH   1  15
TORSDOF 2
ENDMDL
