MODEL 1
REMARK VINA RESULT:      -7.7      0.000      0.000
REMARK  Name = 
REMARK  12 active torsions:
REMARK  status: ('A' for Active; 'I' for Inactive)
REMARK    1  A    between atoms: C_1  and  N_2
REMARK    2  A    between atoms: N_2  and  C_3
REMARK    3  A    between atoms: N_2  and  C_16
REMARK    4  A    between atoms: C_3  and  C_4
REMARK    5  A    between atoms: C_19  and  C_22
REMARK    6  A    between atoms: N_24  and  CA_25
REMARK    7  A    between atoms: CA_25  and  CB_27
REMARK    8  A    between atoms: CA_25  and  C_32
REMARK    9  A    between atoms: CB_27  and  CG_28
REMARK   10  A    between atoms: CG_28  and  CD_29
REMARK   11  A    between atoms: CD_29  and  OE1_30
REMARK   12  A    between atoms: C_32  and  O_33
REMARK                            x       y       z     vdW  Elec       q    Type
REMARK                         _______ _______ _______ _____ _____    ______ ____
ROOT
ATOM      1  C   UNK A   0      10.363   2.376  23.260  0.00  0.00    +0.030 A 
ATOM      2  C   UNK A   0      10.452   1.522  24.375  0.00  0.00    +0.024 A 
ATOM      3  C   UNK A   0      10.193   0.143  24.289  0.00  0.00    +0.015 A 
ATOM      4  C   UNK A   0       9.811  -0.425  23.077  0.00  0.00    +0.037 A 
ATOM      5  C   UNK A   0       9.744   0.387  21.944  0.00  0.00    +0.015 A 
ATOM      6  C   UNK A   0      10.008   1.760  22.046  0.00  0.00    +0.024 A 
ENDROOT
BRANCH   4   7
ATOM      7  C   UNK A   0       9.462  -1.872  23.004  0.00  0.00    +0.245 C 
ATOM      8  N   GLU A   1       8.122  -2.159  22.845  0.00  0.00    -0.298 N 
ATOM      9  H   GLU A   1       7.449  -1.406  22.759  0.00  0.00    +0.150 HD
ATOM     10  O   UNK A   0      10.307  -2.755  23.097  0.00  0.00    -0.270 OA
BRANCH   8  11
ATOM     11  CA  GLU A   1       7.651  -3.535  22.774  0.00  0.00    +0.182 C 
BRANCH  11  12
ATOM     12  C   GLU A   1       6.353  -3.571  21.956  0.00  0.00    +0.325 C 
ATOM     13  OXT GLU A   1       6.049  -4.482  21.198  0.00  0.00    -0.249 OA
BRANCH  12  14
ATOM     14  O   GLU A   1       5.556  -2.498  22.161  0.00  0.00    -0.479 OA
ATOM     15  H   GLU A   1       4.786  -2.706  22.741  0.00  0.00    +0.295 HD
ENDBRANCH  12  14
ENDBRANCH  11  12
BRANCH  11  16
ATOM     16  CB  GLU A   1       7.415  -4.113  24.175  0.00  0.00    +0.045 C 
BRANCH  16  17
ATOM     17  CG  GLU A   1       8.304  -5.325  24.450  0.00  0.00    +0.123 C 
BRANCH  17  18
ATOM     18  CD  GLU A   1       9.362  -4.993  25.466  0.00  0.00    +0.305 C 
ATOM     19  OE2 GLU A   1       9.115  -4.574  26.585  0.00  0.00    -0.251 OA
BRANCH  18  20
ATOM     20  OE1 GLU A   1      10.618  -5.242  25.038  0.00  0.00    -0.481 OA
ATOM     21  HE1 GLU A   1      10.885  -4.741  24.242  0.00  0.00    +0.295 HD
ENDBRANCH  18  20
ENDBRANCH  17  18
ENDBRANCH  16  17
ENDBRANCH  11  16
ENDBRANCH   8  11
ENDBRANCH   4   7
BRANCH   1  23
ATOM     22  C   UNK A   0      11.939   4.277  23.340  0.00  0.00    +0.129 C 
ATOM     23  N   UNK A   0      10.569   3.758  23.360  0.00  0.00    -0.327 N 
BRANCH  23  24
ATOM     24  C   UNK A   0       9.596   4.579  24.109  0.00  0.00    +0.161 C 
BRANCH  24  25
ATOM     25  C   UNK A   0       8.161   4.422  23.654  0.00  0.00    +0.077 A 
ATOM     26  N   UNK A   0       7.401   3.499  24.291  0.00  0.00    -0.242 NA
ATOM     27  C   UNK A   0       6.078   3.431  23.938  0.00  0.00    +0.148 A 
ATOM     28  C   UNK A   0       5.501   4.275  22.983  0.00  0.00    +0.185 A 
ATOM     29  N   UNK A   0       4.209   4.243  22.670  0.00  0.00    -0.193 NA
ATOM     30  C   UNK A   0       3.437   3.378  23.319  0.00  0.00    +0.216 A 
ATOM     31  N   UNK A   0       3.868   2.503  24.223  0.00  0.00    -0.198 NA
ATOM     32  N   UNK A   0       2.092   3.370  23.018  0.00  0.00    -0.327 N 
ATOM     33  H   UNK A   0       1.682   2.474  23.236  0.00  0.00    +0.145 HD
ATOM     34  H   UNK A   0       1.935   3.745  22.091  0.00  0.00    +0.145 HD
ATOM     35  N   UNK A   0       6.272   5.175  22.360  0.00  0.00    -0.232 NA
ATOM     36  C   UNK A   0       5.175   2.549  24.521  0.00  0.00    +0.149 A 
ATOM     37  N   UNK A   0       5.623   1.575  25.431  0.00  0.00    -0.341 N 
ATOM     38  H   UNK A   0       6.308   1.954  26.075  0.00  0.00    +0.144 HD
ATOM     39  H   UNK A   0       4.824   1.127  25.869  0.00  0.00    +0.144 HD
ATOM     40  C   UNK A   0       7.585   5.241  22.701  0.00  0.00    +0.138 A 
ENDBRANCH  24  25
ENDBRANCH  23  24
ENDBRANCH   1  23
TORSDOF 11
ENDMDL
MODEL 2
REMARK VINA RESULT:      -7.6      4.653      8.978
REMARK  Name = 
REMARK  12 active torsions:
REMARK  status: ('A' for Active; 'I' for Inactive)
REMARK    1  A    between atoms: C_1  and  N_2
REMARK    2  A    between atoms: N_2  and  C_3
REMARK    3  A    between atoms: N_2  and  C_16
REMARK    4  A    between atoms: C_3  and  C_4
REMARK    5  A    between atoms: C_19  and  C_22
REMARK    6  A    between atoms: N_24  and  CA_25
REMARK    7  A    between atoms: CA_25  and  CB_27
REMARK    8  A    between atoms: CA_25  and  C_32
REMARK    9  A    between atoms: CB_27  and  CG_28
REMARK   10  A    between atoms: CG_28  and  CD_29
REMARK   11  A    between atoms: CD_29  and  OE1_30
REMARK   12  A    between atoms: C_32  and  O_33
REMARK                            x       y       z     vdW  Elec       q    Type
REMARK                         _______ _______ _______ _____ _____    ______ ____
ROOT
ATOM      1  C   UNK A   0       7.588  -2.353  22.945  0.00  0.00    +0.030 A 
ATOM      2  C   UNK A   0       7.029  -1.233  23.587  0.00  0.00    +0.024 A 
ATOM      3  C   UNK A   0       7.791  -0.100  23.925  0.00  0.00    +0.015 A 
ATOM      4  C   UNK A   0       9.153  -0.063  23.645  0.00  0.00    +0.037 A 
ATOM      5  C   UNK A   0       9.735  -1.144  22.979  0.00  0.00    +0.015 A 
ATOM      6  C   UNK A   0       8.961  -2.265  22.648  0.00  0.00    +0.024 A 
ENDROOT
BRANCH   4   7
ATOM      7  C   UNK A   0       9.975   1.105  24.072  0.00  0.00    +0.245 C 
ATOM      8  N   GLU A   1       9.421   2.346  23.839  0.00  0.00    -0.298 N 
ATOM      9  H   GLU A   1       8.498   2.420  23.426  0.00  0.00    +0.150 HD
ATOM     10  O   UNK A   0      11.082   0.975  24.583  0.00  0.00    -0.270 OA
BRANCH   8  11
ATOM     11  CA  GLU A   1      10.131   3.566  24.198  0.00  0.00    +0.182 C 
BRANCH  11  12
ATOM     12  C   GLU A   1       9.131   4.730  24.227  0.00  0.00    +0.325 C 
ATOM     13  OXT GLU A   1       8.523   5.132  23.244  0.00  0.00    -0.249 OA
BRANCH  12  14
ATOM     14  O   GLU A   1       8.968   5.272  25.456  0.00  0.00    -0.479 OA
ATOM     15  H   GLU A   1       8.179   4.911  25.924  0.00  0.00    +0.295 HD
ENDBRANCH  12  14
ENDBRANCH  11  12
BRANCH  11  16
ATOM     16  CB  GLU A   1      11.263   3.860  23.206  0.00  0.00    +0.045 C 
BRANCH  16  17
ATOM     17  CG  GLU A   1      11.999   5.155  23.548  0.00  0.00    +0.123 C 
BRANCH  17  18
ATOM     18  CD  GLU A   1      13.232   5.309  22.700  0.00  0.00    +0.305 C 
ATOM     19  OE2 GLU A   1      13.213   5.714  21.549  0.00  0.00    -0.251 OA
BRANCH  18  20
ATOM     20  OE1 GLU A   1      14.374   4.994  23.346  0.00  0.00    -0.481 OA
ATOM     21  HE1 GLU A   1      14.773   5.729  23.853  0.00  0.00    +0.295 HD
ENDBRANCH  18  20
ENDBRANCH  17  18
ENDBRANCH  16  17
ENDBRANCH  11  16
ENDBRANCH   8  11
ENDBRANCH   4   7
BRANCH   1  23
ATOM     22  C   UNK A   0       5.395  -3.373  22.437  0.00  0.00    +0.129 C 
ATOM     23  N   UNK A   0       6.838  -3.501  22.658  0.00  0.00    -0.327 N 
BRANCH  23  24
ATOM     24  C   UNK A   0       7.278  -4.802  23.201  0.00  0.00    +0.161 C 
BRANCH  24  25
ATOM     25  C   UNK A   0       7.078  -4.959  24.693  0.00  0.00    +0.077 A 
ATOM     26  N   UNK A   0       6.049  -5.738  25.107  0.00  0.00    -0.242 NA
ATOM     27  C   UNK A   0       5.934  -5.952  26.457  0.00  0.00    +0.148 A 
ATOM     28  C   UNK A   0       6.833  -5.423  27.390  0.00  0.00    +0.185 A 
ATOM     29  N   UNK A   0       6.751  -5.665  28.695  0.00  0.00    -0.193 NA
ATOM     30  C   UNK A   0       5.778  -6.466  29.116  0.00  0.00    +0.216 A 
ATOM     31  N   UNK A   0       4.846  -7.004  28.336  0.00  0.00    -0.198 NA
ATOM     32  N   UNK A   0       5.717  -6.743  30.464  0.00  0.00    -0.327 N 
ATOM     33  H   UNK A   0       4.779  -7.002  30.734  0.00  0.00    +0.145 HD
ATOM     34  H   UNK A   0       6.173  -6.014  30.997  0.00  0.00    +0.145 HD
ATOM     35  N   UNK A   0       7.838  -4.651  26.960  0.00  0.00    -0.232 NA
ATOM     36  C   UNK A   0       4.943  -6.744  27.024  0.00  0.00    +0.149 A 
ATOM     37  N   UNK A   0       3.911  -7.269  26.225  0.00  0.00    -0.341 N 
ATOM     38  H   UNK A   0       4.266  -7.616  25.340  0.00  0.00    +0.144 HD
ATOM     39  H   UNK A   0       3.372  -7.939  26.763  0.00  0.00    +0.144 HD
ATOM     40  C   UNK A   0       7.952  -4.429  25.625  0.00  0.00    +0.138 A 
ENDBRANCH  24  25
ENDBRANCH  23  24
ENDBRANCH   1  23
TORSDOF 11
ENDMDL
MODEL 3
REMARK VINA RESULT:      -7.6      4.371      8.594
REMARK  Name = 
REMARK  12 active torsions:
REMARK  status: ('A' for Active; 'I' for Inactive)
REMARK    1  A    between atoms: C_1  and  N_2
REMARK    2  A    between atoms: N_2  and  C_3
REMARK    3  A    between atoms: N_2  and  C_16
REMARK    4  A    between atoms: C_3  and  C_4
REMARK    5  A    between atoms: C_19  and  C_22
REMARK    6  A    between atoms: N_24  and  CA_25
REMARK    7  A    between atoms: CA_25  and  CB_27
REMARK    8  A    between atoms: CA_25  and  C_32
REMARK    9  A    between atoms: CB_27  and  CG_28
REMARK   10  A    between atoms: CG_28  and  CD_29
REMARK   11  A    between atoms: CD_29  and  OE1_30
REMARK   12  A    between atoms: C_32  and  O_33
REMARK                            x       y       z     vdW  Elec       q    Type
REMARK                         _______ _______ _______ _____ _____    ______ ____
ROOT
ATOM      1  C   UNK A   0       8.675  -0.888  23.803  0.00  0.00    +0.030 A 
ATOM      2  C   UNK A   0       7.547  -0.133  23.433  0.00  0.00    +0.024 A 
ATOM      3  C   UNK A   0       7.460   1.252  23.660  0.00  0.00    +0.015 A 
ATOM      4  C   UNK A   0       8.502   1.926  24.289  0.00  0.00    +0.037 A 
ATOM      5  C   UNK A   0       9.651   1.214  24.641  0.00  0.00    +0.015 A 
ATOM      6  C   UNK A   0       9.722  -0.166  24.406  0.00  0.00    +0.024 A 
ENDROOT
BRANCH   4   7
ATOM      7  C   UNK A   0       8.377   3.379  24.598  0.00  0.00    +0.245 C 
ATOM      8  N   GLU A   1       8.628   4.239  23.549  0.00  0.00    -0.298 N 
ATOM      9  H   GLU A   1       8.854   3.870  22.633  0.00  0.00    +0.150 HD
ATOM     10  O   UNK A   0       8.088   3.787  25.717  0.00  0.00    -0.270 OA
BRANCH   8  11
ATOM     11  CA  GLU A   1       8.553   5.683  23.727  0.00  0.00    +0.182 C 
BRANCH  11  12
ATOM     12  C   GLU A   1       7.418   6.230  22.851  0.00  0.00    +0.325 C 
ATOM     13  OXT GLU A   1       6.350   6.634  23.291  0.00  0.00    -0.249 OA
BRANCH  12  14
ATOM     14  O   GLU A   1       7.712   6.238  21.530  0.00  0.00    -0.479 OA
ATOM     15  H   GLU A   1       6.905   6.282  20.966  0.00  0.00    +0.295 HD
ENDBRANCH  12  14
ENDBRANCH  11  12
BRANCH  11  16
ATOM     16  CB  GLU A   1       9.881   6.356  23.360  0.00  0.00    +0.045 C 
BRANCH  16  17
ATOM     17  CG  GLU A   1      10.991   6.007  24.351  0.00  0.00    +0.123 C 
BRANCH  17  18
ATOM     18  CD  GLU A   1      12.029   5.132  23.705  0.00  0.00    +0.305 C 
ATOM     19  OE2 GLU A   1      11.781   4.045  23.207  0.00  0.00    -0.251 OA
BRANCH  18  20
ATOM     20  OE1 GLU A   1      13.263   5.679  23.689  0.00  0.00    -0.481 OA
ATOM     21  HE1 GLU A   1      13.611   5.928  24.568  0.00  0.00    +0.295 HD
ENDBRANCH  18  20
ENDBRANCH  17  18
ENDBRANCH  16  17
ENDBRANCH  11  16
ENDBRANCH   8  11
ENDBRANCH   4   7
BRANCH   1  23
ATOM     22  C   UNK A   0       9.937  -2.998  24.053  0.00  0.00    +0.129 C 
ATOM     23  N   UNK A   0       8.735  -2.276  23.624  0.00  0.00    -0.327 N 
BRANCH  23  24
ATOM     24  C   UNK A   0       8.000  -2.890  22.500  0.00  0.00    +0.161 C 
BRANCH  24  25
ATOM     25  C   UNK A   0       7.011  -3.961  22.907  0.00  0.00    +0.077 A 
ATOM     26  N   UNK A   0       7.107  -4.455  24.165  0.00  0.00    -0.242 NA
ATOM     27  C   UNK A   0       6.148  -5.354  24.555  0.00  0.00    +0.148 A 
ATOM     28  C   UNK A   0       5.093  -5.748  23.726  0.00  0.00    +0.185 A 
ATOM     29  N   UNK A   0       4.136  -6.586  24.117  0.00  0.00    -0.193 NA
ATOM     30  C   UNK A   0       4.185  -7.044  25.363  0.00  0.00    +0.216 A 
ATOM     31  N   UNK A   0       5.150  -6.769  26.236  0.00  0.00    -0.198 NA
ATOM     32  N   UNK A   0       3.174  -7.883  25.776  0.00  0.00    -0.327 N 
ATOM     33  H   UNK A   0       3.483  -8.467  26.538  0.00  0.00    +0.145 HD
ATOM     34  H   UNK A   0       2.744  -8.338  24.981  0.00  0.00    +0.145 HD
ATOM     35  N   UNK A   0       5.021  -5.253  22.485  0.00  0.00    -0.232 NA
ATOM     36  C   UNK A   0       6.108  -5.928  25.821  0.00  0.00    +0.149 A 
ATOM     37  N   UNK A   0       7.152  -5.701  26.735  0.00  0.00    -0.341 N 
ATOM     38  H   UNK A   0       7.450  -4.731  26.727  0.00  0.00    +0.144 HD
ATOM     39  H   UNK A   0       6.889  -6.061  27.647  0.00  0.00    +0.144 HD
ATOM     40  C   UNK A   0       5.972  -4.368  22.090  0.00  0.00    +0.138 A 
ENDBRANCH  24  25
ENDBRANCH  23  24
ENDBRANCH   1  23
TORSDOF 11
ENDMDL
MODEL 4
REMARK VINA RESULT:      -7.5      4.581      8.769
REMARK  Name = 
REMARK  12 active torsions:
REMARK  status: ('A' for Active; 'I' for Inactive)
REMARK    1  A    between atoms: C_1  and  N_2
REMARK    2  A    between atoms: N_2  and  C_3
REMARK    3  A    between atoms: N_2  and  C_16
REMARK    4  A    between atoms: C_3  and  C_4
REMARK    5  A    between atoms: C_19  and  C_22
REMARK    6  A    between atoms: N_24  and  CA_25
REMARK    7  A    between atoms: CA_25  and  CB_27
REMARK    8  A    between atoms: CA_25  and  C_32
REMARK    9  A    between atoms: CB_27  and  CG_28
REMARK   10  A    between atoms: CG_28  and  CD_29
REMARK   11  A    between atoms: CD_29  and  OE1_30
REMARK   12  A    between atoms: C_32  and  O_33
REMARK                            x       y       z     vdW  Elec       q    Type
REMARK                         _______ _______ _______ _____ _____    ______ ____
ROOT
ATOM      1  C   UNK A   0       8.055  -0.717  23.410  0.00  0.00    +0.030 A 
ATOM      2  C   UNK A   0       9.308  -0.079  23.364  0.00  0.00    +0.024 A 
ATOM      3  C   UNK A   0       9.500   1.237  23.820  0.00  0.00    +0.015 A 
ATOM      4  C   UNK A   0       8.429   1.969  24.321  0.00  0.00    +0.037 A 
ATOM      5  C   UNK A   0       7.177   1.357  24.411  0.00  0.00    +0.015 A 
ATOM      6  C   UNK A   0       7.002   0.043  23.954  0.00  0.00    +0.024 A 
ENDROOT
BRANCH   4   7
ATOM      7  C   UNK A   0       8.617   3.389  24.733  0.00  0.00    +0.245 C 
ATOM      8  N   GLU A   1       9.414   4.153  23.905  0.00  0.00    -0.298 N 
ATOM      9  H   GLU A   1       9.807   3.747  23.064  0.00  0.00    +0.150 HD
ATOM     10  O   UNK A   0       8.112   3.848  25.751  0.00  0.00    -0.270 OA
BRANCH   8  11
ATOM     11  CA  GLU A   1       9.686   5.552  24.206  0.00  0.00    +0.182 C 
BRANCH  11  12
ATOM     12  C   GLU A   1       8.585   6.416  23.577  0.00  0.00    +0.325 C 
ATOM     13  OXT GLU A   1       7.807   7.107  24.221  0.00  0.00    -0.249 OA
BRANCH  12  14
ATOM     14  O   GLU A   1       8.557   6.355  22.226  0.00  0.00    -0.479 OA
ATOM     15  H   GLU A   1       7.722   6.720  21.850  0.00  0.00    +0.295 HD
ENDBRANCH  12  14
ENDBRANCH  11  12
BRANCH  11  16
ATOM     16  CB  GLU A   1      11.062   5.974  23.676  0.00  0.00    +0.045 C 
BRANCH  16  17
ATOM     17  CG  GLU A   1      11.959   4.770  23.393  0.00  0.00    +0.123 C 
BRANCH  17  18
ATOM     18  CD  GLU A   1      13.200   5.190  22.654  0.00  0.00    +0.305 C 
ATOM     19  OE2 GLU A   1      13.183   5.776  21.584  0.00  0.00    -0.251 OA
BRANCH  18  20
ATOM     20  OE1 GLU A   1      14.344   4.895  23.308  0.00  0.00    -0.481 OA
ATOM     21  HE1 GLU A   1      14.462   5.366  24.157  0.00  0.00    +0.295 HD
ENDBRANCH  18  20
ENDBRANCH  17  18
ENDBRANCH  16  17
ENDBRANCH  11  16
ENDBRANCH   8  11
ENDBRANCH   4   7
BRANCH   1  23
ATOM     22  C   UNK A   0       8.853  -2.581  21.998  0.00  0.00    +0.129 C 
ATOM     23  N   UNK A   0       7.855  -2.008  22.905  0.00  0.00    -0.327 N 
BRANCH  23  24
ATOM     24  C   UNK A   0       6.476  -2.501  22.716  0.00  0.00    +0.161 C 
BRANCH  24  25
ATOM     25  C   UNK A   0       6.061  -3.593  23.679  0.00  0.00    +0.077 A 
ATOM     26  N   UNK A   0       6.949  -3.950  24.639  0.00  0.00    -0.242 NA
ATOM     27  C   UNK A   0       6.528  -4.870  25.564  0.00  0.00    +0.148 A 
ATOM     28  C   UNK A   0       5.242  -5.420  25.559  0.00  0.00    +0.185 A 
ATOM     29  N   UNK A   0       4.815  -6.279  26.481  0.00  0.00    -0.193 NA
ATOM     30  C   UNK A   0       5.654  -6.604  27.459  0.00  0.00    +0.216 A 
ATOM     31  N   UNK A   0       6.908  -6.175  27.558  0.00  0.00    -0.198 NA
ATOM     32  N   UNK A   0       5.198  -7.467  28.431  0.00  0.00    -0.327 N 
ATOM     33  H   UNK A   0       5.968  -7.948  28.872  0.00  0.00    +0.145 HD
ATOM     34  H   UNK A   0       4.435  -8.029  28.077  0.00  0.00    +0.145 HD
ATOM     35  N   UNK A   0       4.383  -5.059  24.597  0.00  0.00    -0.232 NA
ATOM     36  C   UNK A   0       7.321  -5.314  26.616  0.00  0.00    +0.149 A 
ATOM     37  N   UNK A   0       8.669  -4.923  26.702  0.00  0.00    -0.341 N 
ATOM     38  H   UNK A   0       8.786  -3.940  26.478  0.00  0.00    +0.144 HD
ATOM     39  H   UNK A   0       9.048  -5.207  27.599  0.00  0.00    +0.144 HD
ATOM     40  C   UNK A   0       4.797  -4.154  23.674  0.00  0.00    +0.138 A 
ENDBRANCH  24  25
ENDBRANCH  23  24
ENDBRANCH   1  23
TORSDOF 11
ENDMDL
MODEL 5
REMARK VINA RESULT:      -7.3      4.509      8.915
REMARK  Name = 
REMARK  12 active torsions:
REMARK  status: ('A' for Active; 'I' for Inactive)
REMARK    1  A    between atoms: C_1  and  N_2
REMARK    2  A    between atoms: N_2  and  C_3
REMARK    3  A    between atoms: N_2  and  C_16
REMARK    4  A    between atoms: C_3  and  C_4
REMARK    5  A    between atoms: C_19  and  C_22
REMARK    6  A    between atoms: N_24  and  CA_25
REMARK    7  A    between atoms: CA_25  and  CB_27
REMARK    8  A    between atoms: CA_25  and  C_32
REMARK    9  A    between atoms: CB_27  and  CG_28
REMARK   10  A    between atoms: CG_28  and  CD_29
REMARK   11  A    between atoms: CD_29  and  OE1_30
REMARK   12  A    between atoms: C_32  and  O_33
REMARK                            x       y       z     vdW  Elec       q    Type
REMARK                         _______ _______ _______ _____ _____    ______ ____
ROOT
ATOM      1  C   UNK A   0       8.187  -0.806  22.889  0.00  0.00    +0.030 A 
ATOM      2  C   UNK A   0       7.790   0.027  23.951  0.00  0.00    +0.024 A 
ATOM      3  C   UNK A   0       8.371   1.287  24.178  0.00  0.00    +0.015 A 
ATOM      4  C   UNK A   0       9.392   1.747  23.353  0.00  0.00    +0.037 A 
ATOM      5  C   UNK A   0       9.789   0.961  22.269  0.00  0.00    +0.015 A 
ATOM      6  C   UNK A   0       9.198  -0.292  22.055  0.00  0.00    +0.024 A 
ENDROOT
BRANCH   4   7
ATOM      7  C   UNK A   0      10.060   3.049  23.640  0.00  0.00    +0.245 C 
ATOM      8  N   GLU A   1       9.244   4.046  24.130  0.00  0.00    -0.298 N 
ATOM      9  H   GLU A   1       8.262   3.861  24.299  0.00  0.00    +0.150 HD
ATOM     10  O   UNK A   0      11.255   3.229  23.437  0.00  0.00    -0.270 OA
BRANCH   8  11
ATOM     11  CA  GLU A   1       9.774   5.368  24.437  0.00  0.00    +0.182 C 
BRANCH  11  12
ATOM     12  C   GLU A   1       9.185   5.838  25.774  0.00  0.00    +0.325 C 
ATOM     13  OXT GLU A   1       8.280   5.261  26.362  0.00  0.00    -0.249 OA
BRANCH  12  14
ATOM     14  O   GLU A   1       9.773   6.956  26.260  0.00  0.00    -0.479 OA
ATOM     15  H   GLU A   1      10.483   7.295  25.667  0.00  0.00    +0.295 HD
ENDBRANCH  12  14
ENDBRANCH  11  12
BRANCH  11  16
ATOM     16  CB  GLU A   1       9.440   6.370  23.326  0.00  0.00    +0.045 C 
BRANCH  16  17
ATOM     17  CG  GLU A   1       7.941   6.659  23.249  0.00  0.00    +0.123 C 
BRANCH  17  18
ATOM     18  CD  GLU A   1       7.330   5.991  22.048  0.00  0.00    +0.305 C 
ATOM     19  OE2 GLU A   1       7.131   4.789  21.971  0.00  0.00    -0.251 OA
BRANCH  18  20
ATOM     20  OE1 GLU A   1       6.980   6.854  21.070  0.00  0.00    -0.481 OA
ATOM     21  HE1 GLU A   1       7.345   6.641  20.188  0.00  0.00    +0.295 HD
ENDBRANCH  18  20
ENDBRANCH  17  18
ENDBRANCH  16  17
ENDBRANCH  11  16
ENDBRANCH   8  11
ENDBRANCH   4   7
BRANCH   1  23
ATOM     22  C   UNK A   0       6.188  -2.236  22.635  0.00  0.00    +0.129 C 
ATOM     23  N   UNK A   0       7.644  -2.083  22.697  0.00  0.00    -0.327 N 
BRANCH  23  24
ATOM     24  C   UNK A   0       8.380  -3.260  23.201  0.00  0.00    +0.161 C 
BRANCH  24  25
ATOM     25  C   UNK A   0       7.910  -3.764  24.549  0.00  0.00    +0.077 A 
ATOM     26  N   UNK A   0       6.937  -4.707  24.560  0.00  0.00    -0.242 NA
ATOM     27  C   UNK A   0       6.587  -5.226  25.780  0.00  0.00    +0.148 A 
ATOM     28  C   UNK A   0       7.200  -4.838  26.976  0.00  0.00    +0.185 A 
ATOM     29  N   UNK A   0       6.895  -5.371  28.156  0.00  0.00    -0.193 NA
ATOM     30  C   UNK A   0       5.978  -6.332  28.181  0.00  0.00    +0.216 A 
ATOM     31  N   UNK A   0       5.302  -6.766  27.122  0.00  0.00    -0.198 NA
ATOM     32  N   UNK A   0       5.688  -6.907  29.399  0.00  0.00    -0.327 N 
ATOM     33  H   UNK A   0       4.761  -7.305  29.395  0.00  0.00    +0.145 HD
ATOM     34  H   UNK A   0       5.924  -6.276  30.154  0.00  0.00    +0.145 HD
ATOM     35  N   UNK A   0       8.154  -3.899  26.943  0.00  0.00    -0.232 NA
ATOM     36  C   UNK A   0       5.622  -6.213  25.943  0.00  0.00    +0.149 A 
ATOM     37  N   UNK A   0       4.853  -6.639  24.845  0.00  0.00    -0.341 N 
ATOM     38  H   UNK A   0       5.421  -6.746  24.011  0.00  0.00    +0.144 HD
ATOM     39  H   UNK A   0       4.315  -7.459  25.106  0.00  0.00    +0.144 HD
ATOM     40  C   UNK A   0       8.500  -3.377  25.739  0.00  0.00    +0.138 A 
ENDBRANCH  24  25
ENDBRANCH  23  24
ENDBRANCH   1  23
TORSDOF 11
ENDMDL
MODEL 6
REMARK VINA RESULT:      -7.3      4.484      8.707
REMARK  Name = 
REMARK  12 active torsions:
REMARK  status: ('A' for Active; 'I' for Inactive)
REMARK    1  A    between atoms: C_1  and  N_2
REMARK    2  A    between atoms: N_2  and  C_3
REMARK    3  A    between atoms: N_2  and  C_16
REMARK    4  A    between atoms: C_3  and  C_4
REMARK    5  A    between atoms: C_19  and  C_22
REMARK    6  A    between atoms: N_24  and  CA_25
REMARK    7  A    between atoms: CA_25  and  CB_27
REMARK    8  A    between atoms: CA_25  and  C_32
REMARK    9  A    between atoms: CB_27  and  CG_28
REMARK   10  A    between atoms: CG_28  and  CD_29
REMARK   11  A    between atoms: CD_29  and  OE1_30
REMARK   12  A    between atoms: C_32  and  O_33
REMARK                            x       y       z     vdW  Elec       q    Type
REMARK                         _______ _______ _______ _____ _____    ______ ____
ROOT
ATOM      1  C   UNK A   0       9.650  -0.358  23.373  0.00  0.00    +0.030 A 
ATOM      2  C   UNK A   0       9.633   0.394  22.184  0.00  0.00    +0.024 A 
ATOM      3  C   UNK A   0      10.084   1.724  22.127  0.00  0.00    +0.015 A 
ATOM      4  C   UNK A   0      10.551   2.356  23.275  0.00  0.00    +0.037 A 
ATOM      5  C   UNK A   0      10.613   1.630  24.466  0.00  0.00    +0.015 A 
ATOM      6  C   UNK A   0      10.161   0.303  24.506  0.00  0.00    +0.024 A 
ENDROOT
BRANCH   4   7
ATOM      7  C   UNK A   0      10.957   3.789  23.231  0.00  0.00    +0.245 C 
ATOM      8  N   GLU A   1      10.017   4.693  23.681  0.00  0.00    -0.298 N 
ATOM      9  H   GLU A   1       9.128   4.364  24.038  0.00  0.00    +0.150 HD
ATOM     10  O   UNK A   0      12.049   4.147  22.805  0.00  0.00    -0.270 OA
BRANCH   8  11
ATOM     11  CA  GLU A   1      10.288   6.124  23.675  0.00  0.00    +0.182 C 
BRANCH  11  12
ATOM     12  C   GLU A   1      11.166   6.466  24.886  0.00  0.00    +0.325 C 
ATOM     13  OXT GLU A   1      10.725   6.740  25.994  0.00  0.00    -0.249 OA
BRANCH  12  14
ATOM     14  O   GLU A   1      12.492   6.423  24.621  0.00  0.00    -0.479 OA
ATOM     15  H   GLU A   1      12.951   7.262  24.861  0.00  0.00    +0.295 HD
ENDBRANCH  12  14
ENDBRANCH  11  12
BRANCH  11  16
ATOM     16  CB  GLU A   1       8.986   6.934  23.715  0.00  0.00    +0.045 C 
BRANCH  16  17
ATOM     17  CG  GLU A   1       7.753   6.040  23.597  0.00  0.00    +0.123 C 
BRANCH  17  18
ATOM     18  CD  GLU A   1       7.293   5.951  22.167  0.00  0.00    +0.305 C 
ATOM     19  OE2 GLU A   1       6.891   6.909  21.526  0.00  0.00    -0.251 OA
BRANCH  18  20
ATOM     20  OE1 GLU A   1       7.404   4.713  21.640  0.00  0.00    -0.481 OA
ATOM     21  HE1 GLU A   1       7.642   4.693  20.692  0.00  0.00    +0.295 HD
ENDBRANCH  18  20
ENDBRANCH  17  18
ENDBRANCH  16  17
ENDBRANCH  11  16
ENDBRANCH   8  11
ENDBRANCH   4   7
BRANCH   1  23
ATOM     22  C   UNK A   0      10.063  -2.761  23.769  0.00  0.00    +0.129 C 
ATOM     23  N   UNK A   0       9.150  -1.664  23.438  0.00  0.00    -0.327 N 
BRANCH  23  24
ATOM     24  C   UNK A   0       7.999  -2.038  22.590  0.00  0.00    +0.161 C 
BRANCH  24  25
ATOM     25  C   UNK A   0       7.072  -3.063  23.206  0.00  0.00    +0.077 A 
ATOM     26  N   UNK A   0       7.556  -3.811  24.226  0.00  0.00    -0.242 NA
ATOM     27  C   UNK A   0       6.680  -4.668  24.840  0.00  0.00    +0.148 A 
ATOM     28  C   UNK A   0       5.335  -4.775  24.470  0.00  0.00    +0.185 A 
ATOM     29  N   UNK A   0       4.470  -5.572  25.092  0.00  0.00    -0.193 NA
ATOM     30  C   UNK A   0       4.915  -6.278  26.126  0.00  0.00    +0.216 A 
ATOM     31  N   UNK A   0       6.173  -6.288  26.555  0.00  0.00    -0.198 NA
ATOM     32  N   UNK A   0       4.009  -7.076  26.791  0.00  0.00    -0.327 N 
ATOM     33  H   UNK A   0       4.480  -7.833  27.264  0.00  0.00    +0.145 HD
ATOM     34  H   UNK A   0       3.234  -7.312  26.185  0.00  0.00    +0.145 HD
ATOM     35  N   UNK A   0       4.879  -4.031  23.454  0.00  0.00    -0.232 NA
ATOM     36  C   UNK A   0       7.029  -5.482  25.911  0.00  0.00    +0.149 A 
ATOM     37  N   UNK A   0       8.367  -5.554  26.339  0.00  0.00    -0.341 N 
ATOM     38  H   UNK A   0       8.805  -4.639  26.351  0.00  0.00    +0.144 HD
ATOM     39  H   UNK A   0       8.417  -6.065  27.214  0.00  0.00    +0.144 HD
ATOM     40  C   UNK A   0       5.744  -3.186  22.838  0.00  0.00    +0.138 A 
ENDBRANCH  24  25
ENDBRANCH  23  24
ENDBRANCH   1  23
TORSDOF 11
ENDMDL
MODEL 7
REMARK VINA RESULT:      -7.2      4.394      8.705
REMARK  Name = 
REMARK  12 active torsions:
REMARK  status: ('A' for Active; 'I' for Inactive)
REMARK    1  A    between atoms: C_1  and  N_2
REMARK    2  A    between atoms: N_2  and  C_3
REMARK    3  A    between atoms: N_2  and  C_16
REMARK    4  A    between atoms: C_3  and  C_4
REMARK    5  A    between atoms: C_19  and  C_22
REMARK    6  A    between atoms: N_24  and  CA_25
REMARK    7  A    between atoms: CA_25  and  CB_27
REMARK    8  A    between atoms: CA_25  and  C_32
REMARK    9  A    between atoms: CB_27  and  CG_28
REMARK   10  A    between atoms: CG_28  and  CD_29
REMARK   11  A    between atoms: CD_29  and  OE1_30
REMARK   12  A    between atoms: C_32  and  O_33
REMARK                            x       y       z     vdW  Elec       q    Type
REMARK                         _______ _______ _______ _____ _____    ______ ____
ROOT
ATOM      1  C   UNK A   0       9.155  -0.313  24.782  0.00  0.00    +0.030 A 
ATOM      2  C   UNK A   0       8.294   0.793  24.664  0.00  0.00    +0.024 A 
ATOM      3  C   UNK A   0       8.751   2.066  24.281  0.00  0.00    +0.015 A 
ATOM      4  C   UNK A   0      10.102   2.278  24.022  0.00  0.00    +0.037 A 
ATOM      5  C   UNK A   0      10.980   1.195  24.098  0.00  0.00    +0.015 A 
ATOM      6  C   UNK A   0      10.508  -0.069  24.479  0.00  0.00    +0.024 A 
ENDROOT
BRANCH   4   7
ATOM      7  C   UNK A   0      10.597   3.644  23.691  0.00  0.00    +0.245 C 
ATOM      8  N   GLU A   1       9.757   4.684  24.028  0.00  0.00    -0.298 N 
ATOM      9  H   GLU A   1       8.878   4.496  24.495  0.00  0.00    +0.150 HD
ATOM     10  O   UNK A   0      11.674   3.833  23.138  0.00  0.00    -0.270 OA
BRANCH   8  11
ATOM     11  CA  GLU A   1      10.121   6.066  23.744  0.00  0.00    +0.182 C 
BRANCH  11  12
ATOM     12  C   GLU A   1      11.043   6.573  24.861  0.00  0.00    +0.325 C 
ATOM     13  OXT GLU A   1      10.645   6.971  25.947  0.00  0.00    -0.249 OA
BRANCH  12  14
ATOM     14  O   GLU A   1      12.356   6.528  24.538  0.00  0.00    -0.479 OA
ATOM     15  H   GLU A   1      12.867   7.273  24.933  0.00  0.00    +0.295 HD
ENDBRANCH  12  14
ENDBRANCH  11  12
BRANCH  11  16
ATOM     16  CB  GLU A   1       8.876   6.955  23.636  0.00  0.00    +0.045 C 
BRANCH  16  17
ATOM     17  CG  GLU A   1       7.585   6.140  23.687  0.00  0.00    +0.123 C 
BRANCH  17  18
ATOM     18  CD  GLU A   1       6.945   6.067  22.328  0.00  0.00    +0.305 C 
ATOM     19  OE2 GLU A   1       7.065   6.935  21.477  0.00  0.00    -0.251 OA
BRANCH  18  20
ATOM     20  OE1 GLU A   1       6.254   4.927  22.116  0.00  0.00    -0.481 OA
ATOM     21  HE1 GLU A   1       6.102   4.710  21.175  0.00  0.00    +0.295 HD
ENDBRANCH  18  20
ENDBRANCH  17  18
ENDBRANCH  16  17
ENDBRANCH  11  16
ENDBRANCH   8  11
ENDBRANCH   4   7
BRANCH   1  23
ATOM     22  C   UNK A   0       8.459  -1.781  26.644  0.00  0.00    +0.129 C 
ATOM     23  N   UNK A   0       8.706  -1.567  25.215  0.00  0.00    -0.327 N 
BRANCH  23  24
ATOM     24  C   UNK A   0       9.096  -2.773  24.457  0.00  0.00    +0.161 C 
BRANCH  24  25
ATOM     25  C   UNK A   0       7.935  -3.563  23.893  0.00  0.00    +0.077 A 
ATOM     26  N   UNK A   0       7.286  -4.407  24.731  0.00  0.00    -0.242 NA
ATOM     27  C   UNK A   0       6.178  -5.044  24.237  0.00  0.00    +0.148 A 
ATOM     28  C   UNK A   0       5.698  -4.841  22.939  0.00  0.00    +0.185 A 
ATOM     29  N   UNK A   0       4.598  -5.423  22.471  0.00  0.00    -0.193 NA
ATOM     30  C   UNK A   0       3.920  -6.216  23.293  0.00  0.00    +0.216 A 
ATOM     31  N   UNK A   0       4.287  -6.514  24.536  0.00  0.00    -0.198 NA
ATOM     32  N   UNK A   0       2.762  -6.790  22.817  0.00  0.00    -0.327 N 
ATOM     33  H   UNK A   0       2.548  -7.636  23.324  0.00  0.00    +0.145 HD
ATOM     34  H   UNK A   0       2.781  -6.841  21.807  0.00  0.00    +0.145 HD
ATOM     35  N   UNK A   0       6.359  -4.008  22.125  0.00  0.00    -0.232 NA
ATOM     36  C   UNK A   0       5.402  -5.921  24.987  0.00  0.00    +0.149 A 
ATOM     37  N   UNK A   0       5.808  -6.298  26.280  0.00  0.00    -0.341 N 
ATOM     38  H   UNK A   0       6.166  -5.507  26.804  0.00  0.00    +0.144 HD
ATOM     39  H   UNK A   0       5.059  -6.811  26.735  0.00  0.00    +0.144 HD
ATOM     40  C   UNK A   0       7.462  -3.380  22.606  0.00  0.00    +0.138 A 
ENDBRANCH  24  25
ENDBRANCH  23  24
ENDBRANCH   1  23
TORSDOF 11
ENDMDL
MODEL 8
REMARK VINA RESULT:      -7.0      4.344      8.477
REMARK  Name = 
REMARK  12 active torsions:
REMARK  status: ('A' for Active; 'I' for Inactive)
REMARK    1  A    between atoms: C_1  and  N_2
REMARK    2  A    between atoms: N_2  and  C_3
REMARK    3  A    between atoms: N_2  and  C_16
REMARK    4  A    between atoms: C_3  and  C_4
REMARK    5  A    between atoms: C_19  and  C_22
REMARK    6  A    between atoms: N_24  and  CA_25
REMARK    7  A    between atoms: CA_25  and  CB_27
REMARK    8  A    between atoms: CA_25  and  C_32
REMARK    9  A    between atoms: CB_27  and  CG_28
REMARK   10  A    between atoms: CG_28  and  CD_29
REMARK   11  A    between atoms: CD_29  and  OE1_30
REMARK   12  A    between atoms: C_32  and  O_33
REMARK                            x       y       z     vdW  Elec       q    Type
REMARK                         _______ _______ _______ _____ _____    ______ ____
ROOT
ATOM      1  C   UNK A   0       8.834  -0.791  23.583  0.00  0.00    +0.030 A 
ATOM      2  C   UNK A   0       9.901  -0.026  24.090  0.00  0.00    +0.024 A 
ATOM      3  C   UNK A   0       9.753   1.325  24.452  0.00  0.00    +0.015 A 
ATOM      4  C   UNK A   0       8.527   1.963  24.295  0.00  0.00    +0.037 A 
ATOM      5  C   UNK A   0       7.438   1.226  23.825  0.00  0.00    +0.015 A 
ATOM      6  C   UNK A   0       7.602  -0.121  23.471  0.00  0.00    +0.024 A 
ENDROOT
BRANCH   4   7
ATOM      7  C   UNK A   0       8.391   3.415  24.606  0.00  0.00    +0.245 C 
ATOM      8  N   GLU A   1       8.848   4.281  23.635  0.00  0.00    -0.298 N 
ATOM      9  H   GLU A   1       9.220   3.918  22.765  0.00  0.00    +0.150 HD
ATOM     10  O   UNK A   0       7.921   3.816  25.664  0.00  0.00    -0.270 OA
BRANCH   8  11
ATOM     11  CA  GLU A   1       8.783   5.724  23.825  0.00  0.00    +0.182 C 
BRANCH  11  12
ATOM     12  C   GLU A   1       7.619   6.280  22.994  0.00  0.00    +0.325 C 
ATOM     13  OXT GLU A   1       6.589   6.730  23.477  0.00  0.00    -0.249 OA
BRANCH  12  14
ATOM     14  O   GLU A   1       7.841   6.241  21.660  0.00  0.00    -0.479 OA
ATOM     15  H   GLU A   1       7.040   6.480  21.138  0.00  0.00    +0.295 HD
ENDBRANCH  12  14
ENDBRANCH  11  12
BRANCH  11  16
ATOM     16  CB  GLU A   1      10.100   6.396  23.415  0.00  0.00    +0.045 C 
BRANCH  16  17
ATOM     17  CG  GLU A   1      11.277   5.908  24.259  0.00  0.00    +0.123 C 
BRANCH  17  18
ATOM     18  CD  GLU A   1      12.219   5.077  23.433  0.00  0.00    +0.305 C 
ATOM     19  OE2 GLU A   1      13.432   5.211  23.451  0.00  0.00    -0.251 OA
BRANCH  18  20
ATOM     20  OE1 GLU A   1      11.599   4.132  22.694  0.00  0.00    -0.481 OA
ATOM     21  HE1 GLU A   1      11.202   3.403  23.212  0.00  0.00    +0.295 HD
ENDBRANCH  18  20
ENDBRANCH  17  18
ENDBRANCH  16  17
ENDBRANCH  11  16
ENDBRANCH   8  11
ENDBRANCH   4   7
BRANCH   1  23
ATOM     22  C   UNK A   0       7.923  -2.770  22.419  0.00  0.00    +0.129 C 
ATOM     23  N   UNK A   0       8.998  -2.120  23.174  0.00  0.00    -0.327 N 
BRANCH  23  24
ATOM     24  C   UNK A   0       9.833  -3.027  23.988  0.00  0.00    +0.161 C 
BRANCH  24  25
ATOM     25  C   UNK A   0       9.075  -3.794  25.050  0.00  0.00    +0.077 A 
ATOM     26  N   UNK A   0       8.016  -3.178  25.630  0.00  0.00    -0.242 NA
ATOM     27  C   UNK A   0       7.279  -3.916  26.520  0.00  0.00    +0.148 A 
ATOM     28  C   UNK A   0       7.565  -5.251  26.823  0.00  0.00    +0.185 A 
ATOM     29  N   UNK A   0       6.825  -5.984  27.651  0.00  0.00    -0.193 NA
ATOM     30  C   UNK A   0       5.755  -5.413  28.193  0.00  0.00    +0.216 A 
ATOM     31  N   UNK A   0       5.394  -4.146  28.011  0.00  0.00    -0.198 NA
ATOM     32  N   UNK A   0       4.971  -6.184  29.023  0.00  0.00    -0.327 N 
ATOM     33  H   UNK A   0       4.455  -5.603  29.668  0.00  0.00    +0.145 HD
ATOM     34  H   UNK A   0       5.510  -6.948  29.409  0.00  0.00    +0.145 HD
ATOM     35  N   UNK A   0       8.619  -5.838  26.243  0.00  0.00    -0.232 NA
ATOM     36  C   UNK A   0       6.156  -3.424  27.176  0.00  0.00    +0.149 A 
ATOM     37  N   UNK A   0       5.796  -2.070  27.046  0.00  0.00    -0.341 N 
ATOM     38  H   UNK A   0       5.893  -1.749  26.088  0.00  0.00    +0.144 HD
ATOM     39  H   UNK A   0       4.880  -1.922  27.458  0.00  0.00    +0.144 HD
ATOM     40  C   UNK A   0       9.358  -5.110  25.367  0.00  0.00    +0.138 A 
ENDBRANCH  24  25
ENDBRANCH  23  24
ENDBRANCH   1  23
TORSDOF 11
ENDMDL
MODEL 9
REMARK VINA RESULT:      -7.0      3.040      4.705
REMARK  Name = 
REMARK  12 active torsions:
REMARK  status: ('A' for Active; 'I' for Inactive)
REMARK    1  A    between atoms: C_1  and  N_2
REMARK    2  A    between atoms: N_2  and  C_3
REMARK    3  A    between atoms: N_2  and  C_16
REMARK    4  A    between atoms: C_3  and  C_4
REMARK    5  A    between atoms: C_19  and  C_22
REMARK    6  A    between atoms: N_24  and  CA_25
REMARK    7  A    between atoms: CA_25  and  CB_27
REMARK    8  A    between atoms: CA_25  and  C_32
REMARK    9  A    between atoms: CB_27  and  CG_28
REMARK   10  A    between atoms: CG_28  and  CD_29
REMARK   11  A    between atoms: CD_29  and  OE1_30
REMARK   12  A    between atoms: C_32  and  O_33
REMARK                            x       y       z     vdW  Elec       q    Type
REMARK                         _______ _______ _______ _____ _____    ______ ____
ROOT
ATOM      1  C   UNK A   0       8.936  -1.935  23.938  0.00  0.00    +0.030 A 
ATOM      2  C   UNK A   0       7.609  -1.876  24.402  0.00  0.00    +0.024 A 
ATOM      3  C   UNK A   0       7.005  -2.941  25.093  0.00  0.00    +0.015 A 
ATOM      4  C   UNK A   0       7.711  -4.118  25.324  0.00  0.00    +0.037 A 
ATOM      5  C   UNK A   0       9.040  -4.199  24.906  0.00  0.00    +0.015 A 
ATOM      6  C   UNK A   0       9.629  -3.128  24.220  0.00  0.00    +0.024 A 
ENDROOT
BRANCH   4   7
ATOM      7  C   UNK A   0       7.045  -5.274  25.988  0.00  0.00    +0.245 C 
ATOM      8  N   GLU A   1       5.707  -5.445  25.696  0.00  0.00    -0.298 N 
ATOM      9  H   GLU A   1       5.247  -4.820  25.044  0.00  0.00    +0.150 HD
ATOM     10  O   UNK A   0       7.640  -6.017  26.760  0.00  0.00    -0.270 OA
BRANCH   8  11
ATOM     11  CA  GLU A   1       4.941  -6.530  26.293  0.00  0.00    +0.182 C 
BRANCH  11  12
ATOM     12  C   GLU A   1       3.989  -7.103  25.234  0.00  0.00    +0.325 C 
ATOM     13  OXT GLU A   1       2.775  -7.174  25.374  0.00  0.00    -0.249 OA
BRANCH  12  14
ATOM     14  O   GLU A   1       4.618  -7.517  24.110  0.00  0.00    -0.479 OA
ATOM     15  H   GLU A   1       4.251  -7.097  23.298  0.00  0.00    +0.295 HD
ENDBRANCH  12  14
ENDBRANCH  11  12
BRANCH  11  16
ATOM     16  CB  GLU A   1       4.150  -6.043  27.513  0.00  0.00    +0.045 C 
BRANCH  16  17
ATOM     17  CG  GLU A   1       4.477  -6.854  28.766  0.00  0.00    +0.123 C 
BRANCH  17  18
ATOM     18  CD  GLU A   1       5.806  -6.443  29.337  0.00  0.00    +0.305 C 
ATOM     19  OE2 GLU A   1       6.023  -5.343  29.820  0.00  0.00    -0.251 OA
BRANCH  18  20
ATOM     20  OE1 GLU A   1       6.735  -7.423  29.304  0.00  0.00    -0.481 OA
ATOM     21  HE1 GLU A   1       7.074  -7.633  28.411  0.00  0.00    +0.295 HD
ENDBRANCH  18  20
ENDBRANCH  17  18
ENDBRANCH  16  17
ENDBRANCH  11  16
ENDBRANCH   8  11
ENDBRANCH   4   7
BRANCH   1  23
ATOM     22  C   UNK A   0       9.990  -1.160  21.842  0.00  0.00    +0.129 C 
ATOM     23  N   UNK A   0       9.517  -0.894  23.203  0.00  0.00    -0.327 N 
BRANCH  23  24
ATOM     24  C   UNK A   0      10.235   0.179  23.921  0.00  0.00    +0.161 C 
BRANCH  24  25
ATOM     25  C   UNK A   0       9.720   1.575  23.641  0.00  0.00    +0.077 A 
ATOM     26  N   UNK A   0       8.406   1.707  23.338  0.00  0.00    -0.242 NA
ATOM     27  C   UNK A   0       7.928   2.982  23.182  0.00  0.00    +0.148 A 
ATOM     28  C   UNK A   0       8.728   4.119  23.341  0.00  0.00    +0.185 A 
ATOM     29  N   UNK A   0       8.259   5.359  23.234  0.00  0.00    -0.193 NA
ATOM     30  C   UNK A   0       6.963   5.510  22.985  0.00  0.00    +0.216 A 
ATOM     31  N   UNK A   0       6.106   4.514  22.783  0.00  0.00    -0.198 NA
ATOM     32  N   UNK A   0       6.473   6.796  22.909  0.00  0.00    -0.327 N 
ATOM     33  H   UNK A   0       5.632   6.825  22.352  0.00  0.00    +0.145 HD
ATOM     34  H   UNK A   0       7.213   7.444  22.675  0.00  0.00    +0.145 HD
ATOM     35  N   UNK A   0      10.026   3.965  23.633  0.00  0.00    -0.232 NA
ATOM     36  C   UNK A   0       6.600   3.272  22.890  0.00  0.00    +0.149 A 
ATOM     37  N   UNK A   0       5.694   2.233  22.610  0.00  0.00    -0.341 N 
ATOM     38  H   UNK A   0       5.820   1.449  23.240  0.00  0.00    +0.144 HD
ATOM     39  H   UNK A   0       4.751   2.607  22.574  0.00  0.00    +0.144 HD
ATOM     40  C   UNK A   0      10.506   2.704  23.782  0.00  0.00    +0.138 A 
ENDBRANCH  24  25
ENDBRANCH  23  24
ENDBRANCH   1  23
TORSDOF 11
ENDMDL
