MODEL 1
REMARK VINA RESULT:      -5.2      0.000      0.000
REMARK  Name = 
REMARK  13 active torsions:
REMARK  status: ('A' for Active; 'I' for Inactive)
REMARK    1  A    between atoms: O_1  and  C_2
REMARK    2  A    between atoms: C_2  and  C_3
REMARK    3  A    between atoms: C_3  and  C_5
REMARK    4  A    between atoms: C_5  and  O_7
REMARK    5  A    between atoms: C_5  and  C_8
REMARK    6  A    between atoms: C_8  and  O_10
REMARK    7  A    between atoms: C_8  and  C_11
REMARK    8  A    between atoms: C_11  and  O_13
REMARK    9  A    between atoms: C_11  and  C_14
REMARK   10  A    between atoms: C_14  and  O_15
REMARK   11  A    between atoms: O_15  and  P_16
REMARK   12  A    between atoms: P_16  and  O_17
REMARK   13  A    between atoms: P_16  and  O_18
REMARK                            x       y       z     vdW  Elec       q    Type
REMARK                         _______ _______ _______ _____ _____    ______ ____
ROOT
ATOM      1  C   UNL     1      10.509  -0.102  23.311  0.00  0.00    +0.181 C 
ENDROOT
BRANCH   1   2
ATOM      2  O   UNL     1      10.598  -0.081  24.747  0.00  0.00    -0.386 OA
ATOM      3  H   UNL     1      11.424  -0.527  25.002  0.00  0.00    +0.210 HD
ENDBRANCH   1   2
BRANCH   1   4
ATOM      4  C   UNL     1       9.419   0.879  22.824  0.00  0.00    +0.213 C 
BRANCH   4   5
ATOM      5  C   UNL     1       9.159   1.978  23.856  0.00  0.00    +0.189 C 
ATOM      6  O   UNL     1       8.587   1.728  24.921  0.00  0.00    -0.292 OA
BRANCH   5   7
ATOM      7  C   UNL     1       9.601   3.392  23.502  0.00  0.00    +0.232 C 
BRANCH   7   8
ATOM      8  O   UNL     1      10.938   3.367  23.011  0.00  0.00    -0.387 OA
ATOM      9  H   UNL     1      11.113   2.447  22.736  0.00  0.00    +0.210 HD
ENDBRANCH   7   8
ENDBRANCH   5   7
ENDBRANCH   4   5
BRANCH   4  10
ATOM     10  O   UNL     1       9.693   1.330  21.503  0.00  0.00    -0.382 OA
ATOM     11  H   UNL     1       9.715   2.308  21.546  0.00  0.00    +0.210 HD
ENDBRANCH   4  10
ENDBRANCH   1   4
BRANCH   1  12
ATOM     12  C   UNL     1      10.355  -1.567  22.860  0.00  0.00    +0.172 C 
BRANCH  12  13
ATOM     13  O   UNL     1       9.991  -1.633  21.475  0.00  0.00    -0.387 OA
ATOM     14  H   UNL     1      10.061  -0.712  21.151  0.00  0.00    +0.210 HD
ENDBRANCH  12  13
BRANCH  12  15
ATOM     15  C   UNL     1       9.356  -2.405  23.663  0.00  0.00    +0.206 C 
BRANCH  15  16
ATOM     16  O   UNL     1      10.071  -3.532  24.187  0.00  0.00    -0.284 OA
BRANCH  16  17
ATOM     17  P   UNL     1       9.120  -4.539  25.225  0.00  0.00    +0.472 P 
ATOM     18  O   UNL     1       8.271  -5.439  26.155  0.00  0.00    -0.228 OA
BRANCH  17  19
ATOM     19  O   UNL     1      10.439  -5.494  25.382  0.00  0.00    -0.303 OA
ATOM     20  H   UNL     1      11.193  -4.895  25.560  0.00  0.00    +0.222 HD
ENDBRANCH  17  19
BRANCH  17  21
ATOM     21  O   UNL     1       8.595  -5.241  23.847  0.00  0.00    -0.303 OA
ATOM     22  H   UNL     1       8.736  -4.607  23.123  0.00  0.00    +0.222 HD
ENDBRANCH  17  21
ENDBRANCH  16  17
ENDBRANCH  15  16
ENDBRANCH  12  15
ENDBRANCH   1  12
TORSDOF 13
ENDMDL
MODEL 2
REMARK VINA RESULT:      -5.1      3.200      6.132
REMARK  Name = 
REMARK  13 active torsions:
REMARK  status: ('A' for Active; 'I' for Inactive)
REMARK    1  A    between atoms: O_1  and  C_2
REMARK    2  A    between atoms: C_2  and  C_3
REMARK    3  A    between atoms: C_3  and  C_5
REMARK    4  A    between atoms: C_5  and  O_7
REMARK    5  A    between atoms: C_5  and  C_8
REMARK    6  A    between atoms: C_8  and  O_10
REMARK    7  A    between atoms: C_8  and  C_11
REMARK    8  A    between atoms: C_11  and  O_13
REMARK    9  A    between atoms: C_11  and  C_14
REMARK   10  A    between atoms: C_14  and  O_15
REMARK   11  A    between atoms: O_15  and  P_16
REMARK   12  A    between atoms: P_16  and  O_17
REMARK   13  A    between atoms: P_16  and  O_18
REMARK                            x       y       z     vdW  Elec       q    Type
REMARK                         _______ _______ _______ _____ _____    ______ ____
ROOT
ATOM      1  C   UNL     1       8.546   0.113  22.109  0.00  0.00    +0.181 C 
ENDROOT
BRANCH   1   2
ATOM      2  O   UNL     1       7.650   0.021  23.231  0.00  0.00    -0.386 OA
ATOM      3  H   UNL     1       7.079  -0.755  23.094  0.00  0.00    +0.210 HD
ENDBRANCH   1   2
BRANCH   1   4
ATOM      4  C   UNL     1       9.948  -0.409  22.493  0.00  0.00    +0.213 C 
BRANCH   4   5
ATOM      5  C   UNL     1      10.050  -0.671  23.998  0.00  0.00    +0.189 C 
ATOM      6  O   UNL     1       9.614  -1.716  24.492  0.00  0.00    -0.292 OA
BRANCH   5   7
ATOM      7  C   UNL     1      10.673   0.417  24.860  0.00  0.00    +0.232 C 
BRANCH   7   8
ATOM      8  O   UNL     1      10.993   1.545  24.049  0.00  0.00    -0.387 OA
ATOM      9  H   UNL     1      10.493   2.299  24.417  0.00  0.00    +0.210 HD
ENDBRANCH   7   8
ENDBRANCH   5   7
ENDBRANCH   4   5
BRANCH   4  10
ATOM     10  O   UNL     1      10.336  -1.490  21.655  0.00  0.00    -0.382 OA
ATOM     11  H   UNL     1      10.315  -2.294  22.215  0.00  0.00    +0.210 HD
ENDBRANCH   4  10
ENDBRANCH   1   4
BRANCH   1  12
ATOM     12  C   UNL     1       8.484   1.553  21.562  0.00  0.00    +0.172 C 
BRANCH  12  13
ATOM     13  O   UNL     1       9.805   2.091  21.408  0.00  0.00    -0.387 OA
ATOM     14  H   UNL     1      10.174   2.116  22.314  0.00  0.00    +0.210 HD
ENDBRANCH  12  13
BRANCH  12  15
ATOM     15  C   UNL     1       7.654   2.539  22.390  0.00  0.00    +0.206 C 
BRANCH  15  16
ATOM     16  O   UNL     1       8.417   2.858  23.561  0.00  0.00    -0.284 OA
BRANCH  16  17
ATOM     17  P   UNL     1       8.671   4.554  23.787  0.00  0.00    +0.472 P 
ATOM     18  O   UNL     1       8.897   6.073  23.990  0.00  0.00    -0.228 OA
BRANCH  17  19
ATOM     19  O   UNL     1       8.128   4.765  22.259  0.00  0.00    -0.303 OA
ATOM     20  H   UNL     1       8.864   5.175  21.760  0.00  0.00    +0.222 HD
ENDBRANCH  17  19
BRANCH  17  21
ATOM     21  O   UNL     1      10.216   4.248  23.353  0.00  0.00    -0.303 OA
ATOM     22  H   UNL     1      10.733   5.053  23.525  0.00  0.00    +0.222 HD
ENDBRANCH  17  21
ENDBRANCH  16  17
ENDBRANCH  15  16
ENDBRANCH  12  15
ENDBRANCH   1  12
TORSDOF 13
ENDMDL
MODEL 3
REMARK VINA RESULT:      -5.1      1.593      2.331
REMARK  Name = 
REMARK  13 active torsions:
REMARK  status: ('A' for Active; 'I' for Inactive)
REMARK    1  A    between atoms: O_1  and  C_2
REMARK    2  A    between atoms: C_2  and  C_3
REMARK    3  A    between atoms: C_3  and  C_5
REMARK    4  A    between atoms: C_5  and  O_7
REMARK    5  A    between atoms: C_5  and  C_8
REMARK    6  A    between atoms: C_8  and  O_10
REMARK    7  A    between atoms: C_8  and  C_11
REMARK    8  A    between atoms: C_11  and  O_13
REMARK    9  A    between atoms: C_11  and  C_14
REMARK   10  A    between atoms: C_14  and  O_15
REMARK   11  A    between atoms: O_15  and  P_16
REMARK   12  A    between atoms: P_16  and  O_17
REMARK   13  A    between atoms: P_16  and  O_18
REMARK                            x       y       z     vdW  Elec       q    Type
REMARK                         _______ _______ _______ _____ _____    ______ ____
ROOT
ATOM      1  C   UNL     1       8.998  -2.119  22.913  0.00  0.00    +0.181 C 
ENDROOT
BRANCH   1   2
ATOM      2  O   UNL     1       9.591  -1.864  24.199  0.00  0.00    -0.386 OA
ATOM      3  H   UNL     1      10.550  -1.758  24.070  0.00  0.00    +0.210 HD
ENDBRANCH   1   2
BRANCH   1   4
ATOM      4  C   UNL     1       8.938  -0.819  22.079  0.00  0.00    +0.213 C 
BRANCH   4   5
ATOM      5  C   UNL     1       8.955   0.419  22.979  0.00  0.00    +0.189 C 
ATOM      6  O   UNL     1       8.105   0.575  23.862  0.00  0.00    -0.292 OA
BRANCH   5   7
ATOM      7  C   UNL     1      10.034   1.461  22.719  0.00  0.00    +0.232 C 
BRANCH   7   8
ATOM      8  O   UNL     1       9.820   2.064  21.446  0.00  0.00    -0.387 OA
ATOM      9  H   UNL     1      10.500   1.697  20.849  0.00  0.00    +0.210 HD
ENDBRANCH   7   8
ENDBRANCH   5   7
ENDBRANCH   4   5
BRANCH   4  10
ATOM     10  O   UNL     1       9.909  -0.836  21.041  0.00  0.00    -0.382 OA
ATOM     11  H   UNL     1       9.689  -1.601  20.471  0.00  0.00    +0.210 HD
ENDBRANCH   4  10
ENDBRANCH   1   4
BRANCH   1  12
ATOM     12  C   UNL     1       7.656  -2.843  23.138  0.00  0.00    +0.172 C 
BRANCH  12  13
ATOM     13  O   UNL     1       6.945  -2.258  24.238  0.00  0.00    -0.387 OA
ATOM     14  H   UNL     1       7.429  -1.431  24.439  0.00  0.00    +0.210 HD
ENDBRANCH  12  13
BRANCH  12  15
ATOM     15  C   UNL     1       7.751  -4.354  23.373  0.00  0.00    +0.206 C 
BRANCH  15  16
ATOM     16  O   UNL     1       8.877  -4.580  24.231  0.00  0.00    -0.284 OA
BRANCH  16  17
ATOM     17  P   UNL     1       8.447  -5.126  25.816  0.00  0.00    +0.472 P 
ATOM     18  O   UNL     1       8.061  -5.614  27.234  0.00  0.00    -0.228 OA
BRANCH  17  19
ATOM     19  O   UNL     1       8.744  -3.605  26.340  0.00  0.00    -0.303 OA
ATOM     20  H   UNL     1       8.136  -3.451  27.092  0.00  0.00    +0.222 HD
ENDBRANCH  17  19
BRANCH  17  21
ATOM     21  O   UNL     1       9.999  -5.624  25.924  0.00  0.00    -0.303 OA
ATOM     22  H   UNL     1      10.491  -4.944  26.416  0.00  0.00    +0.222 HD
ENDBRANCH  17  21
ENDBRANCH  16  17
ENDBRANCH  15  16
ENDBRANCH  12  15
ENDBRANCH   1  12
TORSDOF 13
ENDMDL
MODEL 4
REMARK VINA RESULT:      -5.1      1.280      1.903
REMARK  Name = 
REMARK  13 active torsions:
REMARK  status: ('A' for Active; 'I' for Inactive)
REMARK    1  A    between atoms: O_1  and  C_2
REMARK    2  A    between atoms: C_2  and  C_3
REMARK    3  A    between atoms: C_3  and  C_5
REMARK    4  A    between atoms: C_5  and  O_7
REMARK    5  A    between atoms: C_5  and  C_8
REMARK    6  A    between atoms: C_8  and  O_10
REMARK    7  A    between atoms: C_8  and  C_11
REMARK    8  A    between atoms: C_11  and  O_13
REMARK    9  A    between atoms: C_11  and  C_14
REMARK   10  A    between atoms: C_14  and  O_15
REMARK   11  A    between atoms: O_15  and  P_16
REMARK   12  A    between atoms: P_16  and  O_17
REMARK   13  A    between atoms: P_16  and  O_18
REMARK                            x       y       z     vdW  Elec       q    Type
REMARK                         _______ _______ _______ _____ _____    ______ ____
ROOT
ATOM      1  C   UNL     1       8.844  -1.043  22.154  0.00  0.00    +0.181 C 
ENDROOT
BRANCH   1   2
ATOM      2  O   UNL     1      10.002  -0.830  21.326  0.00  0.00    -0.386 OA
ATOM      3  H   UNL     1      10.777  -1.175  21.802  0.00  0.00    +0.210 HD
ENDBRANCH   1   2
BRANCH   1   4
ATOM      4  C   UNL     1       8.728   0.073  23.215  0.00  0.00    +0.213 C 
BRANCH   4   5
ATOM      5  C   UNL     1      10.052   0.820  23.383  0.00  0.00    +0.189 C 
ATOM      6  O   UNL     1      11.008   0.299  23.967  0.00  0.00    -0.292 OA
BRANCH   5   7
ATOM      7  C   UNL     1      10.132   2.239  22.837  0.00  0.00    +0.232 C 
BRANCH   7   8
ATOM      8  O   UNL     1       9.892   2.225  21.432  0.00  0.00    -0.387 OA
ATOM      9  H   UNL     1      10.657   2.666  21.017  0.00  0.00    +0.210 HD
ENDBRANCH   7   8
ENDBRANCH   5   7
ENDBRANCH   4   5
BRANCH   4  10
ATOM     10  O   UNL     1       7.589   0.889  22.972  0.00  0.00    -0.382 OA
ATOM     11  H   UNL     1       7.198   0.573  22.132  0.00  0.00    +0.210 HD
ENDBRANCH   4  10
ENDBRANCH   1   4
BRANCH   1  12
ATOM     12  C   UNL     1       8.897  -2.488  22.689  0.00  0.00    +0.172 C 
BRANCH  12  13
ATOM     13  O   UNL     1       7.714  -3.207  22.315  0.00  0.00    -0.387 OA
ATOM     14  H   UNL     1       7.895  -4.137  22.563  0.00  0.00    +0.210 HD
ENDBRANCH  12  13
BRANCH  12  15
ATOM     15  C   UNL     1       9.088  -2.626  24.202  0.00  0.00    +0.206 C 
BRANCH  15  16
ATOM     16  O   UNL     1       9.649  -3.923  24.443  0.00  0.00    -0.284 OA
BRANCH  16  17
ATOM     17  P   UNL     1       8.728  -4.887  25.545  0.00  0.00    +0.472 P 
ATOM     18  O   UNL     1       7.905  -5.750  26.532  0.00  0.00    -0.228 OA
BRANCH  17  19
ATOM     19  O   UNL     1       9.909  -6.013  25.431  0.00  0.00    -0.303 OA
ATOM     20  H   UNL     1       9.673  -6.723  26.063  0.00  0.00    +0.222 HD
ENDBRANCH  17  19
BRANCH  17  21
ATOM     21  O   UNL     1       7.916  -5.392  24.221  0.00  0.00    -0.303 OA
ATOM     22  H   UNL     1       7.104  -4.861  24.155  0.00  0.00    +0.222 HD
ENDBRANCH  17  21
ENDBRANCH  16  17
ENDBRANCH  15  16
ENDBRANCH  12  15
ENDBRANCH   1  12
TORSDOF 13
ENDMDL
MODEL 5
REMARK VINA RESULT:      -5.1      2.447      6.301
REMARK  Name = 
REMARK  13 active torsions:
REMARK  status: ('A' for Active; 'I' for Inactive)
REMARK    1  A    between atoms: O_1  and  C_2
REMARK    2  A    between atoms: C_2  and  C_3
REMARK    3  A    between atoms: C_3  and  C_5
REMARK    4  A    between atoms: C_5  and  O_7
REMARK    5  A    between atoms: C_5  and  C_8
REMARK    6  A    between atoms: C_8  and  O_10
REMARK    7  A    between atoms: C_8  and  C_11
REMARK    8  A    between atoms: C_11  and  O_13
REMARK    9  A    between atoms: C_11  and  C_14
REMARK   10  A    between atoms: C_14  and  O_15
REMARK   11  A    between atoms: O_15  and  P_16
REMARK   12  A    between atoms: P_16  and  O_17
REMARK   13  A    between atoms: P_16  and  O_18
REMARK                            x       y       z     vdW  Elec       q    Type
REMARK                         _______ _______ _______ _____ _____    ______ ____
ROOT
ATOM      1  C   UNL     1       8.270  -2.690  22.528  0.00  0.00    +0.181 C 
ENDROOT
BRANCH   1   2
ATOM      2  O   UNL     1       6.847  -2.515  22.661  0.00  0.00    -0.386 OA
ATOM      3  H   UNL     1       6.679  -1.576  22.851  0.00  0.00    +0.210 HD
ENDBRANCH   1   2
BRANCH   1   4
ATOM      4  C   UNL     1       8.875  -3.209  23.851  0.00  0.00    +0.213 C 
BRANCH   4   5
ATOM      5  C   UNL     1       8.379  -4.620  24.174  0.00  0.00    +0.189 C 
ATOM      6  O   UNL     1       7.581  -5.200  23.430  0.00  0.00    -0.292 OA
BRANCH   5   7
ATOM      7  C   UNL     1       8.877  -5.263  25.461  0.00  0.00    +0.232 C 
BRANCH   7   8
ATOM      8  O   UNL     1      10.243  -5.642  25.308  0.00  0.00    -0.387 OA
ATOM      9  H   UNL     1      10.255  -6.617  25.269  0.00  0.00    +0.210 HD
ENDBRANCH   7   8
ENDBRANCH   5   7
ENDBRANCH   4   5
BRANCH   4  10
ATOM     10  O   UNL     1      10.287  -3.037  23.867  0.00  0.00    -0.382 OA
ATOM     11  H   UNL     1      10.625  -3.468  23.055  0.00  0.00    +0.210 HD
ENDBRANCH   4  10
ENDBRANCH   1   4
BRANCH   1  12
ATOM     12  C   UNL     1       8.865  -1.380  21.976  0.00  0.00    +0.172 C 
BRANCH  12  13
ATOM     13  O   UNL     1      10.227  -1.576  21.572  0.00  0.00    -0.387 OA
ATOM     14  H   UNL     1      10.272  -2.510  21.280  0.00  0.00    +0.210 HD
ENDBRANCH  12  13
BRANCH  12  15
ATOM     15  C   UNL     1       8.810  -0.178  22.923  0.00  0.00    +0.206 C 
BRANCH  15  16
ATOM     16  O   UNL     1      10.132   0.373  22.988  0.00  0.00    -0.284 OA
BRANCH  16  17
ATOM     17  P   UNL     1      10.163   2.080  23.267  0.00  0.00    +0.472 P 
ATOM     18  O   UNL     1      10.191   3.608  23.518  0.00  0.00    -0.228 OA
BRANCH  17  19
ATOM     19  O   UNL     1       8.532   2.017  23.379  0.00  0.00    -0.303 OA
ATOM     20  H   UNL     1       8.187   2.668  22.734  0.00  0.00    +0.222 HD
ENDBRANCH  17  19
BRANCH  17  21
ATOM     21  O   UNL     1      10.193   2.214  21.639  0.00  0.00    -0.303 OA
ATOM     22  H   UNL     1      11.039   1.847  21.331  0.00  0.00    +0.222 HD
ENDBRANCH  17  21
ENDBRANCH  16  17
ENDBRANCH  15  16
ENDBRANCH  12  15
ENDBRANCH   1  12
TORSDOF 13
ENDMDL
MODEL 6
REMARK VINA RESULT:      -4.9      2.699      5.557
REMARK  Name = 
REMARK  13 active torsions:
REMARK  status: ('A' for Active; 'I' for Inactive)
REMARK    1  A    between atoms: O_1  and  C_2
REMARK    2  A    between atoms: C_2  and  C_3
REMARK    3  A    between atoms: C_3  and  C_5
REMARK    4  A    between atoms: C_5  and  O_7
REMARK    5  A    between atoms: C_5  and  C_8
REMARK    6  A    between atoms: C_8  and  O_10
REMARK    7  A    between atoms: C_8  and  C_11
REMARK    8  A    between atoms: C_11  and  O_13
REMARK    9  A    between atoms: C_11  and  C_14
REMARK   10  A    between atoms: C_14  and  O_15
REMARK   11  A    between atoms: O_15  and  P_16
REMARK   12  A    between atoms: P_16  and  O_17
REMARK   13  A    between atoms: P_16  and  O_18
REMARK                            x       y       z     vdW  Elec       q    Type
REMARK                         _______ _______ _______ _____ _____    ______ ____
ROOT
ATOM      1  C   UNL     1       8.630   0.310  22.050  0.00  0.00    +0.181 C 
ENDROOT
BRANCH   1   2
ATOM      2  O   UNL     1       7.761   0.249  23.196  0.00  0.00    -0.386 OA
ATOM      3  H   UNL     1       6.850   0.396  22.888  0.00  0.00    +0.210 HD
ENDBRANCH   1   2
BRANCH   1   4
ATOM      4  C   UNL     1       9.924  -0.491  22.311  0.00  0.00    +0.213 C 
BRANCH   4   5
ATOM      5  C   UNL     1      10.017  -0.935  23.773  0.00  0.00    +0.189 C 
ATOM      6  O   UNL     1      10.299  -0.129  24.666  0.00  0.00    -0.292 OA
BRANCH   5   7
ATOM      7  C   UNL     1       9.786  -2.409  24.075  0.00  0.00    +0.232 C 
BRANCH   7   8
ATOM      8  O   UNL     1       8.530  -2.816  23.539  0.00  0.00    -0.387 OA
ATOM      9  H   UNL     1       8.141  -3.432  24.188  0.00  0.00    +0.210 HD
ENDBRANCH   7   8
ENDBRANCH   5   7
ENDBRANCH   4   5
BRANCH   4  10
ATOM     10  O   UNL     1      10.088  -1.523  21.346  0.00  0.00    -0.382 OA
ATOM     11  H   UNL     1      11.028  -1.497  21.073  0.00  0.00    +0.210 HD
ENDBRANCH   4  10
ENDBRANCH   1   4
BRANCH   1  12
ATOM     12  C   UNL     1       8.814   1.791  21.665  0.00  0.00    +0.172 C 
BRANCH  12  13
ATOM     13  O   UNL     1      10.207   2.124  21.594  0.00  0.00    -0.387 OA
ATOM     14  H   UNL     1      10.314   2.890  22.196  0.00  0.00    +0.210 HD
ENDBRANCH  12  13
BRANCH  12  15
ATOM     15  C   UNL     1       8.121   2.804  22.582  0.00  0.00    +0.206 C 
BRANCH  15  16
ATOM     16  O   UNL     1       8.949   2.965  23.741  0.00  0.00    -0.284 OA
BRANCH  16  17
ATOM     17  P   UNL     1       8.064   3.290  25.191  0.00  0.00    +0.472 P 
ATOM     18  O   UNL     1       7.273   3.582  26.490  0.00  0.00    -0.228 OA
BRANCH  17  19
ATOM     19  O   UNL     1       8.443   1.775  25.675  0.00  0.00    -0.303 OA
ATOM     20  H   UNL     1       8.101   1.684  26.588  0.00  0.00    +0.222 HD
ENDBRANCH  17  19
BRANCH  17  21
ATOM     21  O   UNL     1       6.748   2.845  24.333  0.00  0.00    -0.303 OA
ATOM     22  H   UNL     1       6.925   3.047  23.398  0.00  0.00    +0.222 HD
ENDBRANCH  17  21
ENDBRANCH  16  17
ENDBRANCH  15  16
ENDBRANCH  12  15
ENDBRANCH   1  12
TORSDOF 13
ENDMDL
MODEL 7
REMARK VINA RESULT:      -4.9      2.648      5.992
REMARK  Name = 
REMARK  13 active torsions:
REMARK  status: ('A' for Active; 'I' for Inactive)
REMARK    1  A    between atoms: O_1  and  C_2
REMARK    2  A    between atoms: C_2  and  C_3
REMARK    3  A    between atoms: C_3  and  C_5
REMARK    4  A    between atoms: C_5  and  O_7
REMARK    5  A    between atoms: C_5  and  C_8
REMARK    6  A    between atoms: C_8  and  O_10
REMARK    7  A    between atoms: C_8  and  C_11
REMARK    8  A    between atoms: C_11  and  O_13
REMARK    9  A    between atoms: C_11  and  C_14
REMARK   10  A    between atoms: C_14  and  O_15
REMARK   11  A    between atoms: O_15  and  P_16
REMARK   12  A    between atoms: P_16  and  O_17
REMARK   13  A    between atoms: P_16  and  O_18
REMARK                            x       y       z     vdW  Elec       q    Type
REMARK                         _______ _______ _______ _____ _____    ______ ____
ROOT
ATOM      1  C   UNL     1       8.242  -1.854  22.837  0.00  0.00    +0.181 C 
ENDROOT
BRANCH   1   2
ATOM      2  O   UNL     1       8.545  -1.308  24.134  0.00  0.00    -0.386 OA
ATOM      3  H   UNL     1       8.151  -0.420  24.183  0.00  0.00    +0.210 HD
ENDBRANCH   1   2
BRANCH   1   4
ATOM      4  C   UNL     1       7.919  -3.361  22.949  0.00  0.00    +0.213 C 
BRANCH   4   5
ATOM      5  C   UNL     1       8.519  -3.965  24.221  0.00  0.00    +0.189 C 
ATOM      6  O   UNL     1       9.743  -4.063  24.363  0.00  0.00    -0.292 OA
BRANCH   5   7
ATOM      7  C   UNL     1       7.552  -4.471  25.282  0.00  0.00    +0.232 C 
BRANCH   7   8
ATOM      8  O   UNL     1       6.734  -3.395  25.735  0.00  0.00    -0.387 OA
ATOM      9  H   UNL     1       6.232  -3.086  24.958  0.00  0.00    +0.210 HD
ENDBRANCH   7   8
ENDBRANCH   5   7
ENDBRANCH   4   5
BRANCH   4  10
ATOM     10  O   UNL     1       6.531  -3.600  22.753  0.00  0.00    -0.382 OA
ATOM     11  H   UNL     1       6.064  -2.817  23.109  0.00  0.00    +0.210 HD
ENDBRANCH   4  10
ENDBRANCH   1   4
BRANCH   1  12
ATOM     12  C   UNL     1       9.385  -1.474  21.876  0.00  0.00    +0.172 C 
BRANCH  12  13
ATOM     13  O   UNL     1      10.658  -1.793  22.455  0.00  0.00    -0.387 OA
ATOM     14  H   UNL     1      10.967  -2.582  21.964  0.00  0.00    +0.210 HD
ENDBRANCH  12  13
BRANCH  12  15
ATOM     15  C   UNL     1       9.412  -0.010  21.427  0.00  0.00    +0.206 C 
BRANCH  15  16
ATOM     16  O   UNL     1       8.641   0.740  22.375  0.00  0.00    -0.284 OA
BRANCH  16  17
ATOM     17  P   UNL     1       9.460   2.131  22.996  0.00  0.00    +0.472 P 
ATOM     18  O   UNL     1      10.193   3.377  23.551  0.00  0.00    -0.228 OA
BRANCH  17  19
ATOM     19  O   UNL     1      10.249   2.214  21.565  0.00  0.00    -0.303 OA
ATOM     20  H   UNL     1      10.509   3.151  21.449  0.00  0.00    +0.222 HD
ENDBRANCH  17  19
BRANCH  17  21
ATOM     21  O   UNL     1      10.493   1.061  23.671  0.00  0.00    -0.303 OA
ATOM     22  H   UNL     1      11.120   0.784  22.981  0.00  0.00    +0.222 HD
ENDBRANCH  17  21
ENDBRANCH  16  17
ENDBRANCH  15  16
ENDBRANCH  12  15
ENDBRANCH   1  12
TORSDOF 13
ENDMDL
MODEL 8
REMARK VINA RESULT:      -4.8      2.054      3.045
REMARK  Name = 
REMARK  13 active torsions:
REMARK  status: ('A' for Active; 'I' for Inactive)
REMARK    1  A    between atoms: O_1  and  C_2
REMARK    2  A    between atoms: C_2  and  C_3
REMARK    3  A    between atoms: C_3  and  C_5
REMARK    4  A    between atoms: C_5  and  O_7
REMARK    5  A    between atoms: C_5  and  C_8
REMARK    6  A    between atoms: C_8  and  O_10
REMARK    7  A    between atoms: C_8  and  C_11
REMARK    8  A    between atoms: C_11  and  O_13
REMARK    9  A    between atoms: C_11  and  C_14
REMARK   10  A    between atoms: C_14  and  O_15
REMARK   11  A    between atoms: O_15  and  P_16
REMARK   12  A    between atoms: P_16  and  O_17
REMARK   13  A    between atoms: P_16  and  O_18
REMARK                            x       y       z     vdW  Elec       q    Type
REMARK                         _______ _______ _______ _____ _____    ______ ____
ROOT
ATOM      1  C   UNL     1       9.302  -0.905  24.395  0.00  0.00    +0.181 C 
ENDROOT
BRANCH   1   2
ATOM      2  O   UNL     1       7.930  -0.700  24.013  0.00  0.00    -0.386 OA
ATOM      3  H   UNL     1       7.435  -0.435  24.808  0.00  0.00    +0.210 HD
ENDBRANCH   1   2
BRANCH   1   4
ATOM      4  C   UNL     1      10.243  -0.077  23.492  0.00  0.00    +0.213 C 
BRANCH   4   5
ATOM      5  C   UNL     1       9.575   0.262  22.157  0.00  0.00    +0.189 C 
ATOM      6  O   UNL     1       9.347  -0.616  21.318  0.00  0.00    -0.292 OA
BRANCH   5   7
ATOM      7  C   UNL     1       9.239   1.723  21.891  0.00  0.00    +0.232 C 
BRANCH   7   8
ATOM      8  O   UNL     1      10.436   2.448  21.623  0.00  0.00    -0.387 OA
ATOM      9  H   UNL     1      10.403   2.693  20.678  0.00  0.00    +0.210 HD
ENDBRANCH   7   8
ENDBRANCH   5   7
ENDBRANCH   4   5
BRANCH   4  10
ATOM     10  O   UNL     1      10.789   1.027  24.202  0.00  0.00    -0.382 OA
ATOM     11  H   UNL     1      10.480   1.832  23.738  0.00  0.00    +0.210 HD
ENDBRANCH   4  10
ENDBRANCH   1   4
BRANCH   1  12
ATOM     12  C   UNL     1       9.566  -2.423  24.440  0.00  0.00    +0.172 C 
BRANCH  12  13
ATOM     13  O   UNL     1      10.205  -2.860  23.232  0.00  0.00    -0.387 OA
ATOM     14  H   UNL     1      10.112  -2.108  22.612  0.00  0.00    +0.210 HD
ENDBRANCH  12  13
BRANCH  12  15
ATOM     15  C   UNL     1       8.335  -3.302  24.680  0.00  0.00    +0.206 C 
BRANCH  15  16
ATOM     16  O   UNL     1       8.189  -4.151  23.535  0.00  0.00    -0.284 OA
BRANCH  16  17
ATOM     17  P   UNL     1       6.670  -3.977  22.726  0.00  0.00    +0.472 P 
ATOM     18  O   UNL     1       5.309  -3.823  22.003  0.00  0.00    -0.228 OA
BRANCH  17  19
ATOM     19  O   UNL     1       7.181  -5.122  21.675  0.00  0.00    -0.303 OA
ATOM     20  H   UNL     1       6.462  -5.785  21.621  0.00  0.00    +0.222 HD
ENDBRANCH  17  19
BRANCH  17  21
ATOM     21  O   UNL     1       7.377  -2.732  21.941  0.00  0.00    -0.303 OA
ATOM     22  H   UNL     1       8.340  -2.846  22.019  0.00  0.00    +0.222 HD
ENDBRANCH  17  21
ENDBRANCH  16  17
ENDBRANCH  15  16
ENDBRANCH  12  15
ENDBRANCH   1  12
TORSDOF 13
ENDMDL
MODEL 9
REMARK VINA RESULT:      -4.8      2.591      5.875
REMARK  Name = 
REMARK  13 active torsions:
REMARK  status: ('A' for Active; 'I' for Inactive)
REMARK    1  A    between atoms: O_1  and  C_2
REMARK    2  A    between atoms: C_2  and  C_3
REMARK    3  A    between atoms: C_3  and  C_5
REMARK    4  A    between atoms: C_5  and  O_7
REMARK    5  A    between atoms: C_5  and  C_8
REMARK    6  A    between atoms: C_8  and  O_10
REMARK    7  A    between atoms: C_8  and  C_11
REMARK    8  A    between atoms: C_11  and  O_13
REMARK    9  A    between atoms: C_11  and  C_14
REMARK   10  A    between atoms: C_14  and  O_15
REMARK   11  A    between atoms: O_15  and  P_16
REMARK   12  A    between atoms: P_16  and  O_17
REMARK   13  A    between atoms: P_16  and  O_18
REMARK                            x       y       z     vdW  Elec       q    Type
REMARK                         _______ _______ _______ _____ _____    ______ ____
ROOT
ATOM      1  C   UNL     1       8.191  -1.164  22.884  0.00  0.00    +0.181 C 
ENDROOT
BRANCH   1   2
ATOM      2  O   UNL     1       7.438   0.041  23.115  0.00  0.00    -0.386 OA
ATOM      3  H   UNL     1       7.123   0.025  24.035  0.00  0.00    +0.210 HD
ENDBRANCH   1   2
BRANCH   1   4
ATOM      4  C   UNL     1       8.770  -1.700  24.212  0.00  0.00    +0.213 C 
BRANCH   4   5
ATOM      5  C   UNL     1       8.904  -3.224  24.185  0.00  0.00    +0.189 C 
ATOM      6  O   UNL     1      10.012  -3.766  24.252  0.00  0.00    -0.292 OA
BRANCH   5   7
ATOM      7  C   UNL     1       7.627  -4.040  24.036  0.00  0.00    +0.232 C 
BRANCH   7   8
ATOM      8  O   UNL     1       7.610  -4.672  22.758  0.00  0.00    -0.387 OA
ATOM      9  H   UNL     1       6.743  -5.113  22.682  0.00  0.00    +0.210 HD
ENDBRANCH   7   8
ENDBRANCH   5   7
ENDBRANCH   4   5
BRANCH   4  10
ATOM     10  O   UNL     1       9.944  -0.987  24.580  0.00  0.00    -0.382 OA
ATOM     11  H   UNL     1       9.832  -0.740  25.521  0.00  0.00    +0.210 HD
ENDBRANCH   4  10
ENDBRANCH   1   4
BRANCH   1  12
ATOM     12  C   UNL     1       9.210  -0.887  21.762  0.00  0.00    +0.172 C 
BRANCH  12  13
ATOM     13  O   UNL     1      10.406  -1.652  21.966  0.00  0.00    -0.387 OA
ATOM     14  H   UNL     1      10.282  -2.085  22.835  0.00  0.00    +0.210 HD
ENDBRANCH  12  13
BRANCH  12  15
ATOM     15  C   UNL     1       9.602   0.582  21.572  0.00  0.00    +0.206 C 
BRANCH  15  16
ATOM     16  O   UNL     1      10.426   0.949  22.686  0.00  0.00    -0.284 OA
BRANCH  16  17
ATOM     17  P   UNL     1      10.156   2.561  23.252  0.00  0.00    +0.472 P 
ATOM     18  O   UNL     1       9.915   4.003  23.761  0.00  0.00    -0.228 OA
BRANCH  17  19
ATOM     19  O   UNL     1       9.245   1.910  24.446  0.00  0.00    -0.303 OA
ATOM     20  H   UNL     1       8.857   1.090  24.078  0.00  0.00    +0.222 HD
ENDBRANCH  17  19
BRANCH  17  21
ATOM     21  O   UNL     1       8.948   2.605  22.154  0.00  0.00    -0.303 OA
ATOM     22  H   UNL     1       8.856   3.526  21.856  0.00  0.00    +0.222 HD
ENDBRANCH  17  21
ENDBRANCH  16  17
ENDBRANCH  15  16
ENDBRANCH  12  15
ENDBRANCH   1  12
TORSDOF 13
ENDMDL
