MODEL 1
REMARK VINA RESULT:      -5.8      0.000      0.000
REMARK  Name = 
REMARK  11 active torsions:
REMARK  status: ('A' for Active; 'I' for Inactive)
REMARK    1  A    between atoms: C_1  and  C_2
REMARK    2  A    between atoms: C_2  and  C_3
REMARK    3  A    between atoms: C_2  and  C_4
REMARK    4  A    between atoms: C_2  and  N_5
REMARK    5  A    between atoms: N_5  and  C_6
REMARK    6  A    between atoms: C_6  and  C_7
REMARK    7  A    between atoms: C_7  and  O_9
REMARK    8  A    between atoms: C_7  and  C_10
REMARK    9  A    between atoms: C_10  and  O_11
REMARK   10  A    between atoms: O_11  and  C_12
REMARK   11  A    between atoms: C_19  and  C_21
REMARK                            x       y       z     vdW  Elec       q    Type
REMARK                         _______ _______ _______ _____ _____    ______ ____
ROOT
ATOM      1  O   UNL     1       7.134  -2.148  22.910  0.00  0.00    -0.489 OA
ENDROOT
BRANCH   1   2
ATOM      2  C   UNL     1       6.628  -3.408  23.055  0.00  0.00    +0.126 A 
ATOM      3  C   UNL     1       6.440  -4.116  24.232  0.00  0.00    +0.026 A 
ATOM      4  C   UNL     1       6.708  -3.781  25.664  0.00  0.00    +0.107 C 
ATOM      5  C   UNL     1       6.297  -5.071  26.296  0.00  0.00    +0.122 C 
ATOM      6  N   UNL     1       5.863  -6.007  25.506  0.00  0.00    -0.241 NA
ATOM      7  C   UNL     1       5.949  -5.437  24.218  0.00  0.00    +0.072 A 
ATOM      8  C   UNL     1       5.633  -6.079  23.037  0.00  0.00    +0.028 A 
ATOM      9  C   UNL     1       5.821  -5.382  21.844  0.00  0.00    +0.006 A 
ATOM     10  C   UNL     1       6.321  -4.066  21.856  0.00  0.00    +0.046 A 
BRANCH   5  11
ATOM     11  C   UNL     1       6.361  -5.308  27.705  0.00  0.00    +0.115 C 
ATOM     12  N   UNL     1       6.425  -5.573  28.837  0.00  0.00    -0.190 NA
ENDBRANCH   5  11
ENDBRANCH   1   2
BRANCH   1  13
ATOM     13  C   UNL     1       8.362  -2.014  22.193  0.00  0.00    +0.261 C 
BRANCH  13  14
ATOM     14  C   UNL     1       9.578  -2.104  23.128  0.00  0.00    +0.166 C 
BRANCH  14  15
ATOM     15  O   UNL     1      10.792  -1.897  22.387  0.00  0.00    -0.387 OA
ATOM     16  H   UNL     1      10.670  -1.126  21.806  0.00  0.00    +0.210 HD
ENDBRANCH  14  15
BRANCH  14  17
ATOM     17  C   UNL     1       9.558  -1.100  24.291  0.00  0.00    +0.116 C 
BRANCH  17  18
ATOM     18  N   UNL     1       8.852   0.145  23.959  0.00  0.00    -0.309 NA
ATOM     19  H   UNL     1       8.309  -0.009  23.109  0.00  0.00    +0.123 HD
BRANCH  18  21
ATOM     20  C   UNL     1       9.161   2.584  24.377  0.00  0.00    +0.027 C 
ATOM     21  C   UNL     1       9.727   1.313  23.722  0.00  0.00    +0.011 C 
ATOM     22  C   UNL     1      11.074   0.982  24.395  0.00  0.00    +0.027 C 
ATOM     23  C   UNL     1       9.978   1.548  22.225  0.00  0.00    +0.027 C 
ENDBRANCH  18  21
ENDBRANCH  17  18
ENDBRANCH  14  17
ENDBRANCH  13  14
ENDBRANCH   1  13
TORSDOF 8
ENDMDL
MODEL 2
REMARK VINA RESULT:      -5.7      1.453      2.687
REMARK  Name = 
REMARK  11 active torsions:
REMARK  status: ('A' for Active; 'I' for Inactive)
REMARK    1  A    between atoms: C_1  and  C_2
REMARK    2  A    between atoms: C_2  and  C_3
REMARK    3  A    between atoms: C_2  and  C_4
REMARK    4  A    between atoms: C_2  and  N_5
REMARK    5  A    between atoms: N_5  and  C_6
REMARK    6  A    between atoms: C_6  and  C_7
REMARK    7  A    between atoms: C_7  and  O_9
REMARK    8  A    between atoms: C_7  and  C_10
REMARK    9  A    between atoms: C_10  and  O_11
REMARK   10  A    between atoms: O_11  and  C_12
REMARK   11  A    between atoms: C_19  and  C_21
REMARK                            x       y       z     vdW  Elec       q    Type
REMARK                         _______ _______ _______ _____ _____    ______ ____
ROOT
ATOM      1  O   UNL     1       7.152  -2.612  23.569  0.00  0.00    -0.489 OA
ENDROOT
BRANCH   1   2
ATOM      2  C   UNL     1       7.288  -3.497  24.599  0.00  0.00    +0.126 A 
ATOM      3  C   UNL     1       6.501  -4.605  24.874  0.00  0.00    +0.026 A 
ATOM      4  C   UNL     1       5.305  -5.187  24.193  0.00  0.00    +0.107 C 
ATOM      5  C   UNL     1       5.018  -6.318  25.127  0.00  0.00    +0.122 C 
ATOM      6  N   UNL     1       5.811  -6.460  26.145  0.00  0.00    -0.241 NA
ATOM      7  C   UNL     1       6.737  -5.403  26.012  0.00  0.00    +0.072 A 
ATOM      8  C   UNL     1       7.758  -5.118  26.896  0.00  0.00    +0.028 A 
ATOM      9  C   UNL     1       8.556  -4.004  26.637  0.00  0.00    +0.006 A 
ATOM     10  C   UNL     1       8.315  -3.201  25.506  0.00  0.00    +0.046 A 
BRANCH   5  11
ATOM     11  C   UNL     1       3.930  -7.228  24.944  0.00  0.00    +0.115 C 
ATOM     12  N   UNL     1       3.085  -8.002  24.741  0.00  0.00    -0.190 NA
ENDBRANCH   5  11
ENDBRANCH   1   2
BRANCH   1  13
ATOM     13  C   UNL     1       8.063  -2.735  22.475  0.00  0.00    +0.261 C 
BRANCH  13  14
ATOM     14  C   UNL     1       9.051  -1.559  22.424  0.00  0.00    +0.166 C 
BRANCH  14  15
ATOM     15  O   UNL     1       9.876  -1.653  21.251  0.00  0.00    -0.387 OA
ATOM     16  H   UNL     1       9.316  -1.508  20.469  0.00  0.00    +0.210 HD
ENDBRANCH  14  15
BRANCH  14  17
ATOM     17  C   UNL     1       8.386  -0.174  22.423  0.00  0.00    +0.116 C 
BRANCH  17  18
ATOM     18  N   UNL     1       8.493   0.513  23.718  0.00  0.00    -0.309 NA
ATOM     19  H   UNL     1       7.599   0.964  23.918  0.00  0.00    +0.123 HD
BRANCH  18  21
ATOM     20  C   UNL     1       9.057   2.793  24.557  0.00  0.00    +0.027 C 
ATOM     21  C   UNL     1       9.541   1.553  23.785  0.00  0.00    +0.011 C 
ATOM     22  C   UNL     1      10.716   0.928  24.564  0.00  0.00    +0.027 C 
ATOM     23  C   UNL     1      10.044   1.954  22.390  0.00  0.00    +0.027 C 
ENDBRANCH  18  21
ENDBRANCH  17  18
ENDBRANCH  14  17
ENDBRANCH  13  14
ENDBRANCH   1  13
TORSDOF 8
ENDMDL
MODEL 3
REMARK VINA RESULT:      -5.7      2.491      6.554
REMARK  Name = 
REMARK  11 active torsions:
REMARK  status: ('A' for Active; 'I' for Inactive)
REMARK    1  A    between atoms: C_1  and  C_2
REMARK    2  A    between atoms: C_2  and  C_3
REMARK    3  A    between atoms: C_2  and  C_4
REMARK    4  A    between atoms: C_2  and  N_5
REMARK    5  A    between atoms: N_5  and  C_6
REMARK    6  A    between atoms: C_6  and  C_7
REMARK    7  A    between atoms: C_7  and  O_9
REMARK    8  A    between atoms: C_7  and  C_10
REMARK    9  A    between atoms: C_10  and  O_11
REMARK   10  A    between atoms: O_11  and  C_12
REMARK   11  A    between atoms: C_19  and  C_21
REMARK                            x       y       z     vdW  Elec       q    Type
REMARK                         _______ _______ _______ _____ _____    ______ ____
ROOT
ATOM      1  O   UNL     1       7.862  -2.652  24.901  0.00  0.00    -0.489 OA
ENDROOT
BRANCH   1   2
ATOM      2  C   UNL     1       8.447  -1.808  24.001  0.00  0.00    +0.126 A 
ATOM      3  C   UNL     1       7.955  -0.604  23.524  0.00  0.00    +0.026 A 
ATOM      4  C   UNL     1       6.695   0.152  23.800  0.00  0.00    +0.107 C 
ATOM      5  C   UNL     1       6.888   1.299  22.862  0.00  0.00    +0.122 C 
ATOM      6  N   UNL     1       7.981   1.313  22.161  0.00  0.00    -0.241 NA
ATOM      7  C   UNL     1       8.657   0.138  22.552  0.00  0.00    +0.072 A 
ATOM      8  C   UNL     1       9.861  -0.301  22.037  0.00  0.00    +0.028 A 
ATOM      9  C   UNL     1      10.368  -1.514  22.503  0.00  0.00    +0.006 A 
ATOM     10  C   UNL     1       9.662  -2.260  23.466  0.00  0.00    +0.046 A 
BRANCH   5  11
ATOM     11  C   UNL     1       5.938   2.357  22.713  0.00  0.00    +0.115 C 
ATOM     12  N   UNL     1       5.168   3.208  22.518  0.00  0.00    -0.190 NA
ENDBRANCH   5  11
ENDBRANCH   1   2
BRANCH   1  13
ATOM     13  C   UNL     1       8.718  -3.551  25.609  0.00  0.00    +0.261 C 
BRANCH  13  14
ATOM     14  C   UNL     1       8.342  -5.017  25.345  0.00  0.00    +0.166 C 
BRANCH  14  15
ATOM     15  O   UNL     1       8.192  -5.723  26.588  0.00  0.00    -0.387 OA
ATOM     16  H   UNL     1       9.077  -5.930  26.934  0.00  0.00    +0.210 HD
ENDBRANCH  14  15
BRANCH  14  17
ATOM     17  C   UNL     1       7.049  -5.204  24.537  0.00  0.00    +0.116 C 
BRANCH  17  18
ATOM     18  N   UNL     1       7.263  -5.111  23.086  0.00  0.00    -0.309 NA
ATOM     19  H   UNL     1       7.890  -4.327  22.902  0.00  0.00    +0.123 HD
BRANCH  18  21
ATOM     20  C   UNL     1       5.855  -3.414  21.921  0.00  0.00    +0.027 C 
ATOM     21  C   UNL     1       6.037  -4.896  22.289  0.00  0.00    +0.011 C 
ATOM     22  C   UNL     1       6.227  -5.698  20.985  0.00  0.00    +0.027 C 
ATOM     23  C   UNL     1       4.785  -5.427  23.004  0.00  0.00    +0.027 C 
ENDBRANCH  18  21
ENDBRANCH  17  18
ENDBRANCH  14  17
ENDBRANCH  13  14
ENDBRANCH   1  13
TORSDOF 8
ENDMDL
MODEL 4
REMARK VINA RESULT:      -5.6      2.421      4.653
REMARK  Name = 
REMARK  11 active torsions:
REMARK  status: ('A' for Active; 'I' for Inactive)
REMARK    1  A    between atoms: C_1  and  C_2
REMARK    2  A    between atoms: C_2  and  C_3
REMARK    3  A    between atoms: C_2  and  C_4
REMARK    4  A    between atoms: C_2  and  N_5
REMARK    5  A    between atoms: N_5  and  C_6
REMARK    6  A    between atoms: C_6  and  C_7
REMARK    7  A    between atoms: C_7  and  O_9
REMARK    8  A    between atoms: C_7  and  C_10
REMARK    9  A    between atoms: C_10  and  O_11
REMARK   10  A    between atoms: O_11  and  C_12
REMARK   11  A    between atoms: C_19  and  C_21
REMARK                            x       y       z     vdW  Elec       q    Type
REMARK                         _______ _______ _______ _____ _____    ______ ____
ROOT
ATOM      1  O   UNL     1      10.069   0.189  23.333  0.00  0.00    -0.489 OA
ENDROOT
BRANCH   1   2
ATOM      2  C   UNL     1       9.356  -0.666  24.124  0.00  0.00    +0.126 A 
ATOM      3  C   UNL     1       8.550  -1.719  23.723  0.00  0.00    +0.026 A 
ATOM      4  C   UNL     1       8.192  -2.259  22.376  0.00  0.00    +0.107 C 
ATOM      5  C   UNL     1       7.246  -3.340  22.789  0.00  0.00    +0.122 C 
ATOM      6  N   UNL     1       7.038  -3.488  24.062  0.00  0.00    -0.241 NA
ATOM      7  C   UNL     1       7.833  -2.489  24.662  0.00  0.00    +0.072 A 
ATOM      8  C   UNL     1       7.905  -2.228  26.016  0.00  0.00    +0.028 A 
ATOM      9  C   UNL     1       8.708  -1.168  26.436  0.00  0.00    +0.006 A 
ATOM     10  C   UNL     1       9.417  -0.393  25.498  0.00  0.00    +0.046 A 
BRANCH   5  11
ATOM     11  C   UNL     1       6.579  -4.195  21.858  0.00  0.00    +0.115 C 
ATOM     12  N   UNL     1       6.068  -4.950  21.134  0.00  0.00    -0.190 NA
ENDBRANCH   5  11
ENDBRANCH   1   2
BRANCH   1  13
ATOM     13  C   UNL     1      10.511   1.413  23.923  0.00  0.00    +0.261 C 
BRANCH  13  14
ATOM     14  C   UNL     1      10.192   2.621  23.029  0.00  0.00    +0.166 C 
BRANCH  14  15
ATOM     15  O   UNL     1      10.206   2.233  21.645  0.00  0.00    -0.387 OA
ATOM     16  H   UNL     1      11.105   2.364  21.298  0.00  0.00    +0.210 HD
ENDBRANCH  14  15
BRANCH  14  17
ATOM     17  C   UNL     1       8.836   3.283  23.319  0.00  0.00    +0.116 C 
BRANCH  17  18
ATOM     18  N   UNL     1       8.001   2.497  24.238  0.00  0.00    -0.309 NA
ATOM     19  H   UNL     1       8.524   1.666  24.518  0.00  0.00    +0.123 HD
BRANCH  18  21
ATOM     20  C   UNL     1       6.033   1.004  24.581  0.00  0.00    +0.027 C 
ATOM     21  C   UNL     1       6.713   2.041  23.673  0.00  0.00    +0.011 C 
ATOM     22  C   UNL     1       5.810   3.289  23.604  0.00  0.00    +0.027 C 
ATOM     23  C   UNL     1       6.875   1.483  22.250  0.00  0.00    +0.027 C 
ENDBRANCH  18  21
ENDBRANCH  17  18
ENDBRANCH  14  17
ENDBRANCH  13  14
ENDBRANCH   1  13
TORSDOF 8
ENDMDL
MODEL 5
REMARK VINA RESULT:      -5.5      1.886      3.503
REMARK  Name = 
REMARK  11 active torsions:
REMARK  status: ('A' for Active; 'I' for Inactive)
REMARK    1  A    between atoms: C_1  and  C_2
REMARK    2  A    between atoms: C_2  and  C_3
REMARK    3  A    between atoms: C_2  and  C_4
REMARK    4  A    between atoms: C_2  and  N_5
REMARK    5  A    between atoms: N_5  and  C_6
REMARK    6  A    between atoms: C_6  and  C_7
REMARK    7  A    between atoms: C_7  and  O_9
REMARK    8  A    between atoms: C_7  and  C_10
REMARK    9  A    between atoms: C_10  and  O_11
REMARK   10  A    between atoms: O_11  and  C_12
REMARK   11  A    between atoms: C_19  and  C_21
REMARK                            x       y       z     vdW  Elec       q    Type
REMARK                         _______ _______ _______ _____ _____    ______ ____
ROOT
ATOM      1  O   UNL     1       8.978  -1.735  24.637  0.00  0.00    -0.489 OA
ENDROOT
BRANCH   1   2
ATOM      2  C   UNL     1       8.346  -2.908  24.936  0.00  0.00    +0.126 A 
ATOM      3  C   UNL     1       7.724  -3.783  24.059  0.00  0.00    +0.026 A 
ATOM      4  C   UNL     1       7.531  -3.760  22.578  0.00  0.00    +0.107 C 
ATOM      5  C   UNL     1       6.724  -5.007  22.417  0.00  0.00    +0.122 C 
ATOM      6  N   UNL     1       6.460  -5.684  23.493  0.00  0.00    -0.241 NA
ATOM      7  C   UNL     1       7.067  -4.940  24.527  0.00  0.00    +0.072 A 
ATOM      8  C   UNL     1       7.017  -5.250  25.871  0.00  0.00    +0.028 A 
ATOM      9  C   UNL     1       7.633  -4.377  26.767  0.00  0.00    +0.006 A 
ATOM     10  C   UNL     1       8.281  -3.216  26.302  0.00  0.00    +0.046 A 
BRANCH   5  11
ATOM     11  C   UNL     1       6.244  -5.472  21.152  0.00  0.00    +0.115 C 
ATOM     12  N   UNL     1       5.914  -5.819  20.091  0.00  0.00    -0.190 NA
ENDBRANCH   5  11
ENDBRANCH   1   2
BRANCH   1  13
ATOM     13  C   UNL     1      10.168  -1.813  23.852  0.00  0.00    +0.261 C 
BRANCH  13  14
ATOM     14  C   UNL     1      10.137  -0.829  22.673  0.00  0.00    +0.166 C 
BRANCH  14  15
ATOM     15  O   UNL     1      10.053  -1.545  21.429  0.00  0.00    -0.387 OA
ATOM     16  H   UNL     1       9.126  -1.801  21.284  0.00  0.00    +0.210 HD
ENDBRANCH  14  15
BRANCH  14  17
ATOM     17  C   UNL     1       8.975   0.175  22.718  0.00  0.00    +0.116 C 
BRANCH  17  18
ATOM     18  N   UNL     1       9.013   1.042  23.905  0.00  0.00    -0.309 NA
ATOM     19  H   UNL     1       8.184   0.853  24.469  0.00  0.00    +0.123 HD
BRANCH  18  21
ATOM     20  C   UNL     1       8.545   3.313  24.821  0.00  0.00    +0.027 C 
ATOM     21  C   UNL     1       9.035   2.491  23.617  0.00  0.00    +0.011 C 
ATOM     22  C   UNL     1      10.510   2.854  23.352  0.00  0.00    +0.027 C 
ATOM     23  C   UNL     1       8.218   2.840  22.363  0.00  0.00    +0.027 C 
ENDBRANCH  18  21
ENDBRANCH  17  18
ENDBRANCH  14  17
ENDBRANCH  13  14
ENDBRANCH   1  13
TORSDOF 8
ENDMDL
MODEL 6
REMARK VINA RESULT:      -5.5      2.378      6.797
REMARK  Name = 
REMARK  11 active torsions:
REMARK  status: ('A' for Active; 'I' for Inactive)
REMARK    1  A    between atoms: C_1  and  C_2
REMARK    2  A    between atoms: C_2  and  C_3
REMARK    3  A    between atoms: C_2  and  C_4
REMARK    4  A    between atoms: C_2  and  N_5
REMARK    5  A    between atoms: N_5  and  C_6
REMARK    6  A    between atoms: C_6  and  C_7
REMARK    7  A    between atoms: C_7  and  O_9
REMARK    8  A    between atoms: C_7  and  C_10
REMARK    9  A    between atoms: C_10  and  O_11
REMARK   10  A    between atoms: O_11  and  C_12
REMARK   11  A    between atoms: C_19  and  C_21
REMARK                            x       y       z     vdW  Elec       q    Type
REMARK                         _______ _______ _______ _____ _____    ______ ____
ROOT
ATOM      1  O   UNL     1       6.273  -1.722  23.264  0.00  0.00    -0.489 OA
ENDROOT
BRANCH   1   2
ATOM      2  C   UNL     1       7.406  -1.103  22.820  0.00  0.00    +0.126 A 
ATOM      3  C   UNL     1       7.608   0.254  22.619  0.00  0.00    +0.026 A 
ATOM      4  C   UNL     1       6.722   1.443  22.800  0.00  0.00    +0.107 C 
ATOM      5  C   UNL     1       7.647   2.513  22.318  0.00  0.00    +0.122 C 
ATOM      6  N   UNL     1       8.830   2.142  21.932  0.00  0.00    -0.241 NA
ATOM      7  C   UNL     1       8.826   0.742  22.104  0.00  0.00    +0.072 A 
ATOM      8  C   UNL     1       9.867  -0.106  21.782  0.00  0.00    +0.028 A 
ATOM      9  C   UNL     1       9.679  -1.475  21.974  0.00  0.00    +0.006 A 
ATOM     10  C   UNL     1       8.459  -1.964  22.478  0.00  0.00    +0.046 A 
BRANCH   5  11
ATOM     11  C   UNL     1       7.287   3.896  22.269  0.00  0.00    +0.115 C 
ATOM     12  N   UNL     1       7.055   5.034  22.188  0.00  0.00    -0.190 NA
ENDBRANCH   5  11
ENDBRANCH   1   2
BRANCH   1  13
ATOM     13  C   UNL     1       5.769  -2.806  22.483  0.00  0.00    +0.261 C 
BRANCH  13  14
ATOM     14  C   UNL     1       4.907  -3.760  23.325  0.00  0.00    +0.166 C 
BRANCH  14  15
ATOM     15  O   UNL     1       4.462  -4.867  22.522  0.00  0.00    -0.387 OA
ATOM     16  H   UNL     1       4.436  -4.582  21.593  0.00  0.00    +0.210 HD
ENDBRANCH  14  15
BRANCH  14  17
ATOM     17  C   UNL     1       5.617  -4.329  24.562  0.00  0.00    +0.116 C 
BRANCH  17  18
ATOM     18  N   UNL     1       7.039  -4.615  24.325  0.00  0.00    -0.309 NA
ATOM     19  H   UNL     1       7.120  -5.565  23.962  0.00  0.00    +0.123 HD
BRANCH  18  21
ATOM     20  C   UNL     1       8.001  -3.073  26.032  0.00  0.00    +0.027 C 
ATOM     21  C   UNL     1       7.901  -4.520  25.521  0.00  0.00    +0.011 C 
ATOM     22  C   UNL     1       7.218  -5.370  26.611  0.00  0.00    +0.027 C 
ATOM     23  C   UNL     1       9.303  -5.095  25.267  0.00  0.00    +0.027 C 
ENDBRANCH  18  21
ENDBRANCH  17  18
ENDBRANCH  14  17
ENDBRANCH  13  14
ENDBRANCH   1  13
TORSDOF 8
ENDMDL
MODEL 7
REMARK VINA RESULT:      -5.5      2.466      4.132
REMARK  Name = 
REMARK  11 active torsions:
REMARK  status: ('A' for Active; 'I' for Inactive)
REMARK    1  A    between atoms: C_1  and  C_2
REMARK    2  A    between atoms: C_2  and  C_3
REMARK    3  A    between atoms: C_2  and  C_4
REMARK    4  A    between atoms: C_2  and  N_5
REMARK    5  A    between atoms: N_5  and  C_6
REMARK    6  A    between atoms: C_6  and  C_7
REMARK    7  A    between atoms: C_7  and  O_9
REMARK    8  A    between atoms: C_7  and  C_10
REMARK    9  A    between atoms: C_10  and  O_11
REMARK   10  A    between atoms: O_11  and  C_12
REMARK   11  A    between atoms: C_19  and  C_21
REMARK                            x       y       z     vdW  Elec       q    Type
REMARK                         _______ _______ _______ _____ _____    ______ ____
ROOT
ATOM      1  O   UNL     1      10.074  -1.243  23.858  0.00  0.00    -0.489 OA
ENDROOT
BRANCH   1   2
ATOM      2  C   UNL     1       8.996  -1.254  24.696  0.00  0.00    +0.126 A 
ATOM      3  C   UNL     1       7.793  -1.922  24.521  0.00  0.00    +0.026 A 
ATOM      4  C   UNL     1       7.278  -2.803  23.430  0.00  0.00    +0.107 C 
ATOM      5  C   UNL     1       5.903  -3.064  23.956  0.00  0.00    +0.122 C 
ATOM      6  N   UNL     1       5.590  -2.516  25.091  0.00  0.00    -0.241 NA
ATOM      7  C   UNL     1       6.747  -1.797  25.458  0.00  0.00    +0.072 A 
ATOM      8  C   UNL     1       6.876  -1.011  26.586  0.00  0.00    +0.028 A 
ATOM      9  C   UNL     1       8.078  -0.329  26.774  0.00  0.00    +0.006 A 
ATOM     10  C   UNL     1       9.119  -0.444  25.834  0.00  0.00    +0.046 A 
BRANCH   5  11
ATOM     11  C   UNL     1       4.944  -3.875  23.272  0.00  0.00    +0.115 C 
ATOM     12  N   UNL     1       4.221  -4.577  22.690  0.00  0.00    -0.190 NA
ENDBRANCH   5  11
ENDBRANCH   1   2
BRANCH   1  13
ATOM     13  C   UNL     1      10.431   0.008  23.267  0.00  0.00    +0.261 C 
BRANCH  13  14
ATOM     14  C   UNL     1       9.967   0.098  21.805  0.00  0.00    +0.166 C 
BRANCH  14  15
ATOM     15  O   UNL     1       9.725  -1.218  21.278  0.00  0.00    -0.387 OA
ATOM     16  H   UNL     1       9.002  -1.624  21.786  0.00  0.00    +0.210 HD
ENDBRANCH  14  15
BRANCH  14  17
ATOM     17  C   UNL     1       8.693   0.931  21.596  0.00  0.00    +0.116 C 
BRANCH  17  18
ATOM     18  N   UNL     1       8.922   2.374  21.754  0.00  0.00    -0.309 NA
ATOM     19  H   UNL     1       9.920   2.529  21.898  0.00  0.00    +0.123 HD
BRANCH  18  21
ATOM     20  C   UNL     1       9.185   3.629  23.893  0.00  0.00    +0.027 C 
ATOM     21  C   UNL     1       8.207   2.997  22.888  0.00  0.00    +0.011 C 
ATOM     22  C   UNL     1       7.342   4.122  22.284  0.00  0.00    +0.027 C 
ATOM     23  C   UNL     1       7.278   2.001  23.599  0.00  0.00    +0.027 C 
ENDBRANCH  18  21
ENDBRANCH  17  18
ENDBRANCH  14  17
ENDBRANCH  13  14
ENDBRANCH   1  13
TORSDOF 8
ENDMDL
MODEL 8
REMARK VINA RESULT:      -5.5      2.224      6.677
REMARK  Name = 
REMARK  11 active torsions:
REMARK  status: ('A' for Active; 'I' for Inactive)
REMARK    1  A    between atoms: C_1  and  C_2
REMARK    2  A    between atoms: C_2  and  C_3
REMARK    3  A    between atoms: C_2  and  C_4
REMARK    4  A    between atoms: C_2  and  N_5
REMARK    5  A    between atoms: N_5  and  C_6
REMARK    6  A    between atoms: C_6  and  C_7
REMARK    7  A    between atoms: C_7  and  O_9
REMARK    8  A    between atoms: C_7  and  C_10
REMARK    9  A    between atoms: C_10  and  O_11
REMARK   10  A    between atoms: O_11  and  C_12
REMARK   11  A    between atoms: C_19  and  C_21
REMARK                            x       y       z     vdW  Elec       q    Type
REMARK                         _______ _______ _______ _____ _____    ______ ____
ROOT
ATOM      1  O   UNL     1       7.915  -2.144  24.487  0.00  0.00    -0.489 OA
ENDROOT
BRANCH   1   2
ATOM      2  C   UNL     1       8.470  -1.192  23.680  0.00  0.00    +0.126 A 
ATOM      3  C   UNL     1       8.552   0.172  23.910  0.00  0.00    +0.026 A 
ATOM      4  C   UNL     1       8.094   1.033  25.043  0.00  0.00    +0.107 C 
ATOM      5  C   UNL     1       8.497   2.370  24.511  0.00  0.00    +0.122 C 
ATOM      6  N   UNL     1       9.075   2.395  23.348  0.00  0.00    -0.241 NA
ATOM      7  C   UNL     1       9.115   1.041  22.953  0.00  0.00    +0.072 A 
ATOM      8  C   UNL     1       9.608   0.572  21.752  0.00  0.00    +0.028 A 
ATOM      9  C   UNL     1       9.528  -0.797  21.502  0.00  0.00    +0.006 A 
ATOM     10  C   UNL     1       8.957  -1.665  22.453  0.00  0.00    +0.046 A 
BRANCH   5  11
ATOM     11  C   UNL     1       8.275   3.593  25.218  0.00  0.00    +0.115 C 
ATOM     12  N   UNL     1       8.159   4.615  25.764  0.00  0.00    -0.190 NA
ENDBRANCH   5  11
ENDBRANCH   1   2
BRANCH   1  13
ATOM     13  C   UNL     1       8.768  -2.764  25.450  0.00  0.00    +0.261 C 
BRANCH  13  14
ATOM     14  C   UNL     1       8.919  -4.271  25.188  0.00  0.00    +0.166 C 
BRANCH  14  15
ATOM     15  O   UNL     1       9.261  -4.955  26.405  0.00  0.00    -0.387 OA
ATOM     16  H   UNL     1       9.709  -5.787  26.175  0.00  0.00    +0.210 HD
ENDBRANCH  14  15
BRANCH  14  17
ATOM     17  C   UNL     1       7.665  -4.940  24.606  0.00  0.00    +0.116 C 
BRANCH  17  18
ATOM     18  N   UNL     1       7.623  -4.899  23.138  0.00  0.00    -0.309 NA
ATOM     19  H   UNL     1       7.965  -3.988  22.831  0.00  0.00    +0.123 HD
BRANCH  18  21
ATOM     20  C   UNL     1       5.360  -5.887  23.489  0.00  0.00    +0.027 C 
ATOM     21  C   UNL     1       6.281  -5.092  22.548  0.00  0.00    +0.011 C 
ATOM     22  C   UNL     1       5.686  -3.681  22.366  0.00  0.00    +0.027 C 
ATOM     23  C   UNL     1       6.351  -5.769  21.170  0.00  0.00    +0.027 C 
ENDBRANCH  18  21
ENDBRANCH  17  18
ENDBRANCH  14  17
ENDBRANCH  13  14
ENDBRANCH   1  13
TORSDOF 8
ENDMDL
MODEL 9
REMARK VINA RESULT:      -5.4      2.582      4.526
REMARK  Name = 
REMARK  11 active torsions:
REMARK  status: ('A' for Active; 'I' for Inactive)
REMARK    1  A    between atoms: C_1  and  C_2
REMARK    2  A    between atoms: C_2  and  C_3
REMARK    3  A    between atoms: C_2  and  C_4
REMARK    4  A    between atoms: C_2  and  N_5
REMARK    5  A    between atoms: N_5  and  C_6
REMARK    6  A    between atoms: C_6  and  C_7
REMARK    7  A    between atoms: C_7  and  O_9
REMARK    8  A    between atoms: C_7  and  C_10
REMARK    9  A    between atoms: C_10  and  O_11
REMARK   10  A    between atoms: O_11  and  C_12
REMARK   11  A    between atoms: C_19  and  C_21
REMARK                            x       y       z     vdW  Elec       q    Type
REMARK                         _______ _______ _______ _____ _____    ______ ____
ROOT
ATOM      1  O   UNL     1       9.305   0.039  23.263  0.00  0.00    -0.489 OA
ENDROOT
BRANCH   1   2
ATOM      2  C   UNL     1       8.939  -0.895  24.189  0.00  0.00    +0.126 A 
ATOM      3  C   UNL     1       8.472  -2.180  23.960  0.00  0.00    +0.026 A 
ATOM      4  C   UNL     1       8.215  -2.950  22.705  0.00  0.00    +0.107 C 
ATOM      5  C   UNL     1       7.674  -4.210  23.299  0.00  0.00    +0.122 C 
ATOM      6  N   UNL     1       7.600  -4.270  24.594  0.00  0.00    -0.241 NA
ATOM      7  C   UNL     1       8.086  -3.017  25.026  0.00  0.00    +0.072 A 
ATOM      8  C   UNL     1       8.158  -2.597  26.339  0.00  0.00    +0.028 A 
ATOM      9  C   UNL     1       8.622  -1.305  26.587  0.00  0.00    +0.006 A 
ATOM     10  C   UNL     1       8.998  -0.464  25.523  0.00  0.00    +0.046 A 
BRANCH   5  11
ATOM     11  C   UNL     1       7.245  -5.325  22.513  0.00  0.00    +0.115 C 
ATOM     12  N   UNL     1       6.827  -6.205  21.876  0.00  0.00    -0.190 NA
ENDBRANCH   5  11
ENDBRANCH   1   2
BRANCH   1  13
ATOM     13  C   UNL     1      10.420   0.874  23.579  0.00  0.00    +0.261 C 
BRANCH  13  14
ATOM     14  C   UNL     1      10.250   2.289  23.005  0.00  0.00    +0.166 C 
BRANCH  14  15
ATOM     15  O   UNL     1      10.086   2.230  21.577  0.00  0.00    -0.387 OA
ATOM     16  H   UNL     1       9.135   2.251  21.376  0.00  0.00    +0.210 HD
ENDBRANCH  14  15
BRANCH  14  17
ATOM     17  C   UNL     1       9.060   3.069  23.584  0.00  0.00    +0.116 C 
BRANCH  17  18
ATOM     18  N   UNL     1       8.858   4.371  22.935  0.00  0.00    -0.309 NA
ATOM     19  H   UNL     1       9.462   4.418  22.113  0.00  0.00    +0.123 HD
BRANCH  18  21
ATOM     20  C   UNL     1       8.311   6.761  23.390  0.00  0.00    +0.027 C 
ATOM     21  C   UNL     1       9.165   5.543  23.781  0.00  0.00    +0.011 C 
ATOM     22  C   UNL     1       8.797   5.139  25.223  0.00  0.00    +0.027 C 
ATOM     23  C   UNL     1      10.658   5.903  23.745  0.00  0.00    +0.027 C 
ENDBRANCH  18  21
ENDBRANCH  17  18
ENDBRANCH  14  17
ENDBRANCH  13  14
ENDBRANCH   1  13
TORSDOF 8
ENDMDL
