MODEL 1
REMARK VINA RESULT:      -4.4      0.000      0.000
REMARK  Name = 
REMARK  8 active torsions:
REMARK  status: ('A' for Active; 'I' for Inactive)
REMARK    1  A    between atoms: C_1  and  C_2
REMARK    2  A    between atoms: C_2  and  C_4
REMARK    3  A    between atoms: C_4  and  S_5
REMARK    4  A    between atoms: S_5  and  C_6
REMARK    5  A    between atoms: C_6  and  C_7
REMARK    6  A    between atoms: C_7  and  N_9
REMARK    7  A    between atoms: C_7  and  C_10
REMARK    8  A    between atoms: C_10  and  O_11
REMARK                            x       y       z     vdW  Elec       q    Type
REMARK                         _______ _______ _______ _____ _____    ______ ____
ROOT
ATOM      1  C   UNK     1       9.184  -4.571  25.598  0.00  0.00    +0.171 C 
ENDROOT
BRANCH   1   2
ATOM      2  N   UNK     1      10.297  -5.568  25.469  0.00  0.00    -0.318 NA
ATOM      3  H   UNK     1      11.145  -5.104  25.821  0.00  0.00    +0.119 HD
ATOM      4  H   UNK     1      10.131  -6.311  26.157  0.00  0.00    +0.119 HD
ENDBRANCH   1   2
BRANCH   1   5
ATOM      5  C   UNK     1       7.934  -5.298  26.107  0.00  0.00    +0.323 C 
ATOM      6  O   UNK     1       6.905  -5.451  25.468  0.00  0.00    -0.249 OA
BRANCH   5   7
ATOM      7  O   UNK     1       8.109  -5.776  27.366  0.00  0.00    -0.480 OA
ATOM      8  H   UNK     1       8.004  -6.759  27.300  0.00  0.00    +0.295 HD
ENDBRANCH   5   7
ENDBRANCH   1   5
BRANCH   1   9
ATOM      9  C   UNK     1       8.840  -3.877  24.271  0.00  0.00    +0.099 C 
BRANCH   9  10
ATOM     10  S   UNK     1       8.621  -2.074  24.520  0.00  0.00    -0.151 S 
BRANCH  10  11
ATOM     11  C   UNK     1       8.293  -1.594  22.798  0.00  0.00    +0.143 C 
BRANCH  11  13
ATOM     12  C   UNK     1       9.504   0.308  21.542  0.00  0.00    +0.087 C 
ATOM     13  C   UNK     1       9.563  -1.064  22.163  0.00  0.00    +0.140 C 
ATOM     14  O   UNK     1      10.605  -1.723  22.151  0.00  0.00    -0.297 OA
ENDBRANCH  11  13
ENDBRANCH  10  11
ENDBRANCH   9  10
ENDBRANCH   1   9
TORSDOF 7
ENDMDL
MODEL 2
REMARK VINA RESULT:      -4.4      1.833      2.083
REMARK  Name = 
REMARK  8 active torsions:
REMARK  status: ('A' for Active; 'I' for Inactive)
REMARK    1  A    between atoms: C_1  and  C_2
REMARK    2  A    between atoms: C_2  and  C_4
REMARK    3  A    between atoms: C_4  and  S_5
REMARK    4  A    between atoms: S_5  and  C_6
REMARK    5  A    between atoms: C_6  and  C_7
REMARK    6  A    between atoms: C_7  and  N_9
REMARK    7  A    between atoms: C_7  and  C_10
REMARK    8  A    between atoms: C_10  and  O_11
REMARK                            x       y       z     vdW  Elec       q    Type
REMARK                         _______ _______ _______ _____ _____    ______ ____
ROOT
ATOM      1  C   UNK     1       8.022  -4.765  26.134  0.00  0.00    +0.171 C 
ENDROOT
BRANCH   1   2
ATOM      2  N   UNK     1       7.984  -5.659  27.340  0.00  0.00    -0.318 NA
ATOM      3  H   UNK     1       7.780  -5.051  28.145  0.00  0.00    +0.119 HD
ATOM      4  H   UNK     1       7.144  -6.244  27.266  0.00  0.00    +0.119 HD
ENDBRANCH   1   2
BRANCH   1   5
ATOM      5  C   UNK     1       9.054  -5.320  25.147  0.00  0.00    +0.323 C 
ATOM      6  O   UNK     1       8.853  -5.505  23.957  0.00  0.00    -0.249 OA
BRANCH   5   7
ATOM      7  O   UNK     1      10.243  -5.572  25.752  0.00  0.00    -0.480 OA
ATOM      8  H   UNK     1      10.934  -5.154  25.176  0.00  0.00    +0.295 HD
ENDBRANCH   5   7
ENDBRANCH   1   5
BRANCH   1   9
ATOM      9  C   UNK     1       8.398  -3.314  26.473  0.00  0.00    +0.099 C 
BRANCH   9  10
ATOM     10  S   UNK     1       7.824  -2.172  25.159  0.00  0.00    -0.151 S 
BRANCH  10  11
ATOM     11  C   UNK     1       9.443  -1.639  24.527  0.00  0.00    +0.143 C 
BRANCH  11  13
ATOM     12  C   UNK     1       8.276  -2.374  22.346  0.00  0.00    +0.087 C 
ATOM     13  C   UNK     1       9.540  -1.945  23.046  0.00  0.00    +0.140 C 
ATOM     14  O   UNK     1      10.606  -1.851  22.434  0.00  0.00    -0.297 OA
ENDBRANCH  11  13
ENDBRANCH  10  11
ENDBRANCH   9  10
ENDBRANCH   1   9
TORSDOF 7
ENDMDL
MODEL 3
REMARK VINA RESULT:      -4.4      2.877      5.725
REMARK  Name = 
REMARK  8 active torsions:
REMARK  status: ('A' for Active; 'I' for Inactive)
REMARK    1  A    between atoms: C_1  and  C_2
REMARK    2  A    between atoms: C_2  and  C_4
REMARK    3  A    between atoms: C_4  and  S_5
REMARK    4  A    between atoms: S_5  and  C_6
REMARK    5  A    between atoms: C_6  and  C_7
REMARK    6  A    between atoms: C_7  and  N_9
REMARK    7  A    between atoms: C_7  and  C_10
REMARK    8  A    between atoms: C_10  and  O_11
REMARK                            x       y       z     vdW  Elec       q    Type
REMARK                         _______ _______ _______ _____ _____    ______ ____
ROOT
ATOM      1  C   UNK     1       9.182  -0.317  21.715  0.00  0.00    +0.171 C 
ENDROOT
BRANCH   1   2
ATOM      2  N   UNK     1      10.185  -1.418  21.528  0.00  0.00    -0.318 NA
ATOM      3  H   UNK     1       9.652  -2.298  21.529  0.00  0.00    +0.119 HD
ATOM      4  H   UNK     1      10.538  -1.356  20.567  0.00  0.00    +0.119 HD
ENDBRANCH   1   2
BRANCH   1   5
ATOM      5  C   UNK     1       9.909   0.918  22.261  0.00  0.00    +0.323 C 
ATOM      6  O   UNK     1      10.506   0.964  23.325  0.00  0.00    -0.249 OA
BRANCH   5   7
ATOM      7  O   UNK     1       9.826   1.968  21.405  0.00  0.00    -0.480 OA
ATOM      8  H   UNK     1       8.901   2.314  21.487  0.00  0.00    +0.295 HD
ENDBRANCH   5   7
ENDBRANCH   1   5
BRANCH   1   9
ATOM      9  C   UNK     1       8.053  -0.690  22.688  0.00  0.00    +0.099 C 
BRANCH   9  10
ATOM     10  S   UNK     1       7.611  -2.461  22.519  0.00  0.00    -0.151 S 
BRANCH  10  11
ATOM     11  C   UNK     1       7.845  -2.971  24.248  0.00  0.00    +0.143 C 
BRANCH  11  13
ATOM     12  C   UNK     1       9.276  -4.896  25.200  0.00  0.00    +0.087 C 
ATOM     13  C   UNK     1       9.208  -3.612  24.413  0.00  0.00    +0.140 C 
ATOM     14  O   UNK     1      10.224  -3.110  23.927  0.00  0.00    -0.297 OA
ENDBRANCH  11  13
ENDBRANCH  10  11
ENDBRANCH   9  10
ENDBRANCH   1   9
TORSDOF 7
ENDMDL
MODEL 4
REMARK VINA RESULT:      -4.3      1.356      1.401
REMARK  Name = 
REMARK  8 active torsions:
REMARK  status: ('A' for Active; 'I' for Inactive)
REMARK    1  A    between atoms: C_1  and  C_2
REMARK    2  A    between atoms: C_2  and  C_4
REMARK    3  A    between atoms: C_4  and  S_5
REMARK    4  A    between atoms: S_5  and  C_6
REMARK    5  A    between atoms: C_6  and  C_7
REMARK    6  A    between atoms: C_7  and  N_9
REMARK    7  A    between atoms: C_7  and  C_10
REMARK    8  A    between atoms: C_10  and  O_11
REMARK                            x       y       z     vdW  Elec       q    Type
REMARK                         _______ _______ _______ _____ _____    ______ ____
ROOT
ATOM      1  C   UNK     1       9.114  -4.545  25.289  0.00  0.00    +0.171 C 
ENDROOT
BRANCH   1   2
ATOM      2  N   UNK     1      10.129  -5.648  25.346  0.00  0.00    -0.318 NA
ATOM      3  H   UNK     1      10.609  -5.649  24.436  0.00  0.00    +0.119 HD
ATOM      4  H   UNK     1      10.864  -5.360  26.001  0.00  0.00    +0.119 HD
ENDBRANCH   1   2
BRANCH   1   5
ATOM      5  C   UNK     1       8.181  -4.676  26.498  0.00  0.00    +0.323 C 
ATOM      6  O   UNK     1       7.462  -3.786  26.926  0.00  0.00    -0.249 OA
BRANCH   5   7
ATOM      7  O   UNK     1       8.233  -5.920  27.039  0.00  0.00    -0.480 OA
ATOM      8  H   UNK     1       8.770  -6.467  26.411  0.00  0.00    +0.295 HD
ENDBRANCH   5   7
ENDBRANCH   1   5
BRANCH   1   9
ATOM      9  C   UNK     1       8.264  -4.575  24.009  0.00  0.00    +0.099 C 
BRANCH   9  10
ATOM     10  S   UNK     1       8.229  -2.924  23.214  0.00  0.00    -0.151 S 
BRANCH  10  11
ATOM     11  C   UNK     1       9.896  -2.361  23.670  0.00  0.00    +0.143 C 
BRANCH  11  13
ATOM     12  C   UNK     1       9.680  -0.624  21.775  0.00  0.00    +0.087 C 
ATOM     13  C   UNK     1      10.108  -0.942  23.185  0.00  0.00    +0.140 C 
ATOM     14  O   UNK     1      10.611  -0.078  23.907  0.00  0.00    -0.297 OA
ENDBRANCH  11  13
ENDBRANCH  10  11
ENDBRANCH   9  10
ENDBRANCH   1   9
TORSDOF 7
ENDMDL
MODEL 5
REMARK VINA RESULT:      -4.3      3.387      4.033
REMARK  Name = 
REMARK  8 active torsions:
REMARK  status: ('A' for Active; 'I' for Inactive)
REMARK    1  A    between atoms: C_1  and  C_2
REMARK    2  A    between atoms: C_2  and  C_4
REMARK    3  A    between atoms: C_4  and  S_5
REMARK    4  A    between atoms: S_5  and  C_6
REMARK    5  A    between atoms: C_6  and  C_7
REMARK    6  A    between atoms: C_7  and  N_9
REMARK    7  A    between atoms: C_7  and  C_10
REMARK    8  A    between atoms: C_10  and  O_11
REMARK                            x       y       z     vdW  Elec       q    Type
REMARK                         _______ _______ _______ _____ _____    ______ ____
ROOT
ATOM      1  C   UNK     1       8.020  -5.006  25.844  0.00  0.00    +0.171 C 
ENDROOT
BRANCH   1   2
ATOM      2  N   UNK     1       8.173  -5.712  27.160  0.00  0.00    -0.318 NA
ATOM      3  H   UNK     1       9.041  -5.355  27.581  0.00  0.00    +0.119 HD
ATOM      4  H   UNK     1       7.442  -5.360  27.788  0.00  0.00    +0.119 HD
ENDBRANCH   1   2
BRANCH   1   5
ATOM      5  C   UNK     1       9.410  -4.814  25.228  0.00  0.00    +0.323 C 
ATOM      6  O   UNK     1       9.693  -3.972  24.391  0.00  0.00    -0.249 OA
BRANCH   5   7
ATOM      7  O   UNK     1      10.311  -5.692  25.740  0.00  0.00    -0.480 OA
ATOM      8  H   UNK     1      10.248  -5.602  26.725  0.00  0.00    +0.295 HD
ENDBRANCH   5   7
ENDBRANCH   1   5
BRANCH   1   9
ATOM      9  C   UNK     1       7.347  -3.631  25.974  0.00  0.00    +0.099 C 
BRANCH   9  10
ATOM     10  S   UNK     1       6.073  -3.407  24.676  0.00  0.00    -0.151 S 
BRANCH  10  11
ATOM     11  C   UNK     1       5.890  -5.142  24.165  0.00  0.00    +0.143 C 
BRANCH  11  13
ATOM     12  C   UNK     1       7.213  -5.931  22.095  0.00  0.00    +0.087 C 
ATOM     13  C   UNK     1       5.994  -5.245  22.657  0.00  0.00    +0.140 C 
ATOM     14  O   UNK     1       5.123  -4.788  21.914  0.00  0.00    -0.297 OA
ENDBRANCH  11  13
ENDBRANCH  10  11
ENDBRANCH   9  10
ENDBRANCH   1   9
TORSDOF 7
ENDMDL
MODEL 6
REMARK VINA RESULT:      -4.2      3.332      3.791
REMARK  Name = 
REMARK  8 active torsions:
REMARK  status: ('A' for Active; 'I' for Inactive)
REMARK    1  A    between atoms: C_1  and  C_2
REMARK    2  A    between atoms: C_2  and  C_4
REMARK    3  A    between atoms: C_4  and  S_5
REMARK    4  A    between atoms: S_5  and  C_6
REMARK    5  A    between atoms: C_6  and  C_7
REMARK    6  A    between atoms: C_7  and  N_9
REMARK    7  A    between atoms: C_7  and  C_10
REMARK    8  A    between atoms: C_10  and  O_11
REMARK                            x       y       z     vdW  Elec       q    Type
REMARK                         _______ _______ _______ _____ _____    ______ ____
ROOT
ATOM      1  C   UNK     1       6.372  -4.345  22.064  0.00  0.00    +0.171 C 
ENDROOT
BRANCH   1   2
ATOM      2  N   UNK     1       5.018  -3.865  22.499  0.00  0.00    -0.318 NA
ATOM      3  H   UNK     1       5.053  -2.837  22.473  0.00  0.00    +0.119 HD
ATOM      4  H   UNK     1       4.352  -4.099  21.756  0.00  0.00    +0.119 HD
ENDBRANCH   1   2
BRANCH   1   5
ATOM      5  C   UNK     1       6.192  -5.614  21.223  0.00  0.00    +0.323 C 
ATOM      6  O   UNK     1       5.971  -5.631  20.022  0.00  0.00    -0.249 OA
BRANCH   5   7
ATOM      7  O   UNK     1       6.327  -6.738  21.974  0.00  0.00    -0.480 OA
ATOM      8  H   UNK     1       6.275  -6.440  22.918  0.00  0.00    +0.295 HD
ENDBRANCH   5   7
ENDBRANCH   1   5
BRANCH   1   9
ATOM      9  C   UNK     1       7.305  -4.666  23.242  0.00  0.00    +0.099 C 
BRANCH   9  10
ATOM     10  S   UNK     1       8.196  -3.162  23.791  0.00  0.00    -0.151 S 
BRANCH  10  11
ATOM     11  C   UNK     1       8.235  -2.269  22.209  0.00  0.00    +0.143 C 
BRANCH  11  13
ATOM     12  C   UNK     1       9.455  -0.122  21.460  0.00  0.00    +0.087 C 
ATOM     13  C   UNK     1       9.528  -1.487  22.094  0.00  0.00    +0.140 C 
ATOM     14  O   UNK     1      10.600  -1.944  22.498  0.00  0.00    -0.297 OA
ENDBRANCH  11  13
ENDBRANCH  10  11
ENDBRANCH   9  10
ENDBRANCH   1   9
TORSDOF 7
ENDMDL
MODEL 7
REMARK VINA RESULT:      -4.2      3.861      5.943
REMARK  Name = 
REMARK  8 active torsions:
REMARK  status: ('A' for Active; 'I' for Inactive)
REMARK    1  A    between atoms: C_1  and  C_2
REMARK    2  A    between atoms: C_2  and  C_4
REMARK    3  A    between atoms: C_4  and  S_5
REMARK    4  A    between atoms: S_5  and  C_6
REMARK    5  A    between atoms: C_6  and  C_7
REMARK    6  A    between atoms: C_7  and  N_9
REMARK    7  A    between atoms: C_7  and  C_10
REMARK    8  A    between atoms: C_10  and  O_11
REMARK                            x       y       z     vdW  Elec       q    Type
REMARK                         _______ _______ _______ _____ _____    ______ ____
ROOT
ATOM      1  C   UNK     1      10.126   1.229  22.450  0.00  0.00    +0.171 C 
ENDROOT
BRANCH   1   2
ATOM      2  N   UNK     1      10.572   2.579  21.970  0.00  0.00    -0.318 NA
ATOM      3  H   UNK     1      11.168   2.412  21.148  0.00  0.00    +0.119 HD
ATOM      4  H   UNK     1       9.753   3.054  21.575  0.00  0.00    +0.119 HD
ENDBRANCH   1   2
BRANCH   1   5
ATOM      5  C   UNK     1       9.120   0.660  21.443  0.00  0.00    +0.323 C 
ATOM      6  O   UNK     1       8.133   1.249  21.032  0.00  0.00    -0.249 OA
BRANCH   5   7
ATOM      7  O   UNK     1       9.467  -0.590  21.040  0.00  0.00    -0.480 OA
ATOM      8  H   UNK     1      10.403  -0.522  20.720  0.00  0.00    +0.295 HD
ENDBRANCH   5   7
ENDBRANCH   1   5
BRANCH   1   9
ATOM      9  C   UNK     1       9.462   1.272  23.835  0.00  0.00    +0.099 C 
BRANCH   9  10
ATOM     10  S   UNK     1      10.143  -0.037  24.922  0.00  0.00    -0.151 S 
BRANCH  10  11
ATOM     11  C   UNK     1       8.936  -1.349  24.567  0.00  0.00    +0.143 C 
BRANCH  11  13
ATOM     12  C   UNK     1       9.381  -3.888  24.684  0.00  0.00    +0.087 C 
ATOM     13  C   UNK     1       9.650  -2.565  24.013  0.00  0.00    +0.140 C 
ATOM     14  O   UNK     1      10.421  -2.484  23.055  0.00  0.00    -0.297 OA
ENDBRANCH  11  13
ENDBRANCH  10  11
ENDBRANCH   9  10
ENDBRANCH   1   9
TORSDOF 7
ENDMDL
MODEL 8
REMARK VINA RESULT:      -4.1      3.141      3.614
REMARK  Name = 
REMARK  8 active torsions:
REMARK  status: ('A' for Active; 'I' for Inactive)
REMARK    1  A    between atoms: C_1  and  C_2
REMARK    2  A    between atoms: C_2  and  C_4
REMARK    3  A    between atoms: C_4  and  S_5
REMARK    4  A    between atoms: S_5  and  C_6
REMARK    5  A    between atoms: C_6  and  C_7
REMARK    6  A    between atoms: C_7  and  N_9
REMARK    7  A    between atoms: C_7  and  C_10
REMARK    8  A    between atoms: C_10  and  O_11
REMARK                            x       y       z     vdW  Elec       q    Type
REMARK                         _______ _______ _______ _____ _____    ______ ____
ROOT
ATOM      1  C   UNK     1       9.052  -4.660  25.181  0.00  0.00    +0.171 C 
ENDROOT
BRANCH   1   2
ATOM      2  N   UNK     1      10.188  -5.622  25.369  0.00  0.00    -0.318 NA
ATOM      3  H   UNK     1      11.047  -5.108  25.130  0.00  0.00    +0.119 HD
ATOM      4  H   UNK     1      10.287  -5.793  26.375  0.00  0.00    +0.119 HD
ENDBRANCH   1   2
BRANCH   1   5
ATOM      5  C   UNK     1       8.171  -4.694  26.434  0.00  0.00    +0.323 C 
ATOM      6  O   UNK     1       7.498  -3.760  26.841  0.00  0.00    -0.249 OA
BRANCH   5   7
ATOM      7  O   UNK     1       8.209  -5.907  27.042  0.00  0.00    -0.480 OA
ATOM      8  H   UNK     1       9.038  -5.912  27.586  0.00  0.00    +0.295 HD
ENDBRANCH   5   7
ENDBRANCH   1   5
BRANCH   1   9
ATOM      9  C   UNK     1       8.181  -4.989  23.959  0.00  0.00    +0.099 C 
BRANCH   9  10
ATOM     10  S   UNK     1       7.696  -3.457  23.077  0.00  0.00    -0.151 S 
BRANCH  10  11
ATOM     11  C   UNK     1       6.280  -4.111  22.143  0.00  0.00    +0.143 C 
BRANCH  11  13
ATOM     12  C   UNK     1       5.048  -3.049  24.146  0.00  0.00    +0.087 C 
ATOM     13  C   UNK     1       5.021  -4.002  22.979  0.00  0.00    +0.140 C 
ATOM     14  O   UNK     1       4.013  -4.664  22.722  0.00  0.00    -0.297 OA
ENDBRANCH  11  13
ENDBRANCH  10  11
ENDBRANCH   9  10
ENDBRANCH   1   9
TORSDOF 7
ENDMDL
MODEL 9
REMARK VINA RESULT:      -4.0      4.365      4.721
REMARK  Name = 
REMARK  8 active torsions:
REMARK  status: ('A' for Active; 'I' for Inactive)
REMARK    1  A    between atoms: C_1  and  C_2
REMARK    2  A    between atoms: C_2  and  C_4
REMARK    3  A    between atoms: C_4  and  S_5
REMARK    4  A    between atoms: S_5  and  C_6
REMARK    5  A    between atoms: C_6  and  C_7
REMARK    6  A    between atoms: C_7  and  N_9
REMARK    7  A    between atoms: C_7  and  C_10
REMARK    8  A    between atoms: C_10  and  O_11
REMARK                            x       y       z     vdW  Elec       q    Type
REMARK                         _______ _______ _______ _____ _____    ______ ____
ROOT
ATOM      1  C   UNK     1       6.459  -5.589  27.563  0.00  0.00    +0.171 C 
ENDROOT
BRANCH   1   2
ATOM      2  N   UNK     1       7.936  -5.702  27.325  0.00  0.00    -0.318 NA
ATOM      3  H   UNK     1       8.050  -6.281  26.482  0.00  0.00    +0.119 HD
ATOM      4  H   UNK     1       8.274  -4.781  27.027  0.00  0.00    +0.119 HD
ENDBRANCH   1   2
BRANCH   1   5
ATOM      5  C   UNK     1       6.108  -6.370  28.835  0.00  0.00    +0.323 C 
ATOM      6  O   UNK     1       6.331  -5.989  29.973  0.00  0.00    -0.249 OA
BRANCH   5   7
ATOM      7  O   UNK     1       5.494  -7.546  28.547  0.00  0.00    -0.480 OA
ATOM      8  H   UNK     1       6.115  -8.257  28.851  0.00  0.00    +0.295 HD
ENDBRANCH   5   7
ENDBRANCH   1   5
BRANCH   1   9
ATOM      9  C   UNK     1       5.618  -6.139  26.402  0.00  0.00    +0.099 C 
BRANCH   9  10
ATOM     10  S   UNK     1       5.111  -4.789  25.271  0.00  0.00    -0.151 S 
BRANCH  10  11
ATOM     11  C   UNK     1       6.357  -5.033  23.971  0.00  0.00    +0.143 C 
BRANCH  11  13
ATOM     12  C   UNK     1       6.238  -5.979  21.574  0.00  0.00    +0.087 C 
ATOM     13  C   UNK     1       5.687  -5.036  22.612  0.00  0.00    +0.140 C 
ATOM     14  O   UNK     1       4.730  -4.301  22.360  0.00  0.00    -0.297 OA
ENDBRANCH  11  13
ENDBRANCH  10  11
ENDBRANCH   9  10
ENDBRANCH   1   9
TORSDOF 7
ENDMDL
