MODEL 1
REMARK VINA RESULT:      -6.5      0.000      0.000
REMARK  Name = 
REMARK  7 active torsions:
REMARK  status: ('A' for Active; 'I' for Inactive)
REMARK    1  A    between atoms: C_1  and  C_2
REMARK    2  A    between atoms: C_2  and  C_3
REMARK    3  A    between atoms: C_3  and  C_4
REMARK    4  A    between atoms: C_4  and  C_5
REMARK    5  A    between atoms: N_8  and  C_19
REMARK    6  A    between atoms: N_9  and  C_12
REMARK    7  A    between atoms: C_15  and  O_16
REMARK                            x       y       z     vdW  Elec       q    Type
REMARK                         _______ _______ _______ _____ _____    ______ ____
ROOT
ATOM      1  C   UNL     1       9.595  -1.381  25.248  0.00  0.00    +0.165 C 
ATOM      2  C   UNL     1       9.450  -2.389  24.133  0.00  0.00    +0.249 C 
ATOM      3  O   UNL     1      10.213  -2.493  23.181  0.00  0.00    -0.273 OA
ATOM      4  N   UNL     1       8.295  -3.141  24.424  0.00  0.00    -0.180 N 
ATOM      5  N   UNL     1       7.590  -2.552  25.511  0.00  0.00    -0.180 N 
ATOM      6  C   UNL     1       8.218  -1.348  25.876  0.00  0.00    +0.249 C 
ATOM      7  O   UNL     1       7.829  -0.492  26.656  0.00  0.00    -0.273 OA
ENDROOT
BRANCH   4   8
ATOM      8  C   UNL     1       7.651  -3.858  23.381  0.00  0.00    +0.057 A 
ATOM      9  C   UNL     1       6.770  -3.237  22.484  0.00  0.00    +0.029 A 
ATOM     10  C   UNL     1       6.136  -3.991  21.492  0.00  0.00    +0.047 A 
ATOM     11  C   UNL     1       6.345  -5.363  21.422  0.00  0.00    +0.117 A 
ATOM     12  C   UNL     1       7.183  -6.002  22.331  0.00  0.00    +0.047 A 
ATOM     13  C   UNL     1       7.849  -5.244  23.299  0.00  0.00    +0.029 A 
BRANCH  11  14
ATOM     14  O   UNL     1       5.707  -6.060  20.441  0.00  0.00    -0.507 OA
ATOM     15  H   UNL     1       5.097  -6.695  20.854  0.00  0.00    +0.292 HD
ENDBRANCH  11  14
ENDBRANCH   4   8
BRANCH   5  16
ATOM     16  C   UNL     1       6.901  -3.351  26.494  0.00  0.00    +0.057 A 
ATOM     17  C   UNL     1       5.644  -2.978  26.992  0.00  0.00    +0.025 A 
ATOM     18  C   UNL     1       4.925  -3.807  27.863  0.00  0.00    +0.002 A 
ATOM     19  C   UNL     1       5.448  -5.034  28.252  0.00  0.00    +0.000 A 
ATOM     20  C   UNL     1       6.701  -5.417  27.795  0.00  0.00    +0.002 A 
ATOM     21  C   UNL     1       7.425  -4.577  26.939  0.00  0.00    +0.025 A 
ENDBRANCH   5  16
BRANCH   1  22
ATOM     22  C   UNL     1      10.153  -0.008  24.856  0.00  0.00    +0.022 C 
BRANCH  22  23
ATOM     23  C   UNL     1       9.185   0.753  23.933  0.00  0.00    +0.001 C 
BRANCH  23  25
ATOM     24  C   UNL     1       9.417   0.434  21.456  0.00  0.00    +0.004 C 
ATOM     25  C   UNL     1       9.841   1.275  22.657  0.00  0.00    -0.003 C 
ENDBRANCH  23  25
ENDBRANCH  22  23
ENDBRANCH   1  22
TORSDOF 6
ENDMDL
MODEL 2
REMARK VINA RESULT:      -6.5      1.450      4.621
REMARK  Name = 
REMARK  7 active torsions:
REMARK  status: ('A' for Active; 'I' for Inactive)
REMARK    1  A    between atoms: C_1  and  C_2
REMARK    2  A    between atoms: C_2  and  C_3
REMARK    3  A    between atoms: C_3  and  C_4
REMARK    4  A    between atoms: C_4  and  C_5
REMARK    5  A    between atoms: N_8  and  C_19
REMARK    6  A    between atoms: N_9  and  C_12
REMARK    7  A    between atoms: C_15  and  O_16
REMARK                            x       y       z     vdW  Elec       q    Type
REMARK                         _______ _______ _______ _____ _____    ______ ____
ROOT
ATOM      1  C   UNL     1       8.988  -0.943  24.726  0.00  0.00    +0.165 C 
ATOM      2  C   UNL     1       8.066  -1.427  25.821  0.00  0.00    +0.249 C 
ATOM      3  O   UNL     1       7.815  -0.809  26.847  0.00  0.00    -0.273 OA
ATOM      4  N   UNL     1       7.588  -2.687  25.409  0.00  0.00    -0.180 N 
ATOM      5  N   UNL     1       8.296  -3.125  24.254  0.00  0.00    -0.180 N 
ATOM      6  C   UNL     1       9.317  -2.205  23.958  0.00  0.00    +0.249 C 
ATOM      7  O   UNL     1      10.220  -2.308  23.142  0.00  0.00    -0.273 OA
ENDROOT
BRANCH   4   8
ATOM      8  C   UNL     1       7.060  -3.581  26.379  0.00  0.00    +0.057 A 
ATOM      9  C   UNL     1       7.740  -4.745  26.767  0.00  0.00    +0.029 A 
ATOM     10  C   UNL     1       7.166  -5.610  27.703  0.00  0.00    +0.047 A 
ATOM     11  C   UNL     1       5.903  -5.339  28.217  0.00  0.00    +0.117 A 
ATOM     12  C   UNL     1       5.197  -4.209  27.811  0.00  0.00    +0.047 A 
ATOM     13  C   UNL     1       5.787  -3.323  26.905  0.00  0.00    +0.029 A 
BRANCH  11  14
ATOM     14  O   UNL     1       5.380  -6.208  29.125  0.00  0.00    -0.507 OA
ATOM     15  H   UNL     1       5.971  -6.977  29.199  0.00  0.00    +0.292 HD
ENDBRANCH  11  14
ENDBRANCH   4   8
BRANCH   5  16
ATOM     16  C   UNL     1       7.651  -3.873  23.205  0.00  0.00    +0.057 A 
ATOM     17  C   UNL     1       7.826  -5.259  23.077  0.00  0.00    +0.025 A 
ATOM     18  C   UNL     1       7.116  -6.004  22.127  0.00  0.00    +0.002 A 
ATOM     19  C   UNL     1       6.206  -5.377  21.285  0.00  0.00    +0.000 A 
ATOM     20  C   UNL     1       6.031  -4.003  21.372  0.00  0.00    +0.002 A 
ATOM     21  C   UNL     1       6.757  -3.259  22.310  0.00  0.00    +0.025 A 
ENDBRANCH   5  16
BRANCH   1  22
ATOM     22  C   UNL     1      10.208  -0.131  25.175  0.00  0.00    +0.022 C 
BRANCH  22  23
ATOM     23  C   UNL     1      10.422   1.107  24.286  0.00  0.00    +0.001 C 
BRANCH  23  25
ATOM     24  C   UNL     1       9.806   1.306  21.863  0.00  0.00    +0.004 C 
ATOM     25  C   UNL     1       9.286   1.352  23.296  0.00  0.00    -0.003 C 
ENDBRANCH  23  25
ENDBRANCH  22  23
ENDBRANCH   1  22
TORSDOF 6
ENDMDL
MODEL 3
REMARK VINA RESULT:      -6.1      1.324      2.257
REMARK  Name = 
REMARK  7 active torsions:
REMARK  status: ('A' for Active; 'I' for Inactive)
REMARK    1  A    between atoms: C_1  and  C_2
REMARK    2  A    between atoms: C_2  and  C_3
REMARK    3  A    between atoms: C_3  and  C_4
REMARK    4  A    between atoms: C_4  and  C_5
REMARK    5  A    between atoms: N_8  and  C_19
REMARK    6  A    between atoms: N_9  and  C_12
REMARK    7  A    between atoms: C_15  and  O_16
REMARK                            x       y       z     vdW  Elec       q    Type
REMARK                         _______ _______ _______ _____ _____    ______ ____
ROOT
ATOM      1  C   UNL     1       9.596  -0.749  24.754  0.00  0.00    +0.165 C 
ATOM      2  C   UNL     1       9.389  -2.091  24.092  0.00  0.00    +0.249 C 
ATOM      3  O   UNL     1      10.262  -2.730  23.519  0.00  0.00    -0.273 OA
ATOM      4  N   UNL     1       8.031  -2.419  24.275  0.00  0.00    -0.180 N 
ATOM      5  N   UNL     1       7.327  -1.304  24.810  0.00  0.00    -0.180 N 
ATOM      6  C   UNL     1       8.193  -0.199  24.883  0.00  0.00    +0.249 C 
ATOM      7  O   UNL     1       7.922   0.964  25.144  0.00  0.00    -0.273 OA
ENDROOT
BRANCH   4   8
ATOM      8  C   UNL     1       7.427  -3.380  23.422  0.00  0.00    +0.057 A 
ATOM      9  C   UNL     1       7.690  -4.753  23.542  0.00  0.00    +0.029 A 
ATOM     10  C   UNL     1       7.094  -5.658  22.659  0.00  0.00    +0.047 A 
ATOM     11  C   UNL     1       6.276  -5.195  21.636  0.00  0.00    +0.117 A 
ATOM     12  C   UNL     1       6.037  -3.833  21.478  0.00  0.00    +0.047 A 
ATOM     13  C   UNL     1       6.600  -2.929  22.384  0.00  0.00    +0.029 A 
BRANCH  11  14
ATOM     14  O   UNL     1       5.717  -6.111  20.797  0.00  0.00    -0.507 OA
ATOM     15  H   UNL     1       5.918  -7.002  21.129  0.00  0.00    +0.292 HD
ENDBRANCH  11  14
ENDBRANCH   4   8
BRANCH   5  16
ATOM     16  C   UNL     1       6.255  -1.465  25.760  0.00  0.00    +0.057 A 
ATOM     17  C   UNL     1       6.244  -2.521  26.684  0.00  0.00    +0.025 A 
ATOM     18  C   UNL     1       5.262  -2.616  27.677  0.00  0.00    +0.002 A 
ATOM     19  C   UNL     1       4.268  -1.650  27.773  0.00  0.00    +0.000 A 
ATOM     20  C   UNL     1       4.239  -0.609  26.857  0.00  0.00    +0.002 A 
ATOM     21  C   UNL     1       5.212  -0.527  25.853  0.00  0.00    +0.025 A 
ENDBRANCH   5  16
BRANCH   1  22
ATOM     22  C   UNL     1      10.596   0.196  24.078  0.00  0.00    +0.022 C 
BRANCH  22  23
ATOM     23  C   UNL     1      10.211   0.473  22.614  0.00  0.00    +0.001 C 
BRANCH  23  25
ATOM     24  C   UNL     1      10.619   2.821  23.393  0.00  0.00    +0.004 C 
ATOM     25  C   UNL     1       9.987   1.952  22.311  0.00  0.00    -0.003 C 
ENDBRANCH  23  25
ENDBRANCH  22  23
ENDBRANCH   1  22
TORSDOF 6
ENDMDL
MODEL 4
REMARK VINA RESULT:      -5.9      2.415      5.738
REMARK  Name = 
REMARK  7 active torsions:
REMARK  status: ('A' for Active; 'I' for Inactive)
REMARK    1  A    between atoms: C_1  and  C_2
REMARK    2  A    between atoms: C_2  and  C_3
REMARK    3  A    between atoms: C_3  and  C_4
REMARK    4  A    between atoms: C_4  and  C_5
REMARK    5  A    between atoms: N_8  and  C_19
REMARK    6  A    between atoms: N_9  and  C_12
REMARK    7  A    between atoms: C_15  and  O_16
REMARK                            x       y       z     vdW  Elec       q    Type
REMARK                         _______ _______ _______ _____ _____    ______ ____
ROOT
ATOM      1  C   UNL     1       7.307  -3.222  24.198  0.00  0.00    +0.165 C 
ATOM      2  C   UNL     1       7.866  -2.096  23.360  0.00  0.00    +0.249 C 
ATOM      3  O   UNL     1       8.240  -2.207  22.199  0.00  0.00    -0.273 OA
ATOM      4  N   UNL     1       7.860  -0.950  24.180  0.00  0.00    -0.180 N 
ATOM      5  N   UNL     1       7.544  -1.309  25.520  0.00  0.00    -0.180 N 
ATOM      6  C   UNL     1       7.443  -2.709  25.614  0.00  0.00    +0.249 C 
ATOM      7  O   UNL     1       7.334  -3.397  26.618  0.00  0.00    -0.273 OA
ENDROOT
BRANCH   4   8
ATOM      8  C   UNL     1       8.702   0.145  23.850  0.00  0.00    +0.057 A 
ATOM      9  C   UNL     1       9.992   0.280  24.384  0.00  0.00    +0.029 A 
ATOM     10  C   UNL     1      10.773   1.391  24.053  0.00  0.00    +0.047 A 
ATOM     11  C   UNL     1      10.255   2.384  23.230  0.00  0.00    +0.117 A 
ATOM     12  C   UNL     1       8.962   2.286  22.725  0.00  0.00    +0.047 A 
ATOM     13  C   UNL     1       8.194   1.156  23.023  0.00  0.00    +0.029 A 
BRANCH  11  14
ATOM     14  O   UNL     1      11.049   3.451  22.934  0.00  0.00    -0.507 OA
ATOM     15  H   UNL     1      11.856   3.128  22.499  0.00  0.00    +0.292 HD
ENDBRANCH  11  14
ENDBRANCH   4   8
BRANCH   5  16
ATOM     16  C   UNL     1       6.755  -0.455  26.371  0.00  0.00    +0.057 A 
ATOM     17  C   UNL     1       7.324   0.224  27.459  0.00  0.00    +0.025 A 
ATOM     18  C   UNL     1       6.586   1.139  28.220  0.00  0.00    +0.002 A 
ATOM     19  C   UNL     1       5.258   1.401  27.905  0.00  0.00    +0.000 A 
ATOM     20  C   UNL     1       4.663   0.725  26.850  0.00  0.00    +0.002 A 
ATOM     21  C   UNL     1       5.398  -0.203  26.103  0.00  0.00    +0.025 A 
ENDBRANCH   5  16
BRANCH   1  22
ATOM     22  C   UNL     1       7.910  -4.611  23.959  0.00  0.00    +0.022 C 
BRANCH  22  23
ATOM     23  C   UNL     1       6.899  -5.559  23.290  0.00  0.00    +0.001 C 
BRANCH  23  25
ATOM     24  C   UNL     1       6.163  -5.607  20.893  0.00  0.00    +0.004 C 
ATOM     25  C   UNL     1       7.284  -5.957  21.867  0.00  0.00    -0.003 C 
ENDBRANCH  23  25
ENDBRANCH  22  23
ENDBRANCH   1  22
TORSDOF 6
ENDMDL
MODEL 5
REMARK VINA RESULT:      -5.8      2.207      6.526
REMARK  Name = 
REMARK  7 active torsions:
REMARK  status: ('A' for Active; 'I' for Inactive)
REMARK    1  A    between atoms: C_1  and  C_2
REMARK    2  A    between atoms: C_2  and  C_3
REMARK    3  A    between atoms: C_3  and  C_4
REMARK    4  A    between atoms: C_4  and  C_5
REMARK    5  A    between atoms: N_8  and  C_19
REMARK    6  A    between atoms: N_9  and  C_12
REMARK    7  A    between atoms: C_15  and  O_16
REMARK                            x       y       z     vdW  Elec       q    Type
REMARK                         _______ _______ _______ _____ _____    ______ ____
ROOT
ATOM      1  C   UNL     1       8.625  -3.666  24.411  0.00  0.00    +0.165 C 
ATOM      2  C   UNL     1       8.093  -3.071  25.694  0.00  0.00    +0.249 C 
ATOM      3  O   UNL     1       7.788  -3.715  26.689  0.00  0.00    -0.273 OA
ATOM      4  N   UNL     1       8.031  -1.678  25.490  0.00  0.00    -0.180 N 
ATOM      5  N   UNL     1       8.278  -1.373  24.122  0.00  0.00    -0.180 N 
ATOM      6  C   UNL     1       8.399  -2.569  23.393  0.00  0.00    +0.249 C 
ATOM      7  O   UNL     1       8.464  -2.719  22.182  0.00  0.00    -0.273 OA
ENDROOT
BRANCH   4   8
ATOM      8  C   UNL     1       7.188  -0.891  26.319  0.00  0.00    +0.057 A 
ATOM      9  C   UNL     1       5.802  -0.821  26.119  0.00  0.00    +0.029 A 
ATOM     10  C   UNL     1       5.017  -0.009  26.943  0.00  0.00    +0.047 A 
ATOM     11  C   UNL     1       5.616   0.763  27.932  0.00  0.00    +0.117 A 
ATOM     12  C   UNL     1       6.996   0.736  28.117  0.00  0.00    +0.047 A 
ATOM     13  C   UNL     1       7.777  -0.106  27.320  0.00  0.00    +0.029 A 
BRANCH  11  14
ATOM     14  O   UNL     1       4.815   1.541  28.711  0.00  0.00    -0.507 OA
ATOM     15  H   UNL     1       4.330   2.160  28.141  0.00  0.00    +0.292 HD
ENDBRANCH  11  14
ENDBRANCH   4   8
BRANCH   5  16
ATOM     16  C   UNL     1       9.000  -0.191  23.724  0.00  0.00    +0.057 A 
ATOM     17  C   UNL     1       8.538   0.640  22.692  0.00  0.00    +0.025 A 
ATOM     18  C   UNL     1       9.179   1.845  22.378  0.00  0.00    +0.002 A 
ATOM     19  C   UNL     1      10.297   2.251  23.097  0.00  0.00    +0.000 A 
ATOM     20  C   UNL     1      10.791   1.437  24.106  0.00  0.00    +0.002 A 
ATOM     21  C   UNL     1      10.159   0.223  24.404  0.00  0.00    +0.025 A 
ENDBRANCH   5  16
BRANCH   1  22
ATOM     22  C   UNL     1       8.063  -5.035  24.012  0.00  0.00    +0.022 C 
BRANCH  22  23
ATOM     23  C   UNL     1       6.525  -5.021  23.954  0.00  0.00    +0.001 C 
BRANCH  23  25
ATOM     24  C   UNL     1       7.086  -5.930  21.685  0.00  0.00    +0.004 C 
ATOM     25  C   UNL     1       5.960  -5.495  22.617  0.00  0.00    -0.003 C 
ENDBRANCH  23  25
ENDBRANCH  22  23
ENDBRANCH   1  22
TORSDOF 6
ENDMDL
MODEL 6
REMARK VINA RESULT:      -5.6      2.071      4.805
REMARK  Name = 
REMARK  7 active torsions:
REMARK  status: ('A' for Active; 'I' for Inactive)
REMARK    1  A    between atoms: C_1  and  C_2
REMARK    2  A    between atoms: C_2  and  C_3
REMARK    3  A    between atoms: C_3  and  C_4
REMARK    4  A    between atoms: C_4  and  C_5
REMARK    5  A    between atoms: N_8  and  C_19
REMARK    6  A    between atoms: N_9  and  C_12
REMARK    7  A    between atoms: C_15  and  O_16
REMARK                            x       y       z     vdW  Elec       q    Type
REMARK                         _______ _______ _______ _____ _____    ______ ____
ROOT
ATOM      1  C   UNL     1       7.172  -0.126  23.492  0.00  0.00    +0.165 C 
ATOM      2  C   UNL     1       6.001  -0.491  24.374  0.00  0.00    +0.249 C 
ATOM      3  O   UNL     1       5.282   0.315  24.950  0.00  0.00    -0.273 OA
ATOM      4  N   UNL     1       5.932  -1.899  24.380  0.00  0.00    -0.180 N 
ATOM      5  N   UNL     1       7.085  -2.447  23.750  0.00  0.00    -0.180 N 
ATOM      6  C   UNL     1       7.973  -1.408  23.419  0.00  0.00    +0.249 C 
ATOM      7  O   UNL     1       9.120  -1.490  23.008  0.00  0.00    -0.273 OA
ENDROOT
BRANCH   4   8
ATOM      8  C   UNL     1       5.236  -2.556  25.428  0.00  0.00    +0.057 A 
ATOM      9  C   UNL     1       5.816  -2.770  26.687  0.00  0.00    +0.029 A 
ATOM     10  C   UNL     1       5.102  -3.449  27.679  0.00  0.00    +0.047 A 
ATOM     11  C   UNL     1       3.835  -3.950  27.404  0.00  0.00    +0.117 A 
ATOM     12  C   UNL     1       3.262  -3.782  26.147  0.00  0.00    +0.047 A 
ATOM     13  C   UNL     1       3.958  -3.069  25.166  0.00  0.00    +0.029 A 
BRANCH  11  14
ATOM     14  O   UNL     1       3.175  -4.607  28.398  0.00  0.00    -0.507 OA
ATOM     15  H   UNL     1       3.103  -4.017  29.168  0.00  0.00    +0.292 HD
ENDBRANCH  11  14
ENDBRANCH   4   8
BRANCH   5  16
ATOM     16  C   UNL     1       7.018  -3.642  22.948  0.00  0.00    +0.057 A 
ATOM     17  C   UNL     1       7.706  -4.810  23.312  0.00  0.00    +0.025 A 
ATOM     18  C   UNL     1       7.556  -6.003  22.595  0.00  0.00    +0.002 A 
ATOM     19  C   UNL     1       6.705  -6.058  21.497  0.00  0.00    +0.000 A 
ATOM     20  C   UNL     1       6.031  -4.912  21.100  0.00  0.00    +0.002 A 
ATOM     21  C   UNL     1       6.199  -3.715  21.808  0.00  0.00    +0.025 A 
ENDBRANCH   5  16
BRANCH   1  22
ATOM     22  C   UNL     1       7.978   1.110  23.910  0.00  0.00    +0.022 C 
BRANCH  22  23
ATOM     23  C   UNL     1       8.503   1.883  22.687  0.00  0.00    +0.001 C 
BRANCH  23  25
ATOM     24  C   UNL     1      10.611   1.583  24.012  0.00  0.00    +0.004 C 
ATOM     25  C   UNL     1      10.004   2.158  22.736  0.00  0.00    -0.003 C 
ENDBRANCH  23  25
ENDBRANCH  22  23
ENDBRANCH   1  22
TORSDOF 6
ENDMDL
MODEL 7
REMARK VINA RESULT:      -5.6      2.511      5.474
REMARK  Name = 
REMARK  7 active torsions:
REMARK  status: ('A' for Active; 'I' for Inactive)
REMARK    1  A    between atoms: C_1  and  C_2
REMARK    2  A    between atoms: C_2  and  C_3
REMARK    3  A    between atoms: C_3  and  C_4
REMARK    4  A    between atoms: C_4  and  C_5
REMARK    5  A    between atoms: N_8  and  C_19
REMARK    6  A    between atoms: N_9  and  C_12
REMARK    7  A    between atoms: C_15  and  O_16
REMARK                            x       y       z     vdW  Elec       q    Type
REMARK                         _______ _______ _______ _____ _____    ______ ____
ROOT
ATOM      1  C   UNL     1       6.420  -3.751  24.147  0.00  0.00    +0.165 C 
ATOM      2  C   UNL     1       6.816  -2.690  23.145  0.00  0.00    +0.249 C 
ATOM      3  O   UNL     1       6.857  -2.855  21.933  0.00  0.00    -0.273 OA
ATOM      4  N   UNL     1       7.112  -1.532  23.890  0.00  0.00    -0.180 N 
ATOM      5  N   UNL     1       7.139  -1.838  25.280  0.00  0.00    -0.180 N 
ATOM      6  C   UNL     1       6.966  -3.222  25.455  0.00  0.00    +0.249 C 
ATOM      7  O   UNL     1       7.079  -3.880  26.479  0.00  0.00    -0.273 OA
ENDROOT
BRANCH   4   8
ATOM      8  C   UNL     1       7.913  -0.515  23.306  0.00  0.00    +0.057 A 
ATOM      9  C   UNL     1       7.352   0.605  22.676  0.00  0.00    +0.029 A 
ATOM     10  C   UNL     1       8.181   1.565  22.088  0.00  0.00    +0.047 A 
ATOM     11  C   UNL     1       9.560   1.387  22.089  0.00  0.00    +0.117 A 
ATOM     12  C   UNL     1      10.131   0.260  22.673  0.00  0.00    +0.047 A 
ATOM     13  C   UNL     1       9.305  -0.681  23.297  0.00  0.00    +0.029 A 
BRANCH  11  14
ATOM     14  O   UNL     1      10.330   2.345  21.504  0.00  0.00    -0.507 OA
ATOM     15  H   UNL     1       9.775   2.870  20.903  0.00  0.00    +0.292 HD
ENDBRANCH  11  14
ENDBRANCH   4   8
BRANCH   5  16
ATOM     16  C   UNL     1       6.671  -0.905  26.274  0.00  0.00    +0.057 A 
ATOM     17  C   UNL     1       5.308  -0.780  26.580  0.00  0.00    +0.025 A 
ATOM     18  C   UNL     1       4.862   0.045  27.620  0.00  0.00    +0.002 A 
ATOM     19  C   UNL     1       5.774   0.761  28.385  0.00  0.00    +0.000 A 
ATOM     20  C   UNL     1       7.127   0.677  28.088  0.00  0.00    +0.002 A 
ATOM     21  C   UNL     1       7.567  -0.134  27.035  0.00  0.00    +0.025 A 
ENDBRANCH   5  16
BRANCH   1  22
ATOM     22  C   UNL     1       6.834  -5.189  23.814  0.00  0.00    +0.022 C 
BRANCH  22  23
ATOM     23  C   UNL     1       5.674  -5.981  23.186  0.00  0.00    +0.001 C 
BRANCH  23  25
ATOM     24  C   UNL     1       3.205  -5.556  23.284  0.00  0.00    +0.004 C 
ATOM     25  C   UNL     1       4.425  -6.034  24.063  0.00  0.00    -0.003 C 
ENDBRANCH  23  25
ENDBRANCH  22  23
ENDBRANCH   1  22
TORSDOF 6
ENDMDL
MODEL 8
REMARK VINA RESULT:      -5.6      2.105      5.900
REMARK  Name = 
REMARK  7 active torsions:
REMARK  status: ('A' for Active; 'I' for Inactive)
REMARK    1  A    between atoms: C_1  and  C_2
REMARK    2  A    between atoms: C_2  and  C_3
REMARK    3  A    between atoms: C_3  and  C_4
REMARK    4  A    between atoms: C_4  and  C_5
REMARK    5  A    between atoms: N_8  and  C_19
REMARK    6  A    between atoms: N_9  and  C_12
REMARK    7  A    between atoms: C_15  and  O_16
REMARK                            x       y       z     vdW  Elec       q    Type
REMARK                         _______ _______ _______ _____ _____    ______ ____
ROOT
ATOM      1  C   UNL     1       5.514  -1.957  26.338  0.00  0.00    +0.165 C 
ATOM      2  C   UNL     1       6.686  -1.085  25.952  0.00  0.00    +0.249 C 
ATOM      3  O   UNL     1       7.205  -0.249  26.680  0.00  0.00    -0.273 OA
ATOM      4  N   UNL     1       7.023  -1.437  24.629  0.00  0.00    -0.180 N 
ATOM      5  N   UNL     1       6.032  -2.301  24.086  0.00  0.00    -0.180 N 
ATOM      6  C   UNL     1       4.980  -2.441  25.008  0.00  0.00    +0.249 C 
ATOM      7  O   UNL     1       3.893  -2.975  24.847  0.00  0.00    -0.273 OA
ENDROOT
BRANCH   4   8
ATOM      8  C   UNL     1       7.777  -0.528  23.839  0.00  0.00    +0.057 A 
ATOM      9  C   UNL     1       7.165   0.452  23.045  0.00  0.00    +0.029 A 
ATOM     10  C   UNL     1       7.947   1.305  22.261  0.00  0.00    +0.047 A 
ATOM     11  C   UNL     1       9.329   1.152  22.234  0.00  0.00    +0.117 A 
ATOM     12  C   UNL     1       9.949   0.157  22.985  0.00  0.00    +0.047 A 
ATOM     13  C   UNL     1       9.171  -0.670  23.801  0.00  0.00    +0.029 A 
BRANCH  11  14
ATOM     14  O   UNL     1      10.053   2.002  21.456  0.00  0.00    -0.507 OA
ATOM     15  H   UNL     1      10.351   2.750  22.002  0.00  0.00    +0.292 HD
ENDBRANCH  11  14
ENDBRANCH   4   8
BRANCH   5  16
ATOM     16  C   UNL     1       6.369  -3.374  23.185  0.00  0.00    +0.057 A 
ATOM     17  C   UNL     1       7.197  -4.435  23.583  0.00  0.00    +0.025 A 
ATOM     18  C   UNL     1       7.437  -5.532  22.746  0.00  0.00    +0.002 A 
ATOM     19  C   UNL     1       6.847  -5.595  21.489  0.00  0.00    +0.000 A 
ATOM     20  C   UNL     1       6.044  -4.549  21.060  0.00  0.00    +0.002 A 
ATOM     21  C   UNL     1       5.822  -3.444  21.891  0.00  0.00    +0.025 A 
ENDBRANCH   5  16
BRANCH   1  22
ATOM     22  C   UNL     1       4.465  -1.318  27.255  0.00  0.00    +0.022 C 
BRANCH  22  23
ATOM     23  C   UNL     1       3.874  -2.343  28.239  0.00  0.00    +0.001 C 
BRANCH  23  25
ATOM     24  C   UNL     1       3.822  -4.844  28.057  0.00  0.00    +0.004 C 
ATOM     25  C   UNL     1       4.693  -3.627  28.350  0.00  0.00    -0.003 C 
ENDBRANCH  23  25
ENDBRANCH  22  23
ENDBRANCH   1  22
TORSDOF 6
ENDMDL
MODEL 9
REMARK VINA RESULT:      -5.5      2.658      5.928
REMARK  Name = 
REMARK  7 active torsions:
REMARK  status: ('A' for Active; 'I' for Inactive)
REMARK    1  A    between atoms: C_1  and  C_2
REMARK    2  A    between atoms: C_2  and  C_3
REMARK    3  A    between atoms: C_3  and  C_4
REMARK    4  A    between atoms: C_4  and  C_5
REMARK    5  A    between atoms: N_8  and  C_19
REMARK    6  A    between atoms: N_9  and  C_12
REMARK    7  A    between atoms: C_15  and  O_16
REMARK                            x       y       z     vdW  Elec       q    Type
REMARK                         _______ _______ _______ _____ _____    ______ ____
ROOT
ATOM      1  C   UNL     1       5.209   0.236  25.635  0.00  0.00    +0.165 C 
ATOM      2  C   UNL     1       5.546  -1.221  25.416  0.00  0.00    +0.249 C 
ATOM      3  O   UNL     1       4.784  -2.154  25.629  0.00  0.00    -0.273 OA
ATOM      4  N   UNL     1       6.871  -1.254  24.938  0.00  0.00    -0.180 N 
ATOM      5  N   UNL     1       7.460   0.038  25.040  0.00  0.00    -0.180 N 
ATOM      6  C   UNL     1       6.563   0.909  25.685  0.00  0.00    +0.249 C 
ATOM      7  O   UNL     1       6.762   2.046  26.085  0.00  0.00    -0.273 OA
ENDROOT
BRANCH   4   8
ATOM      8  C   UNL     1       7.619  -2.456  25.045  0.00  0.00    +0.057 A 
ATOM      9  C   UNL     1       7.728  -3.362  23.980  0.00  0.00    +0.029 A 
ATOM     10  C   UNL     1       8.451  -4.548  24.142  0.00  0.00    +0.047 A 
ATOM     11  C   UNL     1       9.024  -4.849  25.372  0.00  0.00    +0.117 A 
ATOM     12  C   UNL     1       8.890  -3.980  26.452  0.00  0.00    +0.047 A 
ATOM     13  C   UNL     1       8.202  -2.775  26.279  0.00  0.00    +0.029 A 
BRANCH  11  14
ATOM     14  O   UNL     1       9.718  -6.015  25.488  0.00  0.00    -0.507 OA
ATOM     15  H   UNL     1      10.324  -5.945  26.245  0.00  0.00    +0.292 HD
ENDBRANCH  11  14
ENDBRANCH   4   8
BRANCH   5  16
ATOM     16  C   UNL     1       8.386   0.533  24.053  0.00  0.00    +0.057 A 
ATOM     17  C   UNL     1       8.073   0.529  22.685  0.00  0.00    +0.025 A 
ATOM     18  C   UNL     1       8.924   1.108  21.736  0.00  0.00    +0.002 A 
ATOM     19  C   UNL     1      10.109   1.713  22.136  0.00  0.00    +0.000 A 
ATOM     20  C   UNL     1      10.456   1.709  23.479  0.00  0.00    +0.002 A 
ATOM     21  C   UNL     1       9.612   1.112  24.423  0.00  0.00    +0.025 A 
ENDBRANCH   5  16
BRANCH   1  22
ATOM     22  C   UNL     1       4.294   0.550  26.825  0.00  0.00    +0.022 C 
BRANCH  22  23
ATOM     23  C   UNL     1       4.945   0.152  28.161  0.00  0.00    +0.001 C 
BRANCH  23  25
ATOM     24  C   UNL     1       2.755  -1.046  28.396  0.00  0.00    +0.004 C 
ATOM     25  C   UNL     1       4.189  -0.945  28.906  0.00  0.00    -0.003 C 
ENDBRANCH  23  25
ENDBRANCH  22  23
ENDBRANCH   1  22
TORSDOF 6
ENDMDL
