MODEL 1
REMARK VINA RESULT:      -7.5      0.000      0.000
REMARK  Name = 
REMARK  9 active torsions:
REMARK  status: ('A' for Active; 'I' for Inactive)
REMARK    1  A    between atoms: C_1  and  C_2
REMARK    2  A    between atoms: C_2  and  O_3
REMARK    3  A    between atoms: O_3  and  C_4
REMARK    4  A    between atoms: C_10  and  C_11
REMARK    5  A    between atoms: C_11  and  O_12
REMARK    6  A    between atoms: N_15  and  C_16
REMARK    7  A    between atoms: C_16  and  C_17
REMARK    8  A    between atoms: C_20  and  C_23
REMARK    9  A    between atoms: C_28  and  C_29
REMARK                            x       y       z     vdW  Elec       q    Type
REMARK                         _______ _______ _______ _____ _____    ______ ____
ROOT
ATOM      1  C   UNL     1       8.136  -1.690  25.780  0.00  0.00    -0.028 A 
ATOM      2  C   UNL     1       6.782  -1.466  25.502  0.00  0.00    +0.006 A 
ATOM      3  C   UNL     1       5.896  -2.547  25.347  0.00  0.00    +0.009 A 
ATOM      4  C   UNL     1       6.316  -3.884  25.507  0.00  0.00    -0.017 A 
ATOM      5  C   UNL     1       7.670  -4.075  25.826  0.00  0.00    +0.009 A 
ATOM      6  C   UNL     1       8.568  -3.010  25.928  0.00  0.00    +0.006 A 
ENDROOT
BRANCH   4   7
ATOM      7  C   UNL     1       5.364  -5.033  25.418  0.00  0.00    -0.007 A 
ATOM      8  C   UNL     1       5.096  -5.782  24.235  0.00  0.00    +0.030 A 
ATOM      9  C   UNL     1       4.289  -6.940  24.297  0.00  0.00    +0.012 A 
ATOM     10  C   UNL     1       3.706  -7.351  25.492  0.00  0.00    +0.001 A 
ATOM     11  C   UNL     1       3.914  -6.609  26.644  0.00  0.00    +0.001 A 
ATOM     12  C   UNL     1       4.732  -5.475  26.606  0.00  0.00    +0.009 A 
BRANCH   8  13
ATOM     13  C   UNL     1       5.630  -5.437  22.924  0.00  0.00    +0.205 A 
ATOM     14  N   UNL     1       5.186  -4.348  22.205  0.00  0.00    -0.108 NA
ATOM     15  N   UNL     1       5.781  -4.402  21.020  0.00  0.00    -0.049 NA
ATOM     16  N   UNL     1       6.550  -5.500  21.082  0.00  0.00    -0.176 N 
ATOM     17  H   UNL     1       7.065  -5.845  20.276  0.00  0.00    +0.214 HD
ATOM     18  N   UNL     1       6.563  -6.135  22.260  0.00  0.00    -0.133 NA
ENDBRANCH   8  13
ENDBRANCH   4   7
BRANCH   1  19
ATOM     19  C   UNL     1       9.114  -0.574  26.039  0.00  0.00    +0.162 C 
BRANCH  19  21
ATOM     20  C   UNL     1       9.955   0.110  23.809  0.00  0.00    +0.299 A 
ATOM     21  N   UNL     1       9.260   0.395  24.964  0.00  0.00    -0.289 N 
ATOM     22  C   UNL     1       8.852   1.716  24.891  0.00  0.00    +0.086 A 
ATOM     23  C   UNL     1       9.604   2.208  23.816  0.00  0.00    +0.094 A 
ATOM     24  C   UNL     1       9.637   3.582  23.540  0.00  0.00    +0.030 A 
ATOM     25  C   UNL     1       8.896   4.454  24.337  0.00  0.00    +0.003 A 
ATOM     26  C   UNL     1       8.064   3.951  25.337  0.00  0.00    +0.017 A 
ATOM     27  C   UNL     1       7.989   2.569  25.611  0.00  0.00    +0.084 A 
ATOM     28  N   UNL     1      10.216   1.195  23.127  0.00  0.00    -0.195 NA
BRANCH  27  29
ATOM     29  C   UNL     1       6.931   2.128  26.551  0.00  0.00    +0.339 C 
ATOM     30  O   UNL     1       5.789   1.852  26.222  0.00  0.00    -0.245 OA
BRANCH  29  31
ATOM     31  O   UNL     1       7.403   1.909  27.799  0.00  0.00    -0.477 OA
ATOM     32  H   UNL     1       8.043   2.583  28.095  0.00  0.00    +0.295 HD
ENDBRANCH  29  31
ENDBRANCH  27  29
BRANCH  20  33
ATOM     33  O   UNL     1      10.340  -1.122  23.482  0.00  0.00    -0.464 OA
BRANCH  33  35
ATOM     34  C   UNL     1       8.514  -2.058  22.224  0.00  0.00    +0.048 C 
ATOM     35  C   UNL     1       9.937  -1.528  22.166  0.00  0.00    +0.229 C 
ENDBRANCH  33  35
ENDBRANCH  20  33
ENDBRANCH  19  21
ENDBRANCH   1  19
TORSDOF 8
ENDMDL
MODEL 2
REMARK VINA RESULT:      -7.2      2.723      7.903
REMARK  Name = 
REMARK  9 active torsions:
REMARK  status: ('A' for Active; 'I' for Inactive)
REMARK    1  A    between atoms: C_1  and  C_2
REMARK    2  A    between atoms: C_2  and  O_3
REMARK    3  A    between atoms: O_3  and  C_4
REMARK    4  A    between atoms: C_10  and  C_11
REMARK    5  A    between atoms: C_11  and  O_12
REMARK    6  A    between atoms: N_15  and  C_16
REMARK    7  A    between atoms: C_16  and  C_17
REMARK    8  A    between atoms: C_20  and  C_23
REMARK    9  A    between atoms: C_28  and  C_29
REMARK                            x       y       z     vdW  Elec       q    Type
REMARK                         _______ _______ _______ _____ _____    ______ ____
ROOT
ATOM      1  C   UNL     1       8.357  -2.047  23.499  0.00  0.00    -0.028 A 
ATOM      2  C   UNL     1       8.677  -1.401  22.298  0.00  0.00    +0.006 A 
ATOM      3  C   UNL     1       8.937  -0.020  22.277  0.00  0.00    +0.009 A 
ATOM      4  C   UNL     1       8.930   0.758  23.452  0.00  0.00    -0.017 A 
ATOM      5  C   UNL     1       8.645   0.076  24.646  0.00  0.00    +0.009 A 
ATOM      6  C   UNL     1       8.333  -1.285  24.670  0.00  0.00    +0.006 A 
ENDROOT
BRANCH   4   7
ATOM      7  C   UNL     1       9.277   2.213  23.447  0.00  0.00    -0.007 A 
ATOM      8  C   UNL     1       8.332   3.278  23.482  0.00  0.00    +0.030 A 
ATOM      9  C   UNL     1       8.774   4.613  23.621  0.00  0.00    +0.012 A 
ATOM     10  C   UNL     1      10.129   4.923  23.683  0.00  0.00    +0.001 A 
ATOM     11  C   UNL     1      11.066   3.904  23.602  0.00  0.00    +0.001 A 
ATOM     12  C   UNL     1      10.646   2.575  23.492  0.00  0.00    +0.009 A 
BRANCH   8  13
ATOM     13  C   UNL     1       6.890   3.081  23.401  0.00  0.00    +0.205 A 
ATOM     14  N   UNL     1       6.105   2.878  24.516  0.00  0.00    -0.108 NA
ATOM     15  N   UNL     1       4.881   2.610  24.078  0.00  0.00    -0.049 NA
ATOM     16  N   UNL     1       4.982   2.670  22.742  0.00  0.00    -0.176 N 
ATOM     17  H   UNL     1       4.210   2.421  22.129  0.00  0.00    +0.214 HD
ATOM     18  N   UNL     1       6.178   3.038  22.266  0.00  0.00    -0.133 NA
ENDBRANCH   8  13
ENDBRANCH   4   7
BRANCH   1  19
ATOM     19  C   UNL     1       8.152  -3.536  23.598  0.00  0.00    +0.162 C 
BRANCH  19  21
ATOM     20  C   UNL     1       5.862  -4.127  22.852  0.00  0.00    +0.299 A 
ATOM     21  N   UNL     1       6.788  -3.967  23.860  0.00  0.00    -0.289 N 
ATOM     22  C   UNL     1       6.143  -4.210  25.061  0.00  0.00    +0.086 A 
ATOM     23  C   UNL     1       4.793  -4.201  24.688  0.00  0.00    +0.094 A 
ATOM     24  C   UNL     1       3.784  -4.207  25.663  0.00  0.00    +0.030 A 
ATOM     25  C   UNL     1       4.143  -4.242  27.010  0.00  0.00    +0.003 A 
ATOM     26  C   UNL     1       5.483  -4.358  27.375  0.00  0.00    +0.017 A 
ATOM     27  C   UNL     1       6.513  -4.387  26.411  0.00  0.00    +0.084 A 
ATOM     28  N   UNL     1       4.647  -4.221  23.327  0.00  0.00    -0.195 NA
BRANCH  27  29
ATOM     29  C   UNL     1       7.875  -4.714  26.894  0.00  0.00    +0.339 C 
ATOM     30  O   UNL     1       8.802  -3.923  26.928  0.00  0.00    -0.245 OA
BRANCH  29  31
ATOM     31  O   UNL     1       7.948  -5.947  27.445  0.00  0.00    -0.477 OA
ATOM     32  H   UNL     1       7.077  -6.368  27.570  0.00  0.00    +0.295 HD
ENDBRANCH  29  31
ENDBRANCH  27  29
BRANCH  20  33
ATOM     33  O   UNL     1       6.193  -4.133  21.561  0.00  0.00    -0.464 OA
BRANCH  33  35
ATOM     34  C   UNL     1       6.874  -6.424  21.834  0.00  0.00    +0.048 C 
ATOM     35  C   UNL     1       6.137  -5.430  20.952  0.00  0.00    +0.229 C 
ENDBRANCH  33  35
ENDBRANCH  20  33
ENDBRANCH  19  21
ENDBRANCH   1  19
TORSDOF 8
ENDMDL
MODEL 3
REMARK VINA RESULT:      -7.1      2.303      3.178
REMARK  Name = 
REMARK  9 active torsions:
REMARK  status: ('A' for Active; 'I' for Inactive)
REMARK    1  A    between atoms: C_1  and  C_2
REMARK    2  A    between atoms: C_2  and  O_3
REMARK    3  A    between atoms: O_3  and  C_4
REMARK    4  A    between atoms: C_10  and  C_11
REMARK    5  A    between atoms: C_11  and  O_12
REMARK    6  A    between atoms: N_15  and  C_16
REMARK    7  A    between atoms: C_16  and  C_17
REMARK    8  A    between atoms: C_20  and  C_23
REMARK    9  A    between atoms: C_28  and  C_29
REMARK                            x       y       z     vdW  Elec       q    Type
REMARK                         _______ _______ _______ _____ _____    ______ ____
ROOT
ATOM      1  C   UNL     1       8.811  -0.457  24.697  0.00  0.00    -0.028 A 
ATOM      2  C   UNL     1       7.434  -0.506  24.444  0.00  0.00    +0.006 A 
ATOM      3  C   UNL     1       6.838  -1.686  23.966  0.00  0.00    +0.009 A 
ATOM      4  C   UNL     1       7.580  -2.868  23.764  0.00  0.00    -0.017 A 
ATOM      5  C   UNL     1       8.950  -2.799  24.064  0.00  0.00    +0.009 A 
ATOM      6  C   UNL     1       9.561  -1.617  24.488  0.00  0.00    +0.006 A 
ENDROOT
BRANCH   4   7
ATOM      7  C   UNL     1       6.939  -4.146  23.326  0.00  0.00    -0.007 A 
ATOM      8  C   UNL     1       6.413  -5.138  24.203  0.00  0.00    +0.030 A 
ATOM      9  C   UNL     1       5.698  -6.239  23.680  0.00  0.00    +0.012 A 
ATOM     10  C   UNL     1       5.528  -6.404  22.308  0.00  0.00    +0.001 A 
ATOM     11  C   UNL     1       6.073  -5.475  21.436  0.00  0.00    +0.001 A 
ATOM     12  C   UNL     1       6.760  -4.365  21.938  0.00  0.00    +0.009 A 
BRANCH   8  13
ATOM     13  C   UNL     1       6.549  -5.087  25.653  0.00  0.00    +0.205 A 
ATOM     14  N   UNL     1       7.546  -5.758  26.329  0.00  0.00    -0.108 NA
ATOM     15  N   UNL     1       7.301  -5.603  27.624  0.00  0.00    -0.049 NA
ATOM     16  N   UNL     1       6.191  -4.853  27.668  0.00  0.00    -0.176 N 
ATOM     17  H   UNL     1       5.714  -4.641  28.541  0.00  0.00    +0.214 HD
ATOM     18  N   UNL     1       5.725  -4.433  26.484  0.00  0.00    -0.133 NA
ENDBRANCH   8  13
ENDBRANCH   4   7
BRANCH   1  19
ATOM     19  C   UNL     1       9.491   0.750  25.289  0.00  0.00    +0.162 C 
BRANCH  19  21
ATOM     20  C   UNL     1       9.455   2.543  23.576  0.00  0.00    +0.299 A 
ATOM     21  N   UNL     1       9.036   2.037  24.787  0.00  0.00    -0.289 N 
ATOM     22  C   UNL     1       8.227   2.992  25.381  0.00  0.00    +0.086 A 
ATOM     23  C   UNL     1       8.475   4.128  24.601  0.00  0.00    +0.094 A 
ATOM     24  C   UNL     1       7.999   5.385  25.001  0.00  0.00    +0.030 A 
ATOM     25  C   UNL     1       7.258   5.487  26.178  0.00  0.00    +0.003 A 
ATOM     26  C   UNL     1       6.922   4.340  26.895  0.00  0.00    +0.017 A 
ATOM     27  C   UNL     1       7.362   3.061  26.493  0.00  0.00    +0.084 A 
ATOM     28  N   UNL     1       9.171   3.815  23.464  0.00  0.00    -0.195 NA
BRANCH  27  29
ATOM     29  C   UNL     1       6.784   1.898  27.207  0.00  0.00    +0.339 C 
ATOM     30  O   UNL     1       5.743   1.345  26.893  0.00  0.00    -0.245 OA
BRANCH  29  31
ATOM     31  O   UNL     1       7.612   1.408  28.156  0.00  0.00    -0.477 OA
ATOM     32  H   UNL     1       7.265   0.612  28.601  0.00  0.00    +0.295 HD
ENDBRANCH  29  31
ENDBRANCH  27  29
BRANCH  20  33
ATOM     33  O   UNL     1      10.108   1.812  22.675  0.00  0.00    -0.464 OA
BRANCH  33  35
ATOM     34  C   UNL     1       9.438  -0.043  21.297  0.00  0.00    +0.048 C 
ATOM     35  C   UNL     1       9.318   1.453  21.533  0.00  0.00    +0.229 C 
ENDBRANCH  33  35
ENDBRANCH  20  33
ENDBRANCH  19  21
ENDBRANCH   1  19
TORSDOF 8
ENDMDL
MODEL 4
REMARK VINA RESULT:      -7.1      2.527      7.589
REMARK  Name = 
REMARK  9 active torsions:
REMARK  status: ('A' for Active; 'I' for Inactive)
REMARK    1  A    between atoms: C_1  and  C_2
REMARK    2  A    between atoms: C_2  and  O_3
REMARK    3  A    between atoms: O_3  and  C_4
REMARK    4  A    between atoms: C_10  and  C_11
REMARK    5  A    between atoms: C_11  and  O_12
REMARK    6  A    between atoms: N_15  and  C_16
REMARK    7  A    between atoms: C_16  and  C_17
REMARK    8  A    between atoms: C_20  and  C_23
REMARK    9  A    between atoms: C_28  and  C_29
REMARK                            x       y       z     vdW  Elec       q    Type
REMARK                         _______ _______ _______ _____ _____    ______ ____
ROOT
ATOM      1  C   UNL     1       7.615  -1.641  25.856  0.00  0.00    -0.028 A 
ATOM      2  C   UNL     1       6.466  -1.351  25.110  0.00  0.00    +0.006 A 
ATOM      3  C   UNL     1       6.114  -0.018  24.830  0.00  0.00    +0.009 A 
ATOM      4  C   UNL     1       6.913   1.067  25.242  0.00  0.00    -0.017 A 
ATOM      5  C   UNL     1       8.081   0.743  25.952  0.00  0.00    +0.009 A 
ATOM      6  C   UNL     1       8.410  -0.574  26.282  0.00  0.00    +0.006 A 
ENDROOT
BRANCH   4   7
ATOM      7  C   UNL     1       6.584   2.480  24.884  0.00  0.00    -0.007 A 
ATOM      8  C   UNL     1       7.162   3.205  23.802  0.00  0.00    +0.030 A 
ATOM      9  C   UNL     1       6.671   4.486  23.464  0.00  0.00    +0.012 A 
ATOM     10  C   UNL     1       5.651   5.085  24.196  0.00  0.00    +0.001 A 
ATOM     11  C   UNL     1       5.108   4.416  25.283  0.00  0.00    +0.001 A 
ATOM     12  C   UNL     1       5.563   3.137  25.614  0.00  0.00    +0.009 A 
BRANCH   8  13
ATOM     13  C   UNL     1       8.250   2.693  22.978  0.00  0.00    +0.205 A 
ATOM     14  N   UNL     1       9.572   2.767  23.365  0.00  0.00    -0.108 NA
ATOM     15  N   UNL     1      10.295   2.334  22.340  0.00  0.00    -0.049 NA
ATOM     16  N   UNL     1       9.391   2.017  21.402  0.00  0.00    -0.176 N 
ATOM     17  H   UNL     1       9.661   1.732  20.463  0.00  0.00    +0.214 HD
ATOM     18  N   UNL     1       8.108   2.139  21.766  0.00  0.00    -0.133 NA
ENDBRANCH   8  13
ENDBRANCH   4   7
BRANCH   1  19
ATOM     19  C   UNL     1       8.089  -3.047  26.115  0.00  0.00    +0.162 C 
BRANCH  19  21
ATOM     20  C   UNL     1       8.208  -4.064  23.857  0.00  0.00    +0.299 A 
ATOM     21  N   UNL     1       7.683  -4.038  25.130  0.00  0.00    -0.289 N 
ATOM     22  C   UNL     1       6.719  -5.029  25.205  0.00  0.00    +0.086 A 
ATOM     23  C   UNL     1       6.532  -5.373  23.860  0.00  0.00    +0.094 A 
ATOM     24  C   UNL     1       5.473  -6.211  23.481  0.00  0.00    +0.030 A 
ATOM     25  C   UNL     1       4.619  -6.714  24.461  0.00  0.00    +0.003 A 
ATOM     26  C   UNL     1       4.872  -6.457  25.808  0.00  0.00    +0.017 A 
ATOM     27  C   UNL     1       5.950  -5.644  26.216  0.00  0.00    +0.084 A 
ATOM     28  N   UNL     1       7.499  -4.825  23.062  0.00  0.00    -0.195 NA
BRANCH  27  29
ATOM     29  C   UNL     1       6.246  -5.601  27.668  0.00  0.00    +0.339 C 
ATOM     30  O   UNL     1       5.445  -5.267  28.525  0.00  0.00    -0.245 OA
BRANCH  29  31
ATOM     31  O   UNL     1       7.457  -6.124  27.966  0.00  0.00    -0.477 OA
ATOM     32  H   UNL     1       7.496  -6.529  28.852  0.00  0.00    +0.295 HD
ENDBRANCH  29  31
ENDBRANCH  27  29
BRANCH  20  33
ATOM     33  O   UNL     1       9.276  -3.354  23.500  0.00  0.00    -0.464 OA
BRANCH  33  35
ATOM     34  C   UNL     1       9.851  -1.100  22.884  0.00  0.00    +0.048 C 
ATOM     35  C   UNL     1       8.994  -2.311  22.557  0.00  0.00    +0.229 C 
ENDBRANCH  33  35
ENDBRANCH  20  33
ENDBRANCH  19  21
ENDBRANCH   1  19
TORSDOF 8
ENDMDL
MODEL 5
REMARK VINA RESULT:      -7.1      2.434      7.759
REMARK  Name = 
REMARK  9 active torsions:
REMARK  status: ('A' for Active; 'I' for Inactive)
REMARK    1  A    between atoms: C_1  and  C_2
REMARK    2  A    between atoms: C_2  and  O_3
REMARK    3  A    between atoms: O_3  and  C_4
REMARK    4  A    between atoms: C_10  and  C_11
REMARK    5  A    between atoms: C_11  and  O_12
REMARK    6  A    between atoms: N_15  and  C_16
REMARK    7  A    between atoms: C_16  and  C_17
REMARK    8  A    between atoms: C_20  and  C_23
REMARK    9  A    between atoms: C_28  and  C_29
REMARK                            x       y       z     vdW  Elec       q    Type
REMARK                         _______ _______ _______ _____ _____    ______ ____
ROOT
ATOM      1  C   UNL     1       6.954  -1.940  26.204  0.00  0.00    -0.028 A 
ATOM      2  C   UNL     1       6.089  -1.112  25.478  0.00  0.00    +0.006 A 
ATOM      3  C   UNL     1       6.461   0.207  25.163  0.00  0.00    +0.009 A 
ATOM      4  C   UNL     1       7.720   0.732  25.519  0.00  0.00    -0.017 A 
ATOM      5  C   UNL     1       8.581  -0.135  26.210  0.00  0.00    +0.009 A 
ATOM      6  C   UNL     1       8.199  -1.429  26.575  0.00  0.00    +0.006 A 
ENDROOT
BRANCH   4   7
ATOM      7  C   UNL     1       8.150   2.108  25.123  0.00  0.00    -0.007 A 
ATOM      8  C   UNL     1       8.824   2.436  23.911  0.00  0.00    +0.030 A 
ATOM      9  C   UNL     1       9.053   3.788  23.572  0.00  0.00    +0.012 A 
ATOM     10  C   UNL     1       8.670   4.822  24.421  0.00  0.00    +0.001 A 
ATOM     11  C   UNL     1       8.057   4.521  25.627  0.00  0.00    +0.001 A 
ATOM     12  C   UNL     1       7.798   3.190  25.967  0.00  0.00    +0.009 A 
BRANCH   8  13
ATOM     13  C   UNL     1       9.293   1.442  22.954  0.00  0.00    +0.205 A 
ATOM     14  N   UNL     1       8.687   1.245  21.732  0.00  0.00    -0.108 NA
ATOM     15  N   UNL     1       9.277   0.194  21.177  0.00  0.00    -0.049 NA
ATOM     16  N   UNL     1      10.201  -0.183  22.073  0.00  0.00    -0.176 N 
ATOM     17  H   UNL     1      10.759  -1.026  21.954  0.00  0.00    +0.214 HD
ATOM     18  N   UNL     1      10.316   0.599  23.154  0.00  0.00    -0.133 NA
ENDBRANCH   8  13
ENDBRANCH   4   7
BRANCH   1  19
ATOM     19  C   UNL     1       6.647  -3.386  26.498  0.00  0.00    +0.162 C 
BRANCH  19  21
ATOM     20  C   UNL     1       4.575  -4.459  25.658  0.00  0.00    +0.299 A 
ATOM     21  N   UNL     1       5.888  -4.087  25.474  0.00  0.00    -0.289 N 
ATOM     22  C   UNL     1       6.289  -4.569  24.238  0.00  0.00    +0.086 A 
ATOM     23  C   UNL     1       5.259  -5.460  23.911  0.00  0.00    +0.094 A 
ATOM     24  C   UNL     1       5.386  -6.323  22.813  0.00  0.00    +0.030 A 
ATOM     25  C   UNL     1       6.544  -6.270  22.038  0.00  0.00    +0.003 A 
ATOM     26  C   UNL     1       7.519  -5.309  22.302  0.00  0.00    +0.017 A 
ATOM     27  C   UNL     1       7.398  -4.409  23.381  0.00  0.00    +0.084 A 
ATOM     28  N   UNL     1       4.190  -5.324  24.756  0.00  0.00    -0.195 NA
BRANCH  27  29
ATOM     29  C   UNL     1       8.385  -3.306  23.448  0.00  0.00    +0.339 C 
ATOM     30  O   UNL     1       9.486  -3.397  23.966  0.00  0.00    -0.245 OA
BRANCH  29  31
ATOM     31  O   UNL     1       8.004  -2.223  22.734  0.00  0.00    -0.477 OA
ATOM     32  H   UNL     1       7.519  -1.562  23.261  0.00  0.00    +0.295 HD
ENDBRANCH  29  31
ENDBRANCH  27  29
BRANCH  20  33
ATOM     33  O   UNL     1       3.832  -4.011  26.669  0.00  0.00    -0.464 OA
BRANCH  33  35
ATOM     34  C   UNL     1       2.975  -1.838  27.245  0.00  0.00    +0.048 C 
ATOM     35  C   UNL     1       2.873  -3.015  26.289  0.00  0.00    +0.229 C 
ENDBRANCH  33  35
ENDBRANCH  20  33
ENDBRANCH  19  21
ENDBRANCH   1  19
TORSDOF 8
ENDMDL
MODEL 6
REMARK VINA RESULT:      -7.0      2.467      4.088
REMARK  Name = 
REMARK  9 active torsions:
REMARK  status: ('A' for Active; 'I' for Inactive)
REMARK    1  A    between atoms: C_1  and  C_2
REMARK    2  A    between atoms: C_2  and  O_3
REMARK    3  A    between atoms: O_3  and  C_4
REMARK    4  A    between atoms: C_10  and  C_11
REMARK    5  A    between atoms: C_11  and  O_12
REMARK    6  A    between atoms: N_15  and  C_16
REMARK    7  A    between atoms: C_16  and  C_17
REMARK    8  A    between atoms: C_20  and  C_23
REMARK    9  A    between atoms: C_28  and  C_29
REMARK                            x       y       z     vdW  Elec       q    Type
REMARK                         _______ _______ _______ _____ _____    ______ ____
ROOT
ATOM      1  C   UNL     1       5.689  -0.919  24.914  0.00  0.00    -0.028 A 
ATOM      2  C   UNL     1       4.995  -1.479  25.994  0.00  0.00    +0.006 A 
ATOM      3  C   UNL     1       4.454  -2.773  25.901  0.00  0.00    +0.009 A 
ATOM      4  C   UNL     1       4.619  -3.570  24.751  0.00  0.00    -0.017 A 
ATOM      5  C   UNL     1       5.354  -2.997  23.700  0.00  0.00    +0.009 A 
ATOM      6  C   UNL     1       5.849  -1.693  23.762  0.00  0.00    +0.006 A 
ENDROOT
BRANCH   4   7
ATOM      7  C   UNL     1       4.109  -4.974  24.674  0.00  0.00    -0.007 A 
ATOM      8  C   UNL     1       4.676  -6.087  25.358  0.00  0.00    +0.030 A 
ATOM      9  C   UNL     1       4.027  -7.341  25.330  0.00  0.00    +0.012 A 
ATOM     10  C   UNL     1       2.853  -7.532  24.606  0.00  0.00    +0.001 A 
ATOM     11  C   UNL     1       2.312  -6.473  23.893  0.00  0.00    +0.001 A 
ATOM     12  C   UNL     1       2.927  -5.218  23.932  0.00  0.00    +0.009 A 
BRANCH   8  13
ATOM     13  C   UNL     1       5.911  -6.017  26.129  0.00  0.00    +0.205 A 
ATOM     14  N   UNL     1       5.962  -6.300  27.477  0.00  0.00    -0.108 NA
ATOM     15  N   UNL     1       7.193  -6.016  27.882  0.00  0.00    -0.049 NA
ATOM     16  N   UNL     1       7.820  -5.590  26.775  0.00  0.00    -0.176 N 
ATOM     17  H   UNL     1       8.766  -5.218  26.798  0.00  0.00    +0.214 HD
ATOM     18  N   UNL     1       7.105  -5.646  25.644  0.00  0.00    -0.133 NA
ENDBRANCH   8  13
ENDBRANCH   4   7
BRANCH   1  19
ATOM     19  C   UNL     1       6.363   0.427  24.984  0.00  0.00    +0.162 C 
BRANCH  19  21
ATOM     20  C   UNL     1       7.516   1.692  23.190  0.00  0.00    +0.299 A 
ATOM     21  N   UNL     1       7.468   0.624  24.058  0.00  0.00    -0.289 N 
ATOM     22  C   UNL     1       8.570  -0.174  23.800  0.00  0.00    +0.086 A 
ATOM     23  C   UNL     1       9.033   0.332  22.579  0.00  0.00    +0.094 A 
ATOM     24  C   UNL     1      10.029  -0.344  21.860  0.00  0.00    +0.030 A 
ATOM     25  C   UNL     1      10.569  -1.517  22.385  0.00  0.00    +0.003 A 
ATOM     26  C   UNL     1      10.183  -1.960  23.650  0.00  0.00    +0.017 A 
ATOM     27  C   UNL     1       9.207  -1.278  24.406  0.00  0.00    +0.084 A 
ATOM     28  N   UNL     1       8.420   1.514  22.261  0.00  0.00    -0.195 NA
BRANCH  27  29
ATOM     29  C   UNL     1       9.020  -1.715  25.810  0.00  0.00    +0.339 C 
ATOM     30  O   UNL     1       9.068  -0.971  26.775  0.00  0.00    -0.245 OA
BRANCH  29  31
ATOM     31  O   UNL     1       8.631  -3.007  25.904  0.00  0.00    -0.477 OA
ATOM     32  H   UNL     1       9.336  -3.601  26.222  0.00  0.00    +0.295 HD
ENDBRANCH  29  31
ENDBRANCH  27  29
BRANCH  20  33
ATOM     33  O   UNL     1       6.698   2.739  23.285  0.00  0.00    -0.464 OA
BRANCH  33  35
ATOM     34  C   UNL     1       7.178   4.854  22.244  0.00  0.00    +0.048 C 
ATOM     35  C   UNL     1       7.373   3.990  23.478  0.00  0.00    +0.229 C 
ENDBRANCH  33  35
ENDBRANCH  20  33
ENDBRANCH  19  21
ENDBRANCH   1  19
TORSDOF 8
ENDMDL
MODEL 7
REMARK VINA RESULT:      -7.0      2.893      7.926
REMARK  Name = 
REMARK  9 active torsions:
REMARK  status: ('A' for Active; 'I' for Inactive)
REMARK    1  A    between atoms: C_1  and  C_2
REMARK    2  A    between atoms: C_2  and  O_3
REMARK    3  A    between atoms: O_3  and  C_4
REMARK    4  A    between atoms: C_10  and  C_11
REMARK    5  A    between atoms: C_11  and  O_12
REMARK    6  A    between atoms: N_15  and  C_16
REMARK    7  A    between atoms: C_16  and  C_17
REMARK    8  A    between atoms: C_20  and  C_23
REMARK    9  A    between atoms: C_28  and  C_29
REMARK                            x       y       z     vdW  Elec       q    Type
REMARK                         _______ _______ _______ _____ _____    ______ ____
ROOT
ATOM      1  C   UNL     1       6.532  -3.953  23.221  0.00  0.00    -0.028 A 
ATOM      2  C   UNL     1       7.931  -3.908  23.249  0.00  0.00    +0.006 A 
ATOM      3  C   UNL     1       8.608  -2.679  23.150  0.00  0.00    +0.009 A 
ATOM      4  C   UNL     1       7.918  -1.453  23.062  0.00  0.00    -0.017 A 
ATOM      5  C   UNL     1       6.516  -1.528  23.077  0.00  0.00    +0.009 A 
ATOM      6  C   UNL     1       5.835  -2.747  23.121  0.00  0.00    +0.006 A 
ENDROOT
BRANCH   4   7
ATOM      7  C   UNL     1       8.631  -0.139  23.031  0.00  0.00    -0.007 A 
ATOM      8  C   UNL     1       8.972   0.633  24.179  0.00  0.00    +0.030 A 
ATOM      9  C   UNL     1       9.774   1.788  24.043  0.00  0.00    +0.012 A 
ATOM     10  C   UNL     1      10.212   2.221  22.795  0.00  0.00    +0.001 A 
ATOM     11  C   UNL     1       9.850   1.511  21.661  0.00  0.00    +0.001 A 
ATOM     12  C   UNL     1       9.080   0.350  21.779  0.00  0.00    +0.009 A 
BRANCH   8  13
ATOM     13  C   UNL     1       8.553   0.294  25.533  0.00  0.00    +0.205 A 
ATOM     14  N   UNL     1       7.570   0.992  26.202  0.00  0.00    -0.108 NA
ATOM     15  N   UNL     1       7.532   0.509  27.437  0.00  0.00    -0.049 NA
ATOM     16  N   UNL     1       8.472  -0.447  27.453  0.00  0.00    -0.176 N 
ATOM     17  H   UNL     1       8.729  -0.940  28.305  0.00  0.00    +0.214 HD
ATOM     18  N   UNL     1       9.080  -0.684  26.284  0.00  0.00    -0.133 NA
ENDBRANCH   8  13
ENDBRANCH   4   7
BRANCH   1  19
ATOM     19  C   UNL     1       5.750  -5.228  23.408  0.00  0.00    +0.162 C 
BRANCH  19  21
ATOM     20  C   UNL     1       3.374  -5.536  24.045  0.00  0.00    +0.299 A 
ATOM     21  N   UNL     1       4.659  -5.160  24.367  0.00  0.00    -0.289 N 
ATOM     22  C   UNL     1       4.640  -4.675  25.665  0.00  0.00    +0.086 A 
ATOM     23  C   UNL     1       3.269  -4.520  25.910  0.00  0.00    +0.094 A 
ATOM     24  C   UNL     1       2.823  -3.848  27.058  0.00  0.00    +0.030 A 
ATOM     25  C   UNL     1       3.761  -3.353  27.963  0.00  0.00    +0.003 A 
ATOM     26  C   UNL     1       5.119  -3.603  27.770  0.00  0.00    +0.017 A 
ATOM     27  C   UNL     1       5.589  -4.305  26.640  0.00  0.00    +0.084 A 
ATOM     28  N   UNL     1       2.514  -5.117  24.937  0.00  0.00    -0.195 NA
BRANCH  27  29
ATOM     29  C   UNL     1       7.021  -4.689  26.636  0.00  0.00    +0.339 C 
ATOM     30  O   UNL     1       7.429  -5.826  26.473  0.00  0.00    -0.245 OA
BRANCH  29  31
ATOM     31  O   UNL     1       7.845  -3.617  26.676  0.00  0.00    -0.477 OA
ATOM     32  H   UNL     1       7.722  -3.062  27.468  0.00  0.00    +0.295 HD
ENDBRANCH  29  31
ENDBRANCH  27  29
BRANCH  20  33
ATOM     33  O   UNL     1       3.073  -6.202  22.932  0.00  0.00    -0.464 OA
BRANCH  33  35
ATOM     34  C   UNL     1       0.795  -6.601  22.267  0.00  0.00    +0.048 C 
ATOM     35  C   UNL     1       1.975  -7.112  23.076  0.00  0.00    +0.229 C 
ENDBRANCH  33  35
ENDBRANCH  20  33
ENDBRANCH  19  21
ENDBRANCH   1  19
TORSDOF 8
ENDMDL
MODEL 8
REMARK VINA RESULT:      -6.8      2.785      8.349
REMARK  Name = 
REMARK  9 active torsions:
REMARK  status: ('A' for Active; 'I' for Inactive)
REMARK    1  A    between atoms: C_1  and  C_2
REMARK    2  A    between atoms: C_2  and  O_3
REMARK    3  A    between atoms: O_3  and  C_4
REMARK    4  A    between atoms: C_10  and  C_11
REMARK    5  A    between atoms: C_11  and  O_12
REMARK    6  A    between atoms: N_15  and  C_16
REMARK    7  A    between atoms: C_16  and  C_17
REMARK    8  A    between atoms: C_20  and  C_23
REMARK    9  A    between atoms: C_28  and  C_29
REMARK                            x       y       z     vdW  Elec       q    Type
REMARK                         _______ _______ _______ _____ _____    ______ ____
ROOT
ATOM      1  C   UNL     1       7.206   0.160  23.585  0.00  0.00    -0.028 A 
ATOM      2  C   UNL     1       7.184   1.057  22.510  0.00  0.00    +0.006 A 
ATOM      3  C   UNL     1       7.979   2.216  22.530  0.00  0.00    +0.009 A 
ATOM      4  C   UNL     1       8.855   2.501  23.597  0.00  0.00    -0.017 A 
ATOM      5  C   UNL     1       8.886   1.563  24.641  0.00  0.00    +0.009 A 
ATOM      6  C   UNL     1       8.060   0.436  24.655  0.00  0.00    +0.006 A 
ENDROOT
BRANCH   4   7
ATOM      7  C   UNL     1       9.757   3.693  23.590  0.00  0.00    -0.007 A 
ATOM      8  C   UNL     1       9.366   5.015  23.949  0.00  0.00    +0.030 A 
ATOM      9  C   UNL     1      10.335   6.039  24.047  0.00  0.00    +0.012 A 
ATOM     10  C   UNL     1      11.675   5.796  23.758  0.00  0.00    +0.001 A 
ATOM     11  C   UNL     1      12.068   4.527  23.360  0.00  0.00    +0.001 A 
ATOM     12  C   UNL     1      11.126   3.496  23.284  0.00  0.00    +0.009 A 
BRANCH   8  13
ATOM     13  C   UNL     1       7.992   5.397  24.251  0.00  0.00    +0.205 A 
ATOM     14  N   UNL     1       7.481   5.378  25.531  0.00  0.00    -0.108 NA
ATOM     15  N   UNL     1       6.187   5.653  25.430  0.00  0.00    -0.049 NA
ATOM     16  N   UNL     1       5.983   5.829  24.116  0.00  0.00    -0.176 N 
ATOM     17  H   UNL     1       5.054   5.970  23.727  0.00  0.00    +0.214 HD
ATOM     18  N   UNL     1       7.075   5.765  23.345  0.00  0.00    -0.133 NA
ENDBRANCH   8  13
ENDBRANCH   4   7
BRANCH   1  19
ATOM     19  C   UNL     1       6.442  -1.139  23.583  0.00  0.00    +0.162 C 
BRANCH  19  21
ATOM     20  C   UNL     1       8.170  -2.916  23.495  0.00  0.00    +0.299 A 
ATOM     21  N   UNL     1       7.141  -2.279  24.155  0.00  0.00    -0.289 N 
ATOM     22  C   UNL     1       6.908  -2.971  25.332  0.00  0.00    +0.086 A 
ATOM     23  C   UNL     1       7.626  -4.158  25.133  0.00  0.00    +0.094 A 
ATOM     24  C   UNL     1       7.481  -5.234  26.021  0.00  0.00    +0.030 A 
ATOM     25  C   UNL     1       6.628  -5.102  27.116  0.00  0.00    +0.003 A 
ATOM     26  C   UNL     1       5.999  -3.883  27.369  0.00  0.00    +0.017 A 
ATOM     27  C   UNL     1       6.155  -2.777  26.509  0.00  0.00    +0.084 A 
ATOM     28  N   UNL     1       8.445  -4.073  24.040  0.00  0.00    -0.195 NA
BRANCH  27  29
ATOM     29  C   UNL     1       5.610  -1.481  26.977  0.00  0.00    +0.339 C 
ATOM     30  O   UNL     1       6.254  -0.640  27.580  0.00  0.00    -0.245 OA
BRANCH  29  31
ATOM     31  O   UNL     1       4.355  -1.253  26.526  0.00  0.00    -0.477 OA
ATOM     32  H   UNL     1       4.291  -0.486  25.928  0.00  0.00    +0.295 HD
ENDBRANCH  29  31
ENDBRANCH  27  29
BRANCH  20  33
ATOM     33  O   UNL     1       8.758  -2.410  22.413  0.00  0.00    -0.464 OA
BRANCH  33  35
ATOM     34  C   UNL     1      10.253  -0.608  21.860  0.00  0.00    +0.048 C 
ATOM     35  C   UNL     1      10.073  -1.892  22.652  0.00  0.00    +0.229 C 
ENDBRANCH  33  35
ENDBRANCH  20  33
ENDBRANCH  19  21
ENDBRANCH   1  19
TORSDOF 8
ENDMDL
MODEL 9
REMARK VINA RESULT:      -6.8      3.287      4.849
REMARK  Name = 
REMARK  9 active torsions:
REMARK  status: ('A' for Active; 'I' for Inactive)
REMARK    1  A    between atoms: C_1  and  C_2
REMARK    2  A    between atoms: C_2  and  O_3
REMARK    3  A    between atoms: O_3  and  C_4
REMARK    4  A    between atoms: C_10  and  C_11
REMARK    5  A    between atoms: C_11  and  O_12
REMARK    6  A    between atoms: N_15  and  C_16
REMARK    7  A    between atoms: C_16  and  C_17
REMARK    8  A    between atoms: C_20  and  C_23
REMARK    9  A    between atoms: C_28  and  C_29
REMARK                            x       y       z     vdW  Elec       q    Type
REMARK                         _______ _______ _______ _____ _____    ______ ____
ROOT
ATOM      1  C   UNL     1       9.563   0.839  23.751  0.00  0.00    -0.028 A 
ATOM      2  C   UNL     1       9.792   0.711  25.126  0.00  0.00    +0.006 A 
ATOM      3  C   UNL     1       9.258  -0.376  25.841  0.00  0.00    +0.009 A 
ATOM      4  C   UNL     1       8.516  -1.393  25.207  0.00  0.00    -0.017 A 
ATOM      5  C   UNL     1       8.337  -1.258  23.821  0.00  0.00    +0.009 A 
ATOM      6  C   UNL     1       8.818  -0.154  23.111  0.00  0.00    +0.006 A 
ENDROOT
BRANCH   4   7
ATOM      7  C   UNL     1       8.009  -2.588  25.948  0.00  0.00    -0.007 A 
ATOM      8  C   UNL     1       6.731  -2.681  26.571  0.00  0.00    +0.030 A 
ATOM      9  C   UNL     1       6.297  -3.910  27.118  0.00  0.00    +0.012 A 
ATOM     10  C   UNL     1       7.114  -5.037  27.102  0.00  0.00    +0.001 A 
ATOM     11  C   UNL     1       8.380  -4.954  26.543  0.00  0.00    +0.001 A 
ATOM     12  C   UNL     1       8.815  -3.753  25.973  0.00  0.00    +0.009 A 
BRANCH   8  13
ATOM     13  C   UNL     1       5.799  -1.566  26.671  0.00  0.00    +0.205 A 
ATOM     14  N   UNL     1       4.729  -1.413  25.814  0.00  0.00    -0.108 NA
ATOM     15  N   UNL     1       4.174  -0.242  26.100  0.00  0.00    -0.049 NA
ATOM     16  N   UNL     1       4.918   0.245  27.104  0.00  0.00    -0.176 N 
ATOM     17  H   UNL     1       4.776   1.181  27.477  0.00  0.00    +0.214 HD
ATOM     18  N   UNL     1       5.885  -0.562  27.556  0.00  0.00    -0.133 NA
ENDBRANCH   8  13
ENDBRANCH   4   7
BRANCH   1  19
ATOM     19  C   UNL     1      10.178   1.933  22.917  0.00  0.00    +0.162 C 
BRANCH  19  21
ATOM     20  C   UNL     1      10.775   4.241  23.602  0.00  0.00    +0.299 A 
ATOM     21  N   UNL     1       9.824   3.291  23.302  0.00  0.00    -0.289 N 
ATOM     22  C   UNL     1       8.581   3.863  23.516  0.00  0.00    +0.086 A 
ATOM     23  C   UNL     1       8.900   5.028  24.224  0.00  0.00    +0.094 A 
ATOM     24  C   UNL     1       7.891   5.800  24.819  0.00  0.00    +0.030 A 
ATOM     25  C   UNL     1       6.562   5.403  24.680  0.00  0.00    +0.003 A 
ATOM     26  C   UNL     1       6.239   4.303  23.885  0.00  0.00    +0.017 A 
ATOM     27  C   UNL     1       7.235   3.532  23.250  0.00  0.00    +0.084 A 
ATOM     28  N   UNL     1      10.247   5.275  24.203  0.00  0.00    -0.195 NA
BRANCH  27  29
ATOM     29  C   UNL     1       6.776   2.516  22.273  0.00  0.00    +0.339 C 
ATOM     30  O   UNL     1       7.316   2.297  21.202  0.00  0.00    -0.245 OA
BRANCH  29  31
ATOM     31  O   UNL     1       5.781   1.740  22.760  0.00  0.00    -0.477 OA
ATOM     32  H   UNL     1       5.534   1.957  23.678  0.00  0.00    +0.295 HD
ENDBRANCH  29  31
ENDBRANCH  27  29
BRANCH  20  33
ATOM     33  O   UNL     1      12.071   4.074  23.342  0.00  0.00    -0.464 OA
BRANCH  33  35
ATOM     34  C   UNL     1      13.303   5.640  21.994  0.00  0.00    +0.048 C 
ATOM     35  C   UNL     1      12.836   5.285  23.396  0.00  0.00    +0.229 C 
ENDBRANCH  33  35
ENDBRANCH  20  33
ENDBRANCH  19  21
ENDBRANCH   1  19
TORSDOF 8
ENDMDL
