MODEL 1
REMARK VINA RESULT:      -7.3      0.000      0.000
REMARK  Name = 
REMARK  10 active torsions:
REMARK  status: ('A' for Active; 'I' for Inactive)
REMARK    1  A    between atoms: C_2  and  C_5
REMARK    2  A    between atoms: C_7  and  N_11
REMARK    3  A    between atoms: N_14  and  C_15
REMARK    4  A    between atoms: C_15  and  C_16
REMARK    5  A    between atoms: C_16  and  O_17
REMARK    6  A    between atoms: O_17  and  C_18
REMARK    7  A    between atoms: C_18  and  C_20
REMARK    8  A    between atoms: C_25  and  N_26
REMARK    9  A    between atoms: N_26  and  C_27
REMARK   10  A    between atoms: C_31  and  C_37
REMARK                            x       y       z     vdW  Elec       q    Type
REMARK                         _______ _______ _______ _____ _____    ______ ____
ROOT
ATOM      1  C   UNL     1       7.595   3.485  24.272  0.00  0.00    +0.080 A 
ATOM      2  C   UNL     1       8.028   2.246  23.721  0.00  0.00    +0.045 A 
ATOM      3  C   UNL     1       7.403   1.823  22.529  0.00  0.00    +0.024 A 
ATOM      4  C   UNL     1       6.454   2.602  21.864  0.00  0.00    +0.002 A 
ATOM      5  C   UNL     1       6.135   3.861  22.344  0.00  0.00    +0.001 A 
ATOM      6  C   UNL     1       6.707   4.300  23.540  0.00  0.00    +0.017 A 
ENDROOT
BRANCH   1   7
ATOM      7  C   UNL     1       7.943   3.891  25.674  0.00  0.00    +0.341 C 
ATOM      8  O   UNL     1       8.516   4.926  25.982  0.00  0.00    -0.245 OA
BRANCH   7   9
ATOM      9  O   UNL     1       7.605   2.910  26.562  0.00  0.00    -0.460 OA
BRANCH   9  10
ATOM     10  C   UNL     1       6.456   3.117  27.418  0.00  0.00    +0.248 C 
BRANCH  10  11
ATOM     11  C   UNL     1       5.965   1.883  28.198  0.00  0.00    +0.125 C 
BRANCH  11  15
ATOM     12  N   UNL     1       4.996  -1.012  26.035  0.00  0.00    -0.327 N 
ATOM     13  C   UNL     1       5.099  -1.161  27.494  0.00  0.00    +0.120 C 
ATOM     14  C   UNL     1       4.332  -0.018  28.202  0.00  0.00    +0.103 C 
ATOM     15  N   UNL     1       4.651   1.360  27.754  0.00  0.00    -0.296 NA
ATOM     16  C   UNL     1       4.545   1.396  26.270  0.00  0.00    +0.103 C 
ATOM     17  C   UNL     1       5.361   0.311  25.516  0.00  0.00    +0.120 C 
BRANCH  12  22
ATOM     18  C   UNL     1       5.673  -3.378  23.258  0.00  0.00    +0.057 A 
ATOM     19  C   UNL     1       4.767  -4.403  23.549  0.00  0.00    +0.012 A 
ATOM     20  C   UNL     1       3.925  -4.296  24.655  0.00  0.00    +0.002 A 
ATOM     21  C   UNL     1       3.992  -3.169  25.481  0.00  0.00    +0.023 A 
ATOM     22  C   UNL     1       4.870  -2.113  25.211  0.00  0.00    +0.030 A 
ATOM     23  C   UNL     1       5.694  -2.239  24.083  0.00  0.00    +0.035 A 
BRANCH  18  25
ATOM     24  F   UNL     1       7.352  -2.377  21.860  0.00  0.00    -0.166 F 
ATOM     25  C   UNL     1       6.640  -3.513  22.111  0.00  0.00    +0.417 C 
ATOM     26  F   UNL     1       7.565  -4.490  22.322  0.00  0.00    -0.166 F 
ATOM     27  F   UNL     1       6.024  -3.829  20.938  0.00  0.00    -0.166 F 
ENDBRANCH  18  25
ENDBRANCH  12  22
ENDBRANCH  11  15
ENDBRANCH  10  11
ENDBRANCH   9  10
ENDBRANCH   7   9
ENDBRANCH   1   7
BRANCH   2  28
ATOM     28  N   UNL     1       8.979   1.413  24.382  0.00  0.00    -0.313 N 
ATOM     29  H   UNL     1       9.587   1.947  25.006  0.00  0.00    +0.152 HD
BRANCH  28  30
ATOM     30  C   UNL     1       9.537   0.174  23.966  0.00  0.00    +0.042 A 
ATOM     31  C   UNL     1      10.152   0.092  22.708  0.00  0.00    +0.043 A 
ATOM     32  C   UNL     1      10.568  -1.144  22.250  0.00  0.00    +0.113 A 
ATOM     33  N   UNL     1      10.355  -2.305  22.908  0.00  0.00    -0.255 NA
ATOM     34  C   UNL     1       9.716  -2.245  24.087  0.00  0.00    +0.073 A 
ATOM     35  C   UNL     1       9.311  -3.429  24.683  0.00  0.00    +0.040 A 
ATOM     36  C   UNL     1       8.519  -3.434  25.845  0.00  0.00    +0.057 A 
ATOM     37  C   UNL     1       8.341  -2.243  26.542  0.00  0.00    +0.013 A 
ATOM     38  C   UNL     1       8.781  -1.049  25.986  0.00  0.00    +0.012 A 
ATOM     39  C   UNL     1       9.352  -1.024  24.696  0.00  0.00    +0.022 A 
BRANCH  36  40
ATOM     40  C   UNL     1       7.784  -4.684  26.255  0.00  0.00    +0.417 C 
ATOM     41  F   UNL     1       7.438  -5.480  25.212  0.00  0.00    -0.166 F 
ATOM     42  F   UNL     1       6.627  -4.400  26.919  0.00  0.00    -0.166 F 
ATOM     43  F   UNL     1       8.504  -5.467  27.109  0.00  0.00    -0.166 F 
ENDBRANCH  36  40
ENDBRANCH  28  30
ENDBRANCH   2  28
TORSDOF 10
ENDMDL
MODEL 2
REMARK VINA RESULT:      -7.3      1.824      2.660
REMARK  Name = 
REMARK  10 active torsions:
REMARK  status: ('A' for Active; 'I' for Inactive)
REMARK    1  A    between atoms: C_2  and  C_5
REMARK    2  A    between atoms: C_7  and  N_11
REMARK    3  A    between atoms: N_14  and  C_15
REMARK    4  A    between atoms: C_15  and  C_16
REMARK    5  A    between atoms: C_16  and  O_17
REMARK    6  A    between atoms: O_17  and  C_18
REMARK    7  A    between atoms: C_18  and  C_20
REMARK    8  A    between atoms: C_25  and  N_26
REMARK    9  A    between atoms: N_26  and  C_27
REMARK   10  A    between atoms: C_31  and  C_37
REMARK                            x       y       z     vdW  Elec       q    Type
REMARK                         _______ _______ _______ _____ _____    ______ ____
ROOT
ATOM      1  C   UNL     1       9.120   4.487  24.095  0.00  0.00    +0.080 A 
ATOM      2  C   UNL     1       9.764   3.246  23.829  0.00  0.00    +0.045 A 
ATOM      3  C   UNL     1      11.114   3.301  23.423  0.00  0.00    +0.024 A 
ATOM      4  C   UNL     1      11.826   4.500  23.348  0.00  0.00    +0.002 A 
ATOM      5  C   UNL     1      11.222   5.686  23.732  0.00  0.00    +0.001 A 
ATOM      6  C   UNL     1       9.877   5.676  24.106  0.00  0.00    +0.017 A 
ENDROOT
BRANCH   1   7
ATOM      7  C   UNL     1       7.629   4.591  24.226  0.00  0.00    +0.341 C 
ATOM      8  O   UNL     1       6.829   4.353  23.332  0.00  0.00    -0.245 OA
BRANCH   7   9
ATOM      9  O   UNL     1       7.280   5.067  25.458  0.00  0.00    -0.460 OA
BRANCH   9  10
ATOM     10  C   UNL     1       6.040   4.612  26.050  0.00  0.00    +0.248 C 
BRANCH  10  11
ATOM     11  C   UNL     1       6.076   3.215  26.698  0.00  0.00    +0.125 C 
BRANCH  11  15
ATOM     12  N   UNL     1       5.639  -0.129  25.077  0.00  0.00    -0.327 N 
ATOM     13  C   UNL     1       5.819  -0.013  26.532  0.00  0.00    +0.120 C 
ATOM     14  C   UNL     1       4.860   1.061  27.104  0.00  0.00    +0.103 C 
ATOM     15  N   UNL     1       4.881   2.382  26.428  0.00  0.00    -0.296 NA
ATOM     16  C   UNL     1       4.720   2.152  24.967  0.00  0.00    +0.103 C 
ATOM     17  C   UNL     1       5.712   1.136  24.338  0.00  0.00    +0.120 C 
BRANCH  12  22
ATOM     18  C   UNL     1       5.187  -3.759  24.458  0.00  0.00    +0.057 A 
ATOM     19  C   UNL     1       5.691  -3.876  23.159  0.00  0.00    +0.012 A 
ATOM     20  C   UNL     1       6.192  -2.754  22.502  0.00  0.00    +0.002 A 
ATOM     21  C   UNL     1       6.184  -1.507  23.136  0.00  0.00    +0.023 A 
ATOM     22  C   UNL     1       5.709  -1.353  24.443  0.00  0.00    +0.030 A 
ATOM     23  C   UNL     1       5.225  -2.502  25.087  0.00  0.00    +0.035 A 
BRANCH  18  25
ATOM     24  F   UNL     1       5.131  -6.138  24.793  0.00  0.00    -0.166 F 
ATOM     25  C   UNL     1       4.574  -4.946  25.152  0.00  0.00    +0.417 C 
ATOM     26  F   UNL     1       4.695  -4.876  26.508  0.00  0.00    -0.166 F 
ATOM     27  F   UNL     1       3.241  -5.072  24.902  0.00  0.00    -0.166 F 
ENDBRANCH  18  25
ENDBRANCH  12  22
ENDBRANCH  11  15
ENDBRANCH  10  11
ENDBRANCH   9  10
ENDBRANCH   7   9
ENDBRANCH   1   7
BRANCH   2  28
ATOM     28  N   UNL     1       9.065   2.003  23.874  0.00  0.00    -0.313 N 
ATOM     29  H   UNL     1       8.449   1.940  24.686  0.00  0.00    +0.152 HD
BRANCH  28  30
ATOM     30  C   UNL     1       9.435   0.739  23.340  0.00  0.00    +0.042 A 
ATOM     31  C   UNL     1       9.601   0.608  21.952  0.00  0.00    +0.043 A 
ATOM     32  C   UNL     1       9.822  -0.649  21.425  0.00  0.00    +0.113 A 
ATOM     33  N   UNL     1       9.819  -1.787  22.155  0.00  0.00    -0.255 NA
ATOM     34  C   UNL     1       9.605  -1.680  23.475  0.00  0.00    +0.073 A 
ATOM     35  C   UNL     1       9.400  -2.836  24.211  0.00  0.00    +0.040 A 
ATOM     36  C   UNL     1       9.036  -2.790  25.568  0.00  0.00    +0.057 A 
ATOM     37  C   UNL     1       9.117  -1.576  26.245  0.00  0.00    +0.013 A 
ATOM     38  C   UNL     1       9.368  -0.409  25.535  0.00  0.00    +0.012 A 
ATOM     39  C   UNL     1       9.483  -0.433  24.129  0.00  0.00    +0.022 A 
BRANCH  36  40
ATOM     40  C   UNL     1       8.457  -4.009  26.239  0.00  0.00    +0.417 C 
ATOM     41  F   UNL     1       9.346  -4.676  27.017  0.00  0.00    -0.166 F 
ATOM     42  F   UNL     1       7.988  -4.914  25.333  0.00  0.00    -0.166 F 
ATOM     43  F   UNL     1       7.392  -3.718  27.040  0.00  0.00    -0.166 F 
ENDBRANCH  36  40
ENDBRANCH  28  30
ENDBRANCH   2  28
TORSDOF 10
ENDMDL
MODEL 3
REMARK VINA RESULT:      -7.1      2.062      3.619
REMARK  Name = 
REMARK  10 active torsions:
REMARK  status: ('A' for Active; 'I' for Inactive)
REMARK    1  A    between atoms: C_2  and  C_5
REMARK    2  A    between atoms: C_7  and  N_11
REMARK    3  A    between atoms: N_14  and  C_15
REMARK    4  A    between atoms: C_15  and  C_16
REMARK    5  A    between atoms: C_16  and  O_17
REMARK    6  A    between atoms: O_17  and  C_18
REMARK    7  A    between atoms: C_18  and  C_20
REMARK    8  A    between atoms: C_25  and  N_26
REMARK    9  A    between atoms: N_26  and  C_27
REMARK   10  A    between atoms: C_31  and  C_37
REMARK                            x       y       z     vdW  Elec       q    Type
REMARK                         _______ _______ _______ _____ _____    ______ ____
ROOT
ATOM      1  C   UNL     1       5.469   3.032  23.472  0.00  0.00    +0.080 A 
ATOM      2  C   UNL     1       6.409   2.102  22.946  0.00  0.00    +0.045 A 
ATOM      3  C   UNL     1       7.427   2.620  22.119  0.00  0.00    +0.024 A 
ATOM      4  C   UNL     1       7.568   3.988  21.871  0.00  0.00    +0.002 A 
ATOM      5  C   UNL     1       6.722   4.892  22.492  0.00  0.00    +0.001 A 
ATOM      6  C   UNL     1       5.680   4.414  23.290  0.00  0.00    +0.017 A 
ENDROOT
BRANCH   1   7
ATOM      7  C   UNL     1       4.179   2.585  24.094  0.00  0.00    +0.341 C 
ATOM      8  O   UNL     1       3.069   2.982  23.770  0.00  0.00    -0.245 OA
BRANCH   7   9
ATOM      9  O   UNL     1       4.411   1.729  25.134  0.00  0.00    -0.460 OA
BRANCH   9  10
ATOM     10  C   UNL     1       4.783   2.286  26.418  0.00  0.00    +0.248 C 
BRANCH  10  11
ATOM     11  C   UNL     1       6.246   2.072  26.846  0.00  0.00    +0.125 C 
BRANCH  11  15
ATOM     12  N   UNL     1       6.999  -1.593  26.801  0.00  0.00    -0.327 N 
ATOM     13  C   UNL     1       8.082  -0.601  26.881  0.00  0.00    +0.120 C 
ATOM     14  C   UNL     1       7.770   0.440  27.984  0.00  0.00    +0.103 C 
ATOM     15  N   UNL     1       6.431   1.074  27.926  0.00  0.00    -0.296 NA
ATOM     16  C   UNL     1       5.415  -0.009  27.819  0.00  0.00    +0.103 C 
ATOM     17  C   UNL     1       5.649  -1.033  26.676  0.00  0.00    +0.120 C 
BRANCH  12  22
ATOM     18  C   UNL     1       6.415  -5.182  26.065  0.00  0.00    +0.057 A 
ATOM     19  C   UNL     1       7.725  -5.642  25.903  0.00  0.00    +0.012 A 
ATOM     20  C   UNL     1       8.796  -4.762  26.054  0.00  0.00    +0.002 A 
ATOM     21  C   UNL     1       8.562  -3.417  26.359  0.00  0.00    +0.023 A 
ATOM     22  C   UNL     1       7.266  -2.924  26.551  0.00  0.00    +0.030 A 
ATOM     23  C   UNL     1       6.208  -3.834  26.408  0.00  0.00    +0.035 A 
BRANCH  18  25
ATOM     24  F   UNL     1       4.039  -5.465  25.830  0.00  0.00    -0.166 F 
ATOM     25  C   UNL     1       5.245  -6.102  25.831  0.00  0.00    +0.417 C 
ATOM     26  F   UNL     1       5.321  -6.748  24.634  0.00  0.00    -0.166 F 
ATOM     27  F   UNL     1       5.146  -7.078  26.776  0.00  0.00    -0.166 F 
ENDBRANCH  18  25
ENDBRANCH  12  22
ENDBRANCH  11  15
ENDBRANCH  10  11
ENDBRANCH   9  10
ENDBRANCH   7   9
ENDBRANCH   1   7
BRANCH   2  28
ATOM     28  N   UNL     1       6.286   0.696  23.158  0.00  0.00    -0.313 N 
ATOM     29  H   UNL     1       5.445   0.462  23.688  0.00  0.00    +0.152 HD
BRANCH  28  30
ATOM     30  C   UNL     1       7.299  -0.298  23.227  0.00  0.00    +0.042 A 
ATOM     31  C   UNL     1       8.645   0.098  23.224  0.00  0.00    +0.043 A 
ATOM     32  C   UNL     1       9.624  -0.873  23.150  0.00  0.00    +0.113 A 
ATOM     33  N   UNL     1       9.371  -2.193  23.006  0.00  0.00    -0.255 NA
ATOM     34  C   UNL     1       8.087  -2.579  22.950  0.00  0.00    +0.073 A 
ATOM     35  C   UNL     1       7.802  -3.891  22.605  0.00  0.00    +0.040 A 
ATOM     36  C   UNL     1       6.482  -4.326  22.395  0.00  0.00    +0.057 A 
ATOM     37  C   UNL     1       5.431  -3.494  22.771  0.00  0.00    +0.013 A 
ATOM     38  C   UNL     1       5.696  -2.189  23.166  0.00  0.00    +0.012 A 
ATOM     39  C   UNL     1       7.012  -1.680  23.131  0.00  0.00    +0.022 A 
BRANCH  36  40
ATOM     40  C   UNL     1       6.217  -5.619  21.667  0.00  0.00    +0.417 C 
ATOM     41  F   UNL     1       6.391  -5.533  20.324  0.00  0.00    -0.166 F 
ATOM     42  F   UNL     1       4.941  -6.060  21.859  0.00  0.00    -0.166 F 
ATOM     43  F   UNL     1       7.017  -6.639  22.091  0.00  0.00    -0.166 F 
ENDBRANCH  36  40
ENDBRANCH  28  30
ENDBRANCH   2  28
TORSDOF 10
ENDMDL
MODEL 4
REMARK VINA RESULT:      -6.9      1.920      3.303
REMARK  Name = 
REMARK  10 active torsions:
REMARK  status: ('A' for Active; 'I' for Inactive)
REMARK    1  A    between atoms: C_2  and  C_5
REMARK    2  A    between atoms: C_7  and  N_11
REMARK    3  A    between atoms: N_14  and  C_15
REMARK    4  A    between atoms: C_15  and  C_16
REMARK    5  A    between atoms: C_16  and  O_17
REMARK    6  A    between atoms: O_17  and  C_18
REMARK    7  A    between atoms: C_18  and  C_20
REMARK    8  A    between atoms: C_25  and  N_26
REMARK    9  A    between atoms: N_26  and  C_27
REMARK   10  A    between atoms: C_31  and  C_37
REMARK                            x       y       z     vdW  Elec       q    Type
REMARK                         _______ _______ _______ _____ _____    ______ ____
ROOT
ATOM      1  C   UNL     1       5.995   3.051  24.129  0.00  0.00    +0.080 A 
ATOM      2  C   UNL     1       6.573   2.456  22.972  0.00  0.00    +0.045 A 
ATOM      3  C   UNL     1       7.143   3.329  22.021  0.00  0.00    +0.024 A 
ATOM      4  C   UNL     1       7.211   4.710  22.218  0.00  0.00    +0.002 A 
ATOM      5  C   UNL     1       6.757   5.261  23.406  0.00  0.00    +0.001 A 
ATOM      6  C   UNL     1       6.156   4.432  24.356  0.00  0.00    +0.017 A 
ENDROOT
BRANCH   1   7
ATOM      7  C   UNL     1       5.094   2.278  25.047  0.00  0.00    +0.341 C 
ATOM      8  O   UNL     1       4.722   1.128  24.861  0.00  0.00    -0.245 OA
BRANCH   7   9
ATOM      9  O   UNL     1       4.673   3.059  26.086  0.00  0.00    -0.460 OA
BRANCH   9  10
ATOM     10  C   UNL     1       5.041   2.676  27.433  0.00  0.00    +0.248 C 
BRANCH  10  11
ATOM     11  C   UNL     1       4.186   1.567  28.075  0.00  0.00    +0.125 C 
BRANCH  11  15
ATOM     12  N   UNL     1       5.548  -1.816  27.242  0.00  0.00    -0.327 N 
ATOM     13  C   UNL     1       6.368  -0.608  27.066  0.00  0.00    +0.120 C 
ATOM     14  C   UNL     1       6.310   0.265  28.344  0.00  0.00    +0.103 C 
ATOM     15  N   UNL     1       4.956   0.576  28.863  0.00  0.00    -0.296 NA
ATOM     16  C   UNL     1       4.203  -0.703  28.976  0.00  0.00    +0.103 C 
ATOM     17  C   UNL     1       4.173  -1.576  27.692  0.00  0.00    +0.120 C 
BRANCH  12  22
ATOM     18  C   UNL     1       7.771  -4.472  25.911  0.00  0.00    +0.057 A 
ATOM     19  C   UNL     1       6.876  -5.539  25.790  0.00  0.00    +0.012 A 
ATOM     20  C   UNL     1       5.537  -5.367  26.135  0.00  0.00    +0.002 A 
ATOM     21  C   UNL     1       5.087  -4.130  26.612  0.00  0.00    +0.023 A 
ATOM     22  C   UNL     1       5.948  -3.033  26.726  0.00  0.00    +0.030 A 
ATOM     23  C   UNL     1       7.287  -3.229  26.357  0.00  0.00    +0.035 A 
BRANCH  18  25
ATOM     24  F   UNL     1       9.492  -5.707  24.774  0.00  0.00    -0.166 F 
ATOM     25  C   UNL     1       9.236  -4.663  25.613  0.00  0.00    +0.417 C 
ATOM     26  F   UNL     1       9.794  -3.569  25.022  0.00  0.00    -0.166 F 
ATOM     27  F   UNL     1       9.974  -4.899  26.733  0.00  0.00    -0.166 F 
ENDBRANCH  18  25
ENDBRANCH  12  22
ENDBRANCH  11  15
ENDBRANCH  10  11
ENDBRANCH   9  10
ENDBRANCH   7   9
ENDBRANCH   1   7
BRANCH   2  28
ATOM     28  N   UNL     1       6.504   1.053  22.725  0.00  0.00    -0.313 N 
ATOM     29  H   UNL     1       5.605   0.658  23.008  0.00  0.00    +0.152 HD
BRANCH  28  30
ATOM     30  C   UNL     1       7.552   0.094  22.661  0.00  0.00    +0.042 A 
ATOM     31  C   UNL     1       8.843   0.519  22.314  0.00  0.00    +0.043 A 
ATOM     32  C   UNL     1       9.825  -0.432  22.117  0.00  0.00    +0.113 A 
ATOM     33  N   UNL     1       9.608  -1.765  22.164  0.00  0.00    -0.255 NA
ATOM     34  C   UNL     1       8.363  -2.184  22.439  0.00  0.00    +0.073 A 
ATOM     35  C   UNL     1       8.070  -3.531  22.299  0.00  0.00    +0.040 A 
ATOM     36  C   UNL     1       6.758  -4.017  22.436  0.00  0.00    +0.057 A 
ATOM     37  C   UNL     1       5.780  -3.173  22.957  0.00  0.00    +0.013 A 
ATOM     38  C   UNL     1       6.065  -1.828  23.151  0.00  0.00    +0.012 A 
ATOM     39  C   UNL     1       7.315  -1.296  22.769  0.00  0.00    +0.022 A 
BRANCH  36  40
ATOM     40  C   UNL     1       6.398  -5.385  21.919  0.00  0.00    +0.417 C 
ATOM     41  F   UNL     1       5.349  -5.954  22.564  0.00  0.00    -0.166 F 
ATOM     42  F   UNL     1       7.437  -6.262  22.032  0.00  0.00    -0.166 F 
ATOM     43  F   UNL     1       6.074  -5.383  20.593  0.00  0.00    -0.166 F 
ENDBRANCH  36  40
ENDBRANCH  28  30
ENDBRANCH   2  28
TORSDOF 10
ENDMDL
MODEL 5
REMARK VINA RESULT:      -6.8      3.320      6.861
REMARK  Name = 
REMARK  10 active torsions:
REMARK  status: ('A' for Active; 'I' for Inactive)
REMARK    1  A    between atoms: C_2  and  C_5
REMARK    2  A    between atoms: C_7  and  N_11
REMARK    3  A    between atoms: N_14  and  C_15
REMARK    4  A    between atoms: C_15  and  C_16
REMARK    5  A    between atoms: C_16  and  O_17
REMARK    6  A    between atoms: O_17  and  C_18
REMARK    7  A    between atoms: C_18  and  C_20
REMARK    8  A    between atoms: C_25  and  N_26
REMARK    9  A    between atoms: N_26  and  C_27
REMARK   10  A    between atoms: C_31  and  C_37
REMARK                            x       y       z     vdW  Elec       q    Type
REMARK                         _______ _______ _______ _____ _____    ______ ____
ROOT
ATOM      1  C   UNL     1       3.270  -4.811  25.361  0.00  0.00    +0.080 A 
ATOM      2  C   UNL     1       4.602  -5.312  25.393  0.00  0.00    +0.045 A 
ATOM      3  C   UNL     1       4.783  -6.671  25.059  0.00  0.00    +0.024 A 
ATOM      4  C   UNL     1       3.728  -7.487  24.643  0.00  0.00    +0.002 A 
ATOM      5  C   UNL     1       2.459  -6.952  24.496  0.00  0.00    +0.001 A 
ATOM      6  C   UNL     1       2.235  -5.620  24.851  0.00  0.00    +0.017 A 
ENDROOT
BRANCH   1   7
ATOM      7  C   UNL     1       2.905  -3.497  25.987  0.00  0.00    +0.341 C 
ATOM      8  O   UNL     1       2.204  -2.642  25.465  0.00  0.00    -0.245 OA
BRANCH   7   9
ATOM      9  O   UNL     1       3.528  -3.343  27.193  0.00  0.00    -0.460 OA
BRANCH   9  10
ATOM     10  C   UNL     1       3.539  -2.030  27.804  0.00  0.00    +0.248 C 
BRANCH  10  11
ATOM     11  C   UNL     1       4.912  -1.340  27.893  0.00  0.00    +0.125 C 
BRANCH  11  15
ATOM     12  N   UNL     1       6.897   1.203  25.998  0.00  0.00    -0.327 N 
ATOM     13  C   UNL     1       7.528   0.373  27.034  0.00  0.00    +0.120 C 
ATOM     14  C   UNL     1       7.165  -1.117  26.818  0.00  0.00    +0.103 C 
ATOM     15  N   UNL     1       5.723  -1.422  26.655  0.00  0.00    -0.296 NA
ATOM     16  C   UNL     1       5.177  -0.514  25.610  0.00  0.00    +0.103 C 
ATOM     17  C   UNL     1       5.455   0.998  25.828  0.00  0.00    +0.120 C 
BRANCH  12  22
ATOM     18  C   UNL     1       9.466   3.179  24.192  0.00  0.00    +0.057 A 
ATOM     19  C   UNL     1       8.890   4.452  24.210  0.00  0.00    +0.012 A 
ATOM     20  C   UNL     1       7.660   4.652  24.835  0.00  0.00    +0.002 A 
ATOM     21  C   UNL     1       6.996   3.578  25.437  0.00  0.00    +0.023 A 
ATOM     22  C   UNL     1       7.551   2.293  25.459  0.00  0.00    +0.030 A 
ATOM     23  C   UNL     1       8.796   2.124  24.837  0.00  0.00    +0.035 A 
BRANCH  18  25
ATOM     24  F   UNL     1      11.523   1.948  24.011  0.00  0.00    -0.166 F 
ATOM     25  C   UNL     1      10.758   2.932  23.457  0.00  0.00    +0.417 C 
ATOM     26  F   UNL     1      10.557   2.557  22.163  0.00  0.00    -0.166 F 
ATOM     27  F   UNL     1      11.554   4.035  23.407  0.00  0.00    -0.166 F 
ENDBRANCH  18  25
ENDBRANCH  12  22
ENDBRANCH  11  15
ENDBRANCH  10  11
ENDBRANCH   9  10
ENDBRANCH   7   9
ENDBRANCH   1   7
BRANCH   2  28
ATOM     28  N   UNL     1       5.702  -4.517  25.833  0.00  0.00    -0.313 N 
ATOM     29  H   UNL     1       5.399  -3.606  26.183  0.00  0.00    +0.152 HD
BRANCH  28  30
ATOM     30  C   UNL     1       7.060  -4.544  25.415  0.00  0.00    +0.042 A 
ATOM     31  C   UNL     1       7.996  -5.249  26.186  0.00  0.00    +0.043 A 
ATOM     32  C   UNL     1       9.334  -5.158  25.856  0.00  0.00    +0.113 A 
ATOM     33  N   UNL     1       9.818  -4.367  24.872  0.00  0.00    -0.255 NA
ATOM     34  C   UNL     1       8.937  -3.643  24.164  0.00  0.00    +0.073 A 
ATOM     35  C   UNL     1       9.418  -2.682  23.290  0.00  0.00    +0.040 A 
ATOM     36  C   UNL     1       8.554  -1.797  22.621  0.00  0.00    +0.057 A 
ATOM     37  C   UNL     1       7.185  -2.044  22.651  0.00  0.00    +0.013 A 
ATOM     38  C   UNL     1       6.683  -3.035  23.484  0.00  0.00    +0.012 A 
ATOM     39  C   UNL     1       7.541  -3.752  24.346  0.00  0.00    +0.022 A 
BRANCH  36  40
ATOM     40  C   UNL     1       9.097  -0.542  21.988  0.00  0.00    +0.417 C 
ATOM     41  F   UNL     1      10.326  -0.189  22.443  0.00  0.00    -0.166 F 
ATOM     42  F   UNL     1       8.285   0.532  22.207  0.00  0.00    -0.166 F 
ATOM     43  F   UNL     1       9.207  -0.638  20.631  0.00  0.00    -0.166 F 
ENDBRANCH  36  40
ENDBRANCH  28  30
ENDBRANCH   2  28
TORSDOF 10
ENDMDL
MODEL 6
REMARK VINA RESULT:      -6.7      4.077      8.117
REMARK  Name = 
REMARK  10 active torsions:
REMARK  status: ('A' for Active; 'I' for Inactive)
REMARK    1  A    between atoms: C_2  and  C_5
REMARK    2  A    between atoms: C_7  and  N_11
REMARK    3  A    between atoms: N_14  and  C_15
REMARK    4  A    between atoms: C_15  and  C_16
REMARK    5  A    between atoms: C_16  and  O_17
REMARK    6  A    between atoms: O_17  and  C_18
REMARK    7  A    between atoms: C_18  and  C_20
REMARK    8  A    between atoms: C_25  and  N_26
REMARK    9  A    between atoms: N_26  and  C_27
REMARK   10  A    between atoms: C_31  and  C_37
REMARK                            x       y       z     vdW  Elec       q    Type
REMARK                         _______ _______ _______ _____ _____    ______ ____
ROOT
ATOM      1  C   UNL     1       7.343  -5.470  23.900  0.00  0.00    +0.080 A 
ATOM      2  C   UNL     1       5.969  -5.266  24.212  0.00  0.00    +0.045 A 
ATOM      3  C   UNL     1       5.055  -5.321  23.140  0.00  0.00    +0.024 A 
ATOM      4  C   UNL     1       5.447  -5.630  21.835  0.00  0.00    +0.002 A 
ATOM      5  C   UNL     1       6.769  -5.949  21.570  0.00  0.00    +0.001 A 
ATOM      6  C   UNL     1       7.709  -5.873  22.600  0.00  0.00    +0.017 A 
ENDROOT
BRANCH   1   7
ATOM      7  C   UNL     1       8.433  -5.132  24.874  0.00  0.00    +0.341 C 
ATOM      8  O   UNL     1       8.400  -5.369  26.073  0.00  0.00    -0.245 OA
BRANCH   7   9
ATOM      9  O   UNL     1       9.441  -4.447  24.257  0.00  0.00    -0.460 OA
BRANCH   9  10
ATOM     10  C   UNL     1       9.425  -3.000  24.305  0.00  0.00    +0.248 C 
BRANCH  10  11
ATOM     11  C   UNL     1       8.935  -2.290  23.029  0.00  0.00    +0.125 C 
BRANCH  11  15
ATOM     12  N   UNL     1       9.692   1.371  23.176  0.00  0.00    -0.327 N 
ATOM     13  C   UNL     1      10.367   0.424  24.076  0.00  0.00    +0.120 C 
ATOM     14  C   UNL     1      10.919  -0.777  23.269  0.00  0.00    +0.103 C 
ATOM     15  N   UNL     1       9.958  -1.452  22.362  0.00  0.00    -0.296 NA
ATOM     16  C   UNL     1       9.314  -0.408  21.518  0.00  0.00    +0.103 C 
ATOM     17  C   UNL     1       8.681   0.779  22.293  0.00  0.00    +0.120 C 
BRANCH  12  22
ATOM     18  C   UNL     1      11.191   4.752  23.462  0.00  0.00    +0.057 A 
ATOM     19  C   UNL     1      10.050   5.541  23.631  0.00  0.00    +0.012 A 
ATOM     20  C   UNL     1       8.790   4.946  23.665  0.00  0.00    +0.002 A 
ATOM     21  C   UNL     1       8.665   3.560  23.521  0.00  0.00    +0.023 A 
ATOM     22  C   UNL     1       9.785   2.734  23.373  0.00  0.00    +0.030 A 
ATOM     23  C   UNL     1      11.041   3.358  23.358  0.00  0.00    +0.035 A 
BRANCH  18  25
ATOM     24  F   UNL     1      12.723   6.116  22.208  0.00  0.00    -0.166 F 
ATOM     25  C   UNL     1      12.553   5.388  23.349  0.00  0.00    +0.417 C 
ATOM     26  F   UNL     1      12.814   6.245  24.375  0.00  0.00    -0.166 F 
ATOM     27  F   UNL     1      13.562   4.475  23.359  0.00  0.00    -0.166 F 
ENDBRANCH  18  25
ENDBRANCH  12  22
ENDBRANCH  11  15
ENDBRANCH  10  11
ENDBRANCH   9  10
ENDBRANCH   7   9
ENDBRANCH   1   7
BRANCH   2  28
ATOM     28  N   UNL     1       5.532  -4.928  25.527  0.00  0.00    -0.313 N 
ATOM     29  H   UNL     1       5.507  -5.742  26.144  0.00  0.00    +0.152 HD
BRANCH  28  30
ATOM     30  C   UNL     1       4.691  -3.865  25.954  0.00  0.00    +0.042 A 
ATOM     31  C   UNL     1       3.299  -4.039  25.913  0.00  0.00    +0.043 A 
ATOM     32  C   UNL     1       2.485  -2.960  26.194  0.00  0.00    +0.113 A 
ATOM     33  N   UNL     1       2.941  -1.712  26.439  0.00  0.00    -0.255 NA
ATOM     34  C   UNL     1       4.269  -1.520  26.425  0.00  0.00    +0.073 A 
ATOM     35  C   UNL     1       4.754  -0.222  26.475  0.00  0.00    +0.040 A 
ATOM     36  C   UNL     1       6.123   0.058  26.326  0.00  0.00    +0.057 A 
ATOM     37  C   UNL     1       7.034  -0.994  26.369  0.00  0.00    +0.013 A 
ATOM     38  C   UNL     1       6.571  -2.303  26.368  0.00  0.00    +0.012 A 
ATOM     39  C   UNL     1       5.191  -2.578  26.262  0.00  0.00    +0.022 A 
BRANCH  36  40
ATOM     40  C   UNL     1       6.579   1.458  26.006  0.00  0.00    +0.417 C 
ATOM     41  F   UNL     1       6.127   2.392  26.882  0.00  0.00    -0.166 F 
ATOM     42  F   UNL     1       6.163   1.861  24.771  0.00  0.00    -0.166 F 
ATOM     43  F   UNL     1       7.938   1.582  25.985  0.00  0.00    -0.166 F 
ENDBRANCH  36  40
ENDBRANCH  28  30
ENDBRANCH   2  28
TORSDOF 10
ENDMDL
MODEL 7
REMARK VINA RESULT:      -6.7      3.354      6.697
REMARK  Name = 
REMARK  10 active torsions:
REMARK  status: ('A' for Active; 'I' for Inactive)
REMARK    1  A    between atoms: C_2  and  C_5
REMARK    2  A    between atoms: C_7  and  N_11
REMARK    3  A    between atoms: N_14  and  C_15
REMARK    4  A    between atoms: C_15  and  C_16
REMARK    5  A    between atoms: C_16  and  O_17
REMARK    6  A    between atoms: O_17  and  C_18
REMARK    7  A    between atoms: C_18  and  C_20
REMARK    8  A    between atoms: C_25  and  N_26
REMARK    9  A    between atoms: N_26  and  C_27
REMARK   10  A    between atoms: C_31  and  C_37
REMARK                            x       y       z     vdW  Elec       q    Type
REMARK                         _______ _______ _______ _____ _____    ______ ____
ROOT
ATOM      1  C   UNL     1       3.350  -4.743  25.490  0.00  0.00    +0.080 A 
ATOM      2  C   UNL     1       4.695  -5.208  25.515  0.00  0.00    +0.045 A 
ATOM      3  C   UNL     1       4.898  -6.589  25.309  0.00  0.00    +0.024 A 
ATOM      4  C   UNL     1       3.850  -7.466  25.021  0.00  0.00    +0.002 A 
ATOM      5  C   UNL     1       2.562  -6.977  24.876  0.00  0.00    +0.001 A 
ATOM      6  C   UNL     1       2.317  -5.622  25.106  0.00  0.00    +0.017 A 
ENDROOT
BRANCH   1   7
ATOM      7  C   UNL     1       2.976  -3.382  25.999  0.00  0.00    +0.341 C 
ATOM      8  O   UNL     1       2.235  -2.598  25.422  0.00  0.00    -0.245 OA
BRANCH   7   9
ATOM      9  O   UNL     1       3.638  -3.097  27.159  0.00  0.00    -0.460 OA
BRANCH   9  10
ATOM     10  C   UNL     1       3.167  -1.995  27.971  0.00  0.00    +0.248 C 
BRANCH  10  11
ATOM     11  C   UNL     1       4.257  -1.122  28.620  0.00  0.00    +0.125 C 
BRANCH  11  15
ATOM     12  N   UNL     1       7.019   0.311  26.542  0.00  0.00    -0.327 N 
ATOM     13  C   UNL     1       5.872  -0.361  25.914  0.00  0.00    +0.120 C 
ATOM     14  C   UNL     1       4.547   0.184  26.501  0.00  0.00    +0.103 C 
ATOM     15  N   UNL     1       4.445   0.201  27.981  0.00  0.00    -0.296 NA
ATOM     16  C   UNL     1       5.660   0.875  28.515  0.00  0.00    +0.103 C 
ATOM     17  C   UNL     1       7.015   0.309  28.009  0.00  0.00    +0.120 C 
BRANCH  12  22
ATOM     18  C   UNL     1       9.371   2.290  24.464  0.00  0.00    +0.057 A 
ATOM     19  C   UNL     1      10.473   1.432  24.412  0.00  0.00    +0.012 A 
ATOM     20  C   UNL     1      10.424   0.195  25.053  0.00  0.00    +0.002 A 
ATOM     21  C   UNL     1       9.277  -0.186  25.756  0.00  0.00    +0.023 A 
ATOM     22  C   UNL     1       8.146   0.635  25.813  0.00  0.00    +0.030 A 
ATOM     23  C   UNL     1       8.216   1.868  25.147  0.00  0.00    +0.035 A 
BRANCH  18  25
ATOM     24  F   UNL     1       8.489   3.869  22.882  0.00  0.00    -0.166 F 
ATOM     25  C   UNL     1       9.435   3.660  23.841  0.00  0.00    +0.417 C 
ATOM     26  F   UNL     1       9.261   4.656  24.754  0.00  0.00    -0.166 F 
ATOM     27  F   UNL     1      10.631   3.909  23.240  0.00  0.00    -0.166 F 
ENDBRANCH  18  25
ENDBRANCH  12  22
ENDBRANCH  11  15
ENDBRANCH  10  11
ENDBRANCH   9  10
ENDBRANCH   7   9
ENDBRANCH   1   7
BRANCH   2  28
ATOM     28  N   UNL     1       5.790  -4.348  25.826  0.00  0.00    -0.313 N 
ATOM     29  H   UNL     1       5.478  -3.412  26.089  0.00  0.00    +0.152 HD
BRANCH  28  30
ATOM     30  C   UNL     1       7.133  -4.392  25.364  0.00  0.00    +0.042 A 
ATOM     31  C   UNL     1       8.098  -5.058  26.135  0.00  0.00    +0.043 A 
ATOM     32  C   UNL     1       9.423  -4.980  25.755  0.00  0.00    +0.113 A 
ATOM     33  N   UNL     1       9.870  -4.237  24.719  0.00  0.00    -0.255 NA
ATOM     34  C   UNL     1       8.963  -3.549  24.008  0.00  0.00    +0.073 A 
ATOM     35  C   UNL     1       9.411  -2.629  23.072  0.00  0.00    +0.040 A 
ATOM     36  C   UNL     1       8.521  -1.780  22.393  0.00  0.00    +0.057 A 
ATOM     37  C   UNL     1       7.154  -2.028  22.481  0.00  0.00    +0.013 A 
ATOM     38  C   UNL     1       6.685  -2.979  23.377  0.00  0.00    +0.012 A 
ATOM     39  C   UNL     1       7.574  -3.652  24.242  0.00  0.00    +0.022 A 
BRANCH  36  40
ATOM     40  C   UNL     1       9.037  -0.556  21.681  0.00  0.00    +0.417 C 
ATOM     41  F   UNL     1      10.333  -0.267  21.963  0.00  0.00    -0.166 F 
ATOM     42  F   UNL     1       8.319   0.560  22.001  0.00  0.00    -0.166 F 
ATOM     43  F   UNL     1       8.956  -0.657  20.323  0.00  0.00    -0.166 F 
ENDBRANCH  36  40
ENDBRANCH  28  30
ENDBRANCH   2  28
TORSDOF 10
ENDMDL
MODEL 8
REMARK VINA RESULT:      -6.7      3.544      6.361
REMARK  Name = 
REMARK  10 active torsions:
REMARK  status: ('A' for Active; 'I' for Inactive)
REMARK    1  A    between atoms: C_2  and  C_5
REMARK    2  A    between atoms: C_7  and  N_11
REMARK    3  A    between atoms: N_14  and  C_15
REMARK    4  A    between atoms: C_15  and  C_16
REMARK    5  A    between atoms: C_16  and  O_17
REMARK    6  A    between atoms: O_17  and  C_18
REMARK    7  A    between atoms: C_18  and  C_20
REMARK    8  A    between atoms: C_25  and  N_26
REMARK    9  A    between atoms: N_26  and  C_27
REMARK   10  A    between atoms: C_31  and  C_37
REMARK                            x       y       z     vdW  Elec       q    Type
REMARK                         _______ _______ _______ _____ _____    ______ ____
ROOT
ATOM      1  C   UNL     1       6.371  -5.179  24.637  0.00  0.00    +0.080 A 
ATOM      2  C   UNL     1       7.388  -4.598  23.828  0.00  0.00    +0.045 A 
ATOM      3  C   UNL     1       7.166  -4.584  22.435  0.00  0.00    +0.024 A 
ATOM      4  C   UNL     1       5.981  -5.049  21.860  0.00  0.00    +0.002 A 
ATOM      5  C   UNL     1       4.950  -5.495  22.670  0.00  0.00    +0.001 A 
ATOM      6  C   UNL     1       5.145  -5.555  24.051  0.00  0.00    +0.017 A 
ENDROOT
BRANCH   1   7
ATOM      7  C   UNL     1       6.613  -5.537  26.074  0.00  0.00    +0.341 C 
ATOM      8  O   UNL     1       7.650  -6.012  26.513  0.00  0.00    -0.245 OA
BRANCH   7   9
ATOM      9  O   UNL     1       5.487  -5.336  26.822  0.00  0.00    -0.460 OA
BRANCH   9  10
ATOM     10  C   UNL     1       5.385  -4.124  27.606  0.00  0.00    +0.248 C 
BRANCH  10  11
ATOM     11  C   UNL     1       3.982  -3.788  28.146  0.00  0.00    +0.125 C 
BRANCH  11  15
ATOM     12  N   UNL     1       5.124  -0.579  26.597  0.00  0.00    -0.327 N 
ATOM     13  C   UNL     1       5.096  -1.825  25.817  0.00  0.00    +0.120 C 
ATOM     14  C   UNL     1       3.729  -2.532  25.992  0.00  0.00    +0.103 C 
ATOM     15  N   UNL     1       3.270  -2.732  27.388  0.00  0.00    -0.296 NA
ATOM     16  C   UNL     1       3.363  -1.425  28.094  0.00  0.00    +0.103 C 
ATOM     17  C   UNL     1       4.742  -0.717  28.007  0.00  0.00    +0.120 C 
BRANCH  12  22
ATOM     18  C   UNL     1       6.238   2.040  24.216  0.00  0.00    +0.057 A 
ATOM     19  C   UNL     1       6.904   2.920  25.074  0.00  0.00    +0.012 A 
ATOM     20  C   UNL     1       6.994   2.632  26.435  0.00  0.00    +0.002 A 
ATOM     21  C   UNL     1       6.411   1.468  26.947  0.00  0.00    +0.023 A 
ATOM     22  C   UNL     1       5.755   0.552  26.116  0.00  0.00    +0.030 A 
ATOM     23  C   UNL     1       5.693   0.858  24.749  0.00  0.00    +0.035 A 
BRANCH  18  25
ATOM     24  F   UNL     1       6.811   3.442  22.350  0.00  0.00    -0.166 F 
ATOM     25  C   UNL     1       6.068   2.373  22.757  0.00  0.00    +0.417 C 
ATOM     26  F   UNL     1       6.427   1.342  21.942  0.00  0.00    -0.166 F 
ATOM     27  F   UNL     1       4.780   2.673  22.433  0.00  0.00    -0.166 F 
ENDBRANCH  18  25
ENDBRANCH  12  22
ENDBRANCH  11  15
ENDBRANCH  10  11
ENDBRANCH   9  10
ENDBRANCH   7   9
ENDBRANCH   1   7
BRANCH   2  28
ATOM     28  N   UNL     1       8.620  -4.133  24.376  0.00  0.00    -0.313 N 
ATOM     29  H   UNL     1       9.221  -4.904  24.675  0.00  0.00    +0.152 HD
BRANCH  28  30
ATOM     30  C   UNL     1       8.916  -2.900  25.016  0.00  0.00    +0.042 A 
ATOM     31  C   UNL     1       8.552  -2.726  26.360  0.00  0.00    +0.043 A 
ATOM     32  C   UNL     1       8.714  -1.481  26.937  0.00  0.00    +0.113 A 
ATOM     33  N   UNL     1       9.137  -0.386  26.268  0.00  0.00    -0.255 NA
ATOM     34  C   UNL     1       9.433  -0.527  24.967  0.00  0.00    +0.073 A 
ATOM     35  C   UNL     1       9.676   0.611  24.213  0.00  0.00    +0.040 A 
ATOM     36  C   UNL     1       9.856   0.547  22.821  0.00  0.00    +0.057 A 
ATOM     37  C   UNL     1      10.034  -0.698  22.222  0.00  0.00    +0.013 A 
ATOM     38  C   UNL     1       9.843  -1.853  22.969  0.00  0.00    +0.012 A 
ATOM     39  C   UNL     1       9.412  -1.778  24.311  0.00  0.00    +0.022 A 
BRANCH  36  40
ATOM     40  C   UNL     1       9.740   1.794  21.984  0.00  0.00    +0.417 C 
ATOM     41  F   UNL     1       8.917   1.657  20.913  0.00  0.00    -0.166 F 
ATOM     42  F   UNL     1      10.948   2.189  21.487  0.00  0.00    -0.166 F 
ATOM     43  F   UNL     1       9.275   2.865  22.689  0.00  0.00    -0.166 F 
ENDBRANCH  36  40
ENDBRANCH  28  30
ENDBRANCH   2  28
TORSDOF 10
ENDMDL
MODEL 9
REMARK VINA RESULT:      -6.5      3.644      7.245
REMARK  Name = 
REMARK  10 active torsions:
REMARK  status: ('A' for Active; 'I' for Inactive)
REMARK    1  A    between atoms: C_2  and  C_5
REMARK    2  A    between atoms: C_7  and  N_11
REMARK    3  A    between atoms: N_14  and  C_15
REMARK    4  A    between atoms: C_15  and  C_16
REMARK    5  A    between atoms: C_16  and  O_17
REMARK    6  A    between atoms: O_17  and  C_18
REMARK    7  A    between atoms: C_18  and  C_20
REMARK    8  A    between atoms: C_25  and  N_26
REMARK    9  A    between atoms: N_26  and  C_27
REMARK   10  A    between atoms: C_31  and  C_37
REMARK                            x       y       z     vdW  Elec       q    Type
REMARK                         _______ _______ _______ _____ _____    ______ ____
ROOT
ATOM      1  C   UNL     1       3.817  -3.918  24.852  0.00  0.00    +0.080 A 
ATOM      2  C   UNL     1       4.460  -4.335  23.654  0.00  0.00    +0.045 A 
ATOM      3  C   UNL     1       3.954  -5.494  23.027  0.00  0.00    +0.024 A 
ATOM      4  C   UNL     1       2.831  -6.173  23.503  0.00  0.00    +0.002 A 
ATOM      5  C   UNL     1       2.140  -5.682  24.598  0.00  0.00    +0.001 A 
ATOM      6  C   UNL     1       2.631  -4.557  25.266  0.00  0.00    +0.017 A 
ENDROOT
BRANCH   1   7
ATOM      7  C   UNL     1       4.439  -2.907  25.772  0.00  0.00    +0.341 C 
ATOM      8  O   UNL     1       4.682  -3.093  26.956  0.00  0.00    -0.245 OA
BRANCH   7   9
ATOM      9  O   UNL     1       4.627  -1.716  25.130  0.00  0.00    -0.460 OA
BRANCH   9  10
ATOM     10  C   UNL     1       5.686  -0.843  25.589  0.00  0.00    +0.248 C 
BRANCH  10  11
ATOM     11  C   UNL     1       5.236   0.495  26.205  0.00  0.00    +0.125 C 
BRANCH  11  15
ATOM     12  N   UNL     1       6.944   3.556  24.896  0.00  0.00    -0.327 N 
ATOM     13  C   UNL     1       7.082   2.263  24.210  0.00  0.00    +0.120 C 
ATOM     14  C   UNL     1       5.690   1.615  24.009  0.00  0.00    +0.103 C 
ATOM     15  N   UNL     1       4.832   1.522  25.215  0.00  0.00    -0.296 NA
ATOM     16  C   UNL     1       4.781   2.868  25.847  0.00  0.00    +0.103 C 
ATOM     17  C   UNL     1       6.159   3.524  26.135  0.00  0.00    +0.120 C 
BRANCH  12  22
ATOM     18  C   UNL     1       9.969   5.480  23.938  0.00  0.00    +0.057 A 
ATOM     19  C   UNL     1       9.430   6.756  23.749  0.00  0.00    +0.012 A 
ATOM     20  C   UNL     1       8.069   6.974  23.956  0.00  0.00    +0.002 A 
ATOM     21  C   UNL     1       7.238   5.917  24.344  0.00  0.00    +0.023 A 
ATOM     22  C   UNL     1       7.745   4.631  24.564  0.00  0.00    +0.030 A 
ATOM     23  C   UNL     1       9.120   4.442  24.364  0.00  0.00    +0.035 A 
BRANCH  18  25
ATOM     24  F   UNL     1      11.743   3.885  23.646  0.00  0.00    -0.166 F 
ATOM     25  C   UNL     1      11.422   5.210  23.646  0.00  0.00    +0.417 C 
ATOM     26  F   UNL     1      11.804   5.682  22.427  0.00  0.00    -0.166 F 
ATOM     27  F   UNL     1      12.257   5.793  24.550  0.00  0.00    -0.166 F 
ENDBRANCH  18  25
ENDBRANCH  12  22
ENDBRANCH  11  15
ENDBRANCH  10  11
ENDBRANCH   9  10
ENDBRANCH   7   9
ENDBRANCH   1   7
BRANCH   2  28
ATOM     28  N   UNL     1       5.622  -3.680  23.148  0.00  0.00    -0.313 N 
ATOM     29  H   UNL     1       5.493  -3.361  22.186  0.00  0.00    +0.152 HD
BRANCH  28  30
ATOM     30  C   UNL     1       6.985  -3.849  23.513  0.00  0.00    +0.042 A 
ATOM     31  C   UNL     1       7.364  -5.001  24.219  0.00  0.00    +0.043 A 
ATOM     32  C   UNL     1       8.658  -5.096  24.693  0.00  0.00    +0.113 A 
ATOM     33  N   UNL     1       9.576  -4.110  24.586  0.00  0.00    -0.255 NA
ATOM     34  C   UNL     1       9.208  -2.980  23.963  0.00  0.00    +0.073 A 
ATOM     35  C   UNL     1      10.059  -1.887  24.013  0.00  0.00    +0.040 A 
ATOM     36  C   UNL     1       9.677  -0.634  23.502  0.00  0.00    +0.057 A 
ATOM     37  C   UNL     1       8.528  -0.548  22.720  0.00  0.00    +0.013 A 
ATOM     38  C   UNL     1       7.685  -1.646  22.616  0.00  0.00    +0.012 A 
ATOM     39  C   UNL     1       7.949  -2.827  23.343  0.00  0.00    +0.022 A 
BRANCH  36  40
ATOM     40  C   UNL     1      10.435   0.607  23.895  0.00  0.00    +0.417 C 
ATOM     41  F   UNL     1      11.736   0.376  24.206  0.00  0.00    -0.166 F 
ATOM     42  F   UNL     1       9.885   1.217  24.984  0.00  0.00    -0.166 F 
ATOM     43  F   UNL     1      10.441   1.558  22.916  0.00  0.00    -0.166 F 
ENDBRANCH  36  40
ENDBRANCH  28  30
ENDBRANCH   2  28
TORSDOF 10
ENDMDL
