MODEL 1
REMARK VINA RESULT:      -7.6      0.000      0.000
REMARK  Name = 
REMARK  8 active torsions:
REMARK  status: ('A' for Active; 'I' for Inactive)
REMARK    1  A    between atoms: O_1  and  C_2
REMARK    2  A    between atoms: C_2  and  C_4
REMARK    3  A    between atoms: C_4  and  C_5
REMARK    4  A    between atoms: C_5  and  C_6
REMARK    5  A    between atoms: C_6  and  O_7
REMARK    6  A    between atoms: O_7  and  C_8
REMARK    7  A    between atoms: C_11  and  N_12
REMARK    8  A    between atoms: C_16  and  C_18
REMARK                            x       y       z     vdW  Elec       q    Type
REMARK                         _______ _______ _______ _____ _____    ______ ____
ROOT
ATOM      1  N   UNL     1       8.137  -1.433  23.694  0.00  0.00    -0.268 N 
ATOM      2  H   UNL     1       7.142  -1.365  23.917  0.00  0.00    +0.156 HD
ATOM      3  C   UNL     1       8.628  -2.710  23.613  0.00  0.00    +0.310 C 
ATOM      4  N   UNL     1       7.688  -3.706  23.822  0.00  0.00    -0.236 N 
ATOM      5  H   UNL     1       8.081  -4.634  23.752  0.00  0.00    +0.159 HD
ATOM      6  C   UNL     1       6.338  -3.543  24.065  0.00  0.00    +0.253 C 
ATOM      7  O   UNL     1       5.822  -2.434  24.202  0.00  0.00    -0.270 OA
ATOM      8  O   UNL     1       9.785  -3.034  23.363  0.00  0.00    -0.252 OA
ENDROOT
BRANCH   6   9
ATOM      9  C   UNL     1       5.449  -4.728  24.134  0.00  0.00    +0.055 A 
ATOM     10  C   UNL     1       5.419  -5.680  25.160  0.00  0.00    +0.054 A 
ATOM     11 CL   UNL     1       6.484  -5.651  26.519  0.00  0.00    -0.083 Cl
ATOM     12  C   UNL     1       4.463  -6.707  25.132  0.00  0.00    +0.040 A 
ATOM     13  C   UNL     1       3.544  -6.784  24.086  0.00  0.00    +0.042 A 
ATOM     14 CL   UNL     1       2.353  -8.023  24.078  0.00  0.00    -0.083 Cl
ATOM     15  C   UNL     1       3.574  -5.855  23.053  0.00  0.00    +0.021 A 
ATOM     16  C   UNL     1       4.522  -4.835  23.079  0.00  0.00    +0.016 A 
ENDBRANCH   6   9
BRANCH   1  21
ATOM     17  C   UNL     1      10.056   2.312  23.314  0.00  0.00    +0.122 A 
ATOM     18  C   UNL     1       9.734   1.791  24.565  0.00  0.00    +0.067 A 
ATOM     19  C   UNL     1       9.107   0.549  24.664  0.00  0.00    +0.066 A 
ATOM     20 CL   UNL     1       8.739  -0.027  26.257  0.00  0.00    -0.082 Cl
ATOM     21  C   UNL     1       8.789  -0.200  23.518  0.00  0.00    +0.053 A 
ATOM     22  C   UNL     1       9.127   0.320  22.268  0.00  0.00    +0.028 A 
ATOM     23  C   UNL     1       9.756   1.569  22.171  0.00  0.00    +0.047 A 
BRANCH  17  24
ATOM     24  O   UNL     1      10.657   3.524  23.093  0.00  0.00    -0.492 OA
BRANCH  24  25
ATOM     25  C   UNL     1      10.101   4.624  23.813  0.00  0.00    +0.229 C 
BRANCH  25  26
ATOM     26  C   UNL     1      10.882   5.893  23.500  0.00  0.00    +0.052 C 
BRANCH  26  27
ATOM     27  C   UNL     1      12.328   5.748  23.966  0.00  0.00    +0.124 C 
BRANCH  27  28
ATOM     28  C   UNL     1      13.271   5.462  22.825  0.00  0.00    +0.305 C 
ATOM     29  O   UNL     1      13.013   5.607  21.642  0.00  0.00    -0.251 OA
BRANCH  28  30
ATOM     30  O   UNL     1      14.472   5.012  23.254  0.00  0.00    -0.481 OA
ATOM     31  H   UNL     1      15.233   5.517  22.911  0.00  0.00    +0.295 HD
ENDBRANCH  28  30
ENDBRANCH  27  28
ENDBRANCH  26  27
ENDBRANCH  25  26
ENDBRANCH  24  25
ENDBRANCH  17  24
ENDBRANCH   1  21
TORSDOF 8
ENDMDL
MODEL 2
REMARK VINA RESULT:      -7.3      1.152      1.152
REMARK  Name = 
REMARK  8 active torsions:
REMARK  status: ('A' for Active; 'I' for Inactive)
REMARK    1  A    between atoms: O_1  and  C_2
REMARK    2  A    between atoms: C_2  and  C_4
REMARK    3  A    between atoms: C_4  and  C_5
REMARK    4  A    between atoms: C_5  and  C_6
REMARK    5  A    between atoms: C_6  and  O_7
REMARK    6  A    between atoms: O_7  and  C_8
REMARK    7  A    between atoms: C_11  and  N_12
REMARK    8  A    between atoms: C_16  and  C_18
REMARK                            x       y       z     vdW  Elec       q    Type
REMARK                         _______ _______ _______ _____ _____    ______ ____
ROOT
ATOM      1  N   UNL     1       7.152  -0.711  23.424  0.00  0.00    -0.268 N 
ATOM      2  H   UNL     1       6.358  -0.866  24.049  0.00  0.00    +0.156 HD
ATOM      3  C   UNL     1       7.622  -1.833  22.793  0.00  0.00    +0.310 C 
ATOM      4  N   UNL     1       6.929  -2.996  23.088  0.00  0.00    -0.236 N 
ATOM      5  H   UNL     1       7.299  -3.803  22.604  0.00  0.00    +0.159 HD
ATOM      6  C   UNL     1       5.823  -3.125  23.903  0.00  0.00    +0.253 C 
ATOM      7  O   UNL     1       5.363  -2.180  24.546  0.00  0.00    -0.270 OA
ATOM      8  O   UNL     1       8.562  -1.889  22.006  0.00  0.00    -0.252 OA
ENDROOT
BRANCH   6   9
ATOM      9  C   UNL     1       5.123  -4.429  24.002  0.00  0.00    +0.055 A 
ATOM     10  C   UNL     1       5.499  -5.510  24.808  0.00  0.00    +0.054 A 
ATOM     11 CL   UNL     1       6.911  -5.512  25.801  0.00  0.00    -0.083 Cl
ATOM     12  C   UNL     1       4.690  -6.655  24.862  0.00  0.00    +0.040 A 
ATOM     13  C   UNL     1       3.514  -6.722  24.115  0.00  0.00    +0.042 A 
ATOM     14 CL   UNL     1       2.510  -8.113  24.216  0.00  0.00    -0.083 Cl
ATOM     15  C   UNL     1       3.138  -5.663  23.298  0.00  0.00    +0.021 A 
ATOM     16  C   UNL     1       3.939  -4.525  23.244  0.00  0.00    +0.016 A 
ENDBRANCH   6   9
BRANCH   1  21
ATOM     17  C   UNL     1       8.515   3.288  23.336  0.00  0.00    +0.122 A 
ATOM     18  C   UNL     1       8.932   2.405  24.330  0.00  0.00    +0.067 A 
ATOM     19  C   UNL     1       8.474   1.088  24.333  0.00  0.00    +0.066 A 
ATOM     20 CL   UNL     1       9.038   0.056  25.605  0.00  0.00    -0.082 Cl
ATOM     21  C   UNL     1       7.590   0.623  23.344  0.00  0.00    +0.053 A 
ATOM     22  C   UNL     1       7.187   1.507  22.342  0.00  0.00    +0.028 A 
ATOM     23  C   UNL     1       7.648   2.830  22.342  0.00  0.00    +0.047 A 
BRANCH  17  24
ATOM     24  O   UNL     1       8.886   4.604  23.241  0.00  0.00    -0.492 OA
BRANCH  24  25
ATOM     25  C   UNL     1       9.816   5.051  24.226  0.00  0.00    +0.229 C 
BRANCH  25  26
ATOM     26  C   UNL     1      10.814   6.012  23.595  0.00  0.00    +0.052 C 
BRANCH  26  27
ATOM     27  C   UNL     1      12.233   5.658  24.033  0.00  0.00    +0.124 C 
BRANCH  27  28
ATOM     28  C   UNL     1      13.141   5.382  22.861  0.00  0.00    +0.305 C 
ATOM     29  O   UNL     1      12.818   5.449  21.687  0.00  0.00    -0.251 OA
BRANCH  28  30
ATOM     30  O   UNL     1      14.389   5.040  23.251  0.00  0.00    -0.481 OA
ATOM     31  H   UNL     1      14.713   5.532  24.030  0.00  0.00    +0.295 HD
ENDBRANCH  28  30
ENDBRANCH  27  28
ENDBRANCH  26  27
ENDBRANCH  25  26
ENDBRANCH  24  25
ENDBRANCH  17  24
ENDBRANCH   1  21
TORSDOF 8
ENDMDL
MODEL 3
REMARK VINA RESULT:      -7.3      3.666     10.887
REMARK  Name = 
REMARK  8 active torsions:
REMARK  status: ('A' for Active; 'I' for Inactive)
REMARK    1  A    between atoms: O_1  and  C_2
REMARK    2  A    between atoms: C_2  and  C_4
REMARK    3  A    between atoms: C_4  and  C_5
REMARK    4  A    between atoms: C_5  and  C_6
REMARK    5  A    between atoms: C_6  and  O_7
REMARK    6  A    between atoms: O_7  and  C_8
REMARK    7  A    between atoms: C_11  and  N_12
REMARK    8  A    between atoms: C_16  and  C_18
REMARK                            x       y       z     vdW  Elec       q    Type
REMARK                         _______ _______ _______ _____ _____    ______ ____
ROOT
ATOM      1  N   UNL     1       7.158  -3.910  24.039  0.00  0.00    -0.268 N 
ATOM      2  H   UNL     1       6.720  -3.025  23.773  0.00  0.00    +0.156 HD
ATOM      3  C   UNL     1       8.527  -3.887  24.090  0.00  0.00    +0.310 C 
ATOM      4  N   UNL     1       9.097  -2.660  23.793  0.00  0.00    -0.236 N 
ATOM      5  H   UNL     1      10.106  -2.676  23.842  0.00  0.00    +0.159 HD
ATOM      6  C   UNL     1       8.439  -1.484  23.494  0.00  0.00    +0.253 C 
ATOM      7  O   UNL     1       7.214  -1.424  23.380  0.00  0.00    -0.270 OA
ATOM      8  O   UNL     1       9.263  -4.825  24.380  0.00  0.00    -0.252 OA
ENDROOT
BRANCH   6   9
ATOM      9  C   UNL     1       9.207  -0.225  23.331  0.00  0.00    +0.055 A 
ATOM     10  C   UNL     1       9.441   0.451  22.128  0.00  0.00    +0.054 A 
ATOM     11 CL   UNL     1       8.903  -0.124  20.591  0.00  0.00    -0.083 Cl
ATOM     12  C   UNL     1      10.117   1.680  22.138  0.00  0.00    +0.040 A 
ATOM     13  C   UNL     1      10.558   2.231  23.341  0.00  0.00    +0.042 A 
ATOM     14 CL   UNL     1      11.352   3.755  23.349  0.00  0.00    -0.083 Cl
ATOM     15  C   UNL     1      10.346   1.563  24.541  0.00  0.00    +0.021 A 
ATOM     16  C   UNL     1       9.675   0.342  24.533  0.00  0.00    +0.016 A 
ENDBRANCH   6   9
BRANCH   1  21
ATOM     17  C   UNL     1       4.410  -7.058  24.668  0.00  0.00    +0.122 A 
ATOM     18  C   UNL     1       4.803  -6.689  23.384  0.00  0.00    +0.067 A 
ATOM     19  C   UNL     1       5.716  -5.651  23.203  0.00  0.00    +0.066 A 
ATOM     20 CL   UNL     1       6.150  -5.253  21.572  0.00  0.00    -0.082 Cl
ATOM     21  C   UNL     1       6.259  -4.960  24.299  0.00  0.00    +0.053 A 
ATOM     22  C   UNL     1       5.875  -5.343  25.584  0.00  0.00    +0.028 A 
ATOM     23  C   UNL     1       4.955  -6.386  25.764  0.00  0.00    +0.047 A 
BRANCH  17  24
ATOM     24  O   UNL     1       3.511  -8.049  24.967  0.00  0.00    -0.492 OA
BRANCH  24  25
ATOM     25  C   UNL     1       2.336  -7.623  25.655  0.00  0.00    +0.229 C 
BRANCH  25  26
ATOM     26  C   UNL     1       1.235  -7.311  24.652  0.00  0.00    +0.052 C 
BRANCH  26  27
ATOM     27  C   UNL     1       1.164  -8.409  23.594  0.00  0.00    +0.124 C 
BRANCH  27  28
ATOM     28  C   UNL     1       1.076  -7.852  22.195  0.00  0.00    +0.305 C 
ATOM     29  O   UNL     1       0.752  -6.712  21.909  0.00  0.00    -0.251 OA
BRANCH  28  30
ATOM     30  O   UNL     1       1.402  -8.770  21.258  0.00  0.00    -0.481 OA
ATOM     31  H   UNL     1       0.662  -9.347  20.990  0.00  0.00    +0.295 HD
ENDBRANCH  28  30
ENDBRANCH  27  28
ENDBRANCH  26  27
ENDBRANCH  25  26
ENDBRANCH  24  25
ENDBRANCH  17  24
ENDBRANCH   1  21
TORSDOF 8
ENDMDL
MODEL 4
REMARK VINA RESULT:      -7.1      1.677      2.614
REMARK  Name = 
REMARK  8 active torsions:
REMARK  status: ('A' for Active; 'I' for Inactive)
REMARK    1  A    between atoms: O_1  and  C_2
REMARK    2  A    between atoms: C_2  and  C_4
REMARK    3  A    between atoms: C_4  and  C_5
REMARK    4  A    between atoms: C_5  and  C_6
REMARK    5  A    between atoms: C_6  and  O_7
REMARK    6  A    between atoms: O_7  and  C_8
REMARK    7  A    between atoms: C_11  and  N_12
REMARK    8  A    between atoms: C_16  and  C_18
REMARK                            x       y       z     vdW  Elec       q    Type
REMARK                         _______ _______ _______ _____ _____    ______ ____
ROOT
ATOM      1  N   UNL     1       8.362  -1.130  23.859  0.00  0.00    -0.268 N 
ATOM      2  H   UNL     1       7.352  -1.099  24.015  0.00  0.00    +0.156 HD
ATOM      3  C   UNL     1       8.911  -2.385  23.857  0.00  0.00    +0.310 C 
ATOM      4  N   UNL     1       8.002  -3.415  24.044  0.00  0.00    -0.236 N 
ATOM      5  H   UNL     1       8.438  -4.326  24.034  0.00  0.00    +0.159 HD
ATOM      6  C   UNL     1       6.634  -3.304  24.192  0.00  0.00    +0.253 C 
ATOM      7  O   UNL     1       6.063  -2.215  24.254  0.00  0.00    -0.270 OA
ATOM      8  O   UNL     1      10.094  -2.666  23.695  0.00  0.00    -0.252 OA
ENDROOT
BRANCH   6   9
ATOM      9  C   UNL     1       5.794  -4.524  24.249  0.00  0.00    +0.055 A 
ATOM     10  C   UNL     1       5.832  -5.509  25.244  0.00  0.00    +0.054 A 
ATOM     11 CL   UNL     1       6.937  -5.482  26.570  0.00  0.00    -0.083 Cl
ATOM     12  C   UNL     1       4.915  -6.571  25.211  0.00  0.00    +0.040 A 
ATOM     13  C   UNL     1       3.967  -6.651  24.191  0.00  0.00    +0.042 A 
ATOM     14 CL   UNL     1       2.824  -7.934  24.178  0.00  0.00    -0.083 Cl
ATOM     15  C   UNL     1       3.929  -5.689  23.188  0.00  0.00    +0.021 A 
ATOM     16  C   UNL     1       4.838  -4.634  23.220  0.00  0.00    +0.016 A 
ENDBRANCH   6   9
BRANCH   1  21
ATOM     17  C   UNL     1      10.253   2.587  23.177  0.00  0.00    +0.122 A 
ATOM     18  C   UNL     1      10.073   1.670  22.145  0.00  0.00    +0.067 A 
ATOM     19  C   UNL     1       9.439   0.453  22.394  0.00  0.00    +0.066 A 
ATOM     20 CL   UNL     1       9.256  -0.634  21.056  0.00  0.00    -0.082 Cl
ATOM     21  C   UNL     1       8.971   0.125  23.678  0.00  0.00    +0.053 A 
ATOM     22  C   UNL     1       9.141   1.053  24.706  0.00  0.00    +0.028 A 
ATOM     23  C   UNL     1       9.779   2.275  24.453  0.00  0.00    +0.047 A 
BRANCH  17  24
ATOM     24  O   UNL     1      10.873   3.804  23.055  0.00  0.00    -0.492 OA
BRANCH  24  25
ATOM     25  C   UNL     1      10.494   4.784  24.020  0.00  0.00    +0.229 C 
BRANCH  25  26
ATOM     26  C   UNL     1       9.983   6.032  23.314  0.00  0.00    +0.052 C 
BRANCH  26  27
ATOM     27  C   UNL     1       8.477   6.172  23.519  0.00  0.00    +0.124 C 
BRANCH  27  28
ATOM     28  C   UNL     1       7.684   5.439  22.466  0.00  0.00    +0.305 C 
ATOM     29  O   UNL     1       7.212   4.322  22.588  0.00  0.00    -0.251 OA
BRANCH  28  30
ATOM     30  O   UNL     1       7.545   6.165  21.334  0.00  0.00    -0.481 OA
ATOM     31  H   UNL     1       6.871   6.868  21.391  0.00  0.00    +0.295 HD
ENDBRANCH  28  30
ENDBRANCH  27  28
ENDBRANCH  26  27
ENDBRANCH  25  26
ENDBRANCH  24  25
ENDBRANCH  17  24
ENDBRANCH   1  21
TORSDOF 8
ENDMDL
MODEL 5
REMARK VINA RESULT:      -6.9      3.635     10.736
REMARK  Name = 
REMARK  8 active torsions:
REMARK  status: ('A' for Active; 'I' for Inactive)
REMARK    1  A    between atoms: O_1  and  C_2
REMARK    2  A    between atoms: C_2  and  C_4
REMARK    3  A    between atoms: C_4  and  C_5
REMARK    4  A    between atoms: C_5  and  C_6
REMARK    5  A    between atoms: C_6  and  O_7
REMARK    6  A    between atoms: O_7  and  C_8
REMARK    7  A    between atoms: C_11  and  N_12
REMARK    8  A    between atoms: C_16  and  C_18
REMARK                            x       y       z     vdW  Elec       q    Type
REMARK                         _______ _______ _______ _____ _____    ______ ____
ROOT
ATOM      1  N   UNL     1       7.309  -3.818  24.063  0.00  0.00    -0.268 N 
ATOM      2  H   UNL     1       6.874  -2.950  23.742  0.00  0.00    +0.156 HD
ATOM      3  C   UNL     1       8.673  -3.775  24.180  0.00  0.00    +0.310 C 
ATOM      4  N   UNL     1       9.243  -2.552  23.866  0.00  0.00    -0.236 N 
ATOM      5  H   UNL     1      10.249  -2.553  23.966  0.00  0.00    +0.159 HD
ATOM      6  C   UNL     1       8.587  -1.397  23.491  0.00  0.00    +0.253 C 
ATOM      7  O   UNL     1       7.369  -1.358  23.314  0.00  0.00    -0.270 OA
ATOM      8  O   UNL     1       9.405  -4.692  24.541  0.00  0.00    -0.252 OA
ENDROOT
BRANCH   6   9
ATOM      9  C   UNL     1       9.348  -0.135  23.319  0.00  0.00    +0.055 A 
ATOM     10  C   UNL     1       9.528   0.566  22.121  0.00  0.00    +0.054 A 
ATOM     11 CL   UNL     1       8.921   0.022  20.599  0.00  0.00    -0.083 Cl
ATOM     12  C   UNL     1      10.204   1.795  22.126  0.00  0.00    +0.040 A 
ATOM     13  C   UNL     1      10.699   2.321  23.319  0.00  0.00    +0.042 A 
ATOM     14 CL   UNL     1      11.493   3.845  23.322  0.00  0.00    -0.083 Cl
ATOM     15  C   UNL     1      10.541   1.628  24.513  0.00  0.00    +0.021 A 
ATOM     16  C   UNL     1       9.870   0.408  24.510  0.00  0.00    +0.016 A 
ENDBRANCH   6   9
BRANCH   1  21
ATOM     17  C   UNL     1       4.555  -6.964  24.677  0.00  0.00    +0.122 A 
ATOM     18  C   UNL     1       4.892  -6.541  23.394  0.00  0.00    +0.067 A 
ATOM     19  C   UNL     1       5.809  -5.505  23.217  0.00  0.00    +0.066 A 
ATOM     20 CL   UNL     1       6.172  -5.038  21.588  0.00  0.00    -0.082 Cl
ATOM     21  C   UNL     1       6.410  -4.869  24.317  0.00  0.00    +0.053 A 
ATOM     22  C   UNL     1       6.081  -5.307  25.600  0.00  0.00    +0.028 A 
ATOM     23  C   UNL     1       5.158  -6.347  25.775  0.00  0.00    +0.047 A 
BRANCH  17  24
ATOM     24  O   UNL     1       3.659  -7.958  24.973  0.00  0.00    -0.492 OA
BRANCH  24  25
ATOM     25  C   UNL     1       2.386  -7.844  24.337  0.00  0.00    +0.229 C 
BRANCH  25  26
ATOM     26  C   UNL     1       1.588  -6.718  24.980  0.00  0.00    +0.052 C 
BRANCH  26  27
ATOM     27  C   UNL     1       0.896  -7.221  26.244  0.00  0.00    +0.124 C 
BRANCH  27  28
ATOM     28  C   UNL     1       1.627  -6.811  27.498  0.00  0.00    +0.305 C 
ATOM     29  O   UNL     1       1.404  -5.803  28.147  0.00  0.00    -0.251 OA
BRANCH  28  30
ATOM     30  O   UNL     1       2.586  -7.698  27.843  0.00  0.00    -0.481 OA
ATOM     31  H   UNL     1       2.679  -7.832  28.806  0.00  0.00    +0.295 HD
ENDBRANCH  28  30
ENDBRANCH  27  28
ENDBRANCH  26  27
ENDBRANCH  25  26
ENDBRANCH  24  25
ENDBRANCH  17  24
ENDBRANCH   1  21
TORSDOF 8
ENDMDL
MODEL 6
REMARK VINA RESULT:      -6.8      2.343      3.078
REMARK  Name = 
REMARK  8 active torsions:
REMARK  status: ('A' for Active; 'I' for Inactive)
REMARK    1  A    between atoms: O_1  and  C_2
REMARK    2  A    between atoms: C_2  and  C_4
REMARK    3  A    between atoms: C_4  and  C_5
REMARK    4  A    between atoms: C_5  and  C_6
REMARK    5  A    between atoms: C_6  and  O_7
REMARK    6  A    between atoms: O_7  and  C_8
REMARK    7  A    between atoms: C_11  and  N_12
REMARK    8  A    between atoms: C_16  and  C_18
REMARK                            x       y       z     vdW  Elec       q    Type
REMARK                         _______ _______ _______ _____ _____    ______ ____
ROOT
ATOM      1  N   UNL     1       7.329  -3.508  23.787  0.00  0.00    -0.268 N 
ATOM      2  H   UNL     1       6.350  -3.248  23.923  0.00  0.00    +0.156 HD
ATOM      3  C   UNL     1       7.584  -4.853  23.836  0.00  0.00    +0.310 C 
ATOM      4  N   UNL     1       6.466  -5.648  24.038  0.00  0.00    -0.236 N 
ATOM      5  H   UNL     1       6.688  -6.633  24.065  0.00  0.00    +0.159 HD
ATOM      6  C   UNL     1       5.156  -5.230  24.158  0.00  0.00    +0.253 C 
ATOM      7  O   UNL     1       4.842  -4.040  24.174  0.00  0.00    -0.270 OA
ATOM      8  O   UNL     1       8.677  -5.396  23.705  0.00  0.00    -0.252 OA
ENDROOT
BRANCH   6   9
ATOM      9  C   UNL     1       4.064  -6.231  24.238  0.00  0.00    +0.055 A 
ATOM     10  C   UNL     1       3.751  -7.025  25.348  0.00  0.00    +0.054 A 
ATOM     11 CL   UNL     1       4.651  -7.002  26.821  0.00  0.00    -0.083 Cl
ATOM     12  C   UNL     1       2.632  -7.872  25.306  0.00  0.00    +0.040 A 
ATOM     13  C   UNL     1       1.833  -7.927  24.165  0.00  0.00    +0.042 A 
ATOM     14 CL   UNL     1       0.444  -8.938  24.136  0.00  0.00    -0.083 Cl
ATOM     15  C   UNL     1       2.142  -7.155  23.051  0.00  0.00    +0.021 A 
ATOM     16  C   UNL     1       3.252  -6.314  23.090  0.00  0.00    +0.016 A 
ENDBRANCH   6   9
BRANCH   1  21
ATOM     17  C   UNL     1       9.935  -0.216  23.309  0.00  0.00    +0.122 A 
ATOM     18  C   UNL     1       9.572  -0.671  24.575  0.00  0.00    +0.067 A 
ATOM     19  C   UNL     1       8.716  -1.764  24.706  0.00  0.00    +0.066 A 
ATOM     20 CL   UNL     1       8.313  -2.265  26.316  0.00  0.00    -0.082 Cl
ATOM     21  C   UNL     1       8.204  -2.428  23.578  0.00  0.00    +0.053 A 
ATOM     22  C   UNL     1       8.582  -1.978  22.313  0.00  0.00    +0.028 A 
ATOM     23  C   UNL     1       9.442  -0.878  22.183  0.00  0.00    +0.047 A 
BRANCH  17  24
ATOM     24  O   UNL     1      10.754   0.854  23.058  0.00  0.00    -0.492 OA
BRANCH  24  25
ATOM     25  C   UNL     1      10.743   1.880  24.050  0.00  0.00    +0.229 C 
BRANCH  25  26
ATOM     26  C   UNL     1      10.253   3.184  23.437  0.00  0.00    +0.052 C 
BRANCH  26  27
ATOM     27  C   UNL     1       8.741   3.310  23.612  0.00  0.00    +0.124 C 
BRANCH  27  28
ATOM     28  C   UNL     1       8.003   3.212  22.300  0.00  0.00    +0.305 C 
ATOM     29  O   UNL     1       6.951   3.771  22.040  0.00  0.00    -0.251 OA
BRANCH  28  30
ATOM     30  O   UNL     1       8.642   2.419  21.412  0.00  0.00    -0.481 OA
ATOM     31  H   UNL     1       9.614   2.416  21.506  0.00  0.00    +0.295 HD
ENDBRANCH  28  30
ENDBRANCH  27  28
ENDBRANCH  26  27
ENDBRANCH  25  26
ENDBRANCH  24  25
ENDBRANCH  17  24
ENDBRANCH   1  21
TORSDOF 8
ENDMDL
MODEL 7
REMARK VINA RESULT:      -6.8      3.332     10.584
REMARK  Name = 
REMARK  8 active torsions:
REMARK  status: ('A' for Active; 'I' for Inactive)
REMARK    1  A    between atoms: O_1  and  C_2
REMARK    2  A    between atoms: C_2  and  C_4
REMARK    3  A    between atoms: C_4  and  C_5
REMARK    4  A    between atoms: C_5  and  C_6
REMARK    5  A    between atoms: C_6  and  O_7
REMARK    6  A    between atoms: O_7  and  C_8
REMARK    7  A    between atoms: C_11  and  N_12
REMARK    8  A    between atoms: C_16  and  C_18
REMARK                            x       y       z     vdW  Elec       q    Type
REMARK                         _______ _______ _______ _____ _____    ______ ____
ROOT
ATOM      1  N   UNL     1       7.047  -3.306  23.885  0.00  0.00    -0.268 N 
ATOM      2  H   UNL     1       6.539  -2.434  23.722  0.00  0.00    +0.156 HD
ATOM      3  C   UNL     1       8.411  -3.182  23.933  0.00  0.00    +0.310 C 
ATOM      4  N   UNL     1       8.881  -1.888  23.776  0.00  0.00    -0.236 N 
ATOM      5  H   UNL     1       9.889  -1.832  23.820  0.00  0.00    +0.159 HD
ATOM      6  C   UNL     1       8.130  -0.741  23.615  0.00  0.00    +0.253 C 
ATOM      7  O   UNL     1       6.904  -0.764  23.513  0.00  0.00    -0.270 OA
ATOM      8  O   UNL     1       9.221  -4.087  24.113  0.00  0.00    -0.252 OA
ENDROOT
BRANCH   6   9
ATOM      9  C   UNL     1       8.797   0.584  23.595  0.00  0.00    +0.055 A 
ATOM     10  C   UNL     1       8.699   1.574  24.580  0.00  0.00    +0.054 A 
ATOM     11 CL   UNL     1       7.711   1.424  25.987  0.00  0.00    -0.083 Cl
ATOM     12  C   UNL     1       9.456   2.750  24.465  0.00  0.00    +0.040 A 
ATOM     13  C   UNL     1      10.305   2.937  23.374  0.00  0.00    +0.042 A 
ATOM     14 CL   UNL     1      11.256   4.364  23.260  0.00  0.00    -0.083 Cl
ATOM     15  C   UNL     1      10.399   1.969  22.381  0.00  0.00    +0.021 A 
ATOM     16  C   UNL     1       9.649   0.801  22.494  0.00  0.00    +0.016 A 
ENDBRANCH   6   9
BRANCH   1  21
ATOM     17  C   UNL     1       4.655  -6.741  24.463  0.00  0.00    +0.122 A 
ATOM     18  C   UNL     1       5.145  -6.013  25.545  0.00  0.00    +0.067 A 
ATOM     19  C   UNL     1       5.927  -4.879  25.328  0.00  0.00    +0.066 A 
ATOM     20 CL   UNL     1       6.500  -4.031  26.727  0.00  0.00    -0.082 Cl
ATOM     21  C   UNL     1       6.236  -4.445  24.027  0.00  0.00    +0.053 A 
ATOM     22  C   UNL     1       5.729  -5.169  22.947  0.00  0.00    +0.028 A 
ATOM     23  C   UNL     1       4.945  -6.309  23.168  0.00  0.00    +0.047 A 
BRANCH  17  24
ATOM     24  O   UNL     1       3.892  -7.876  24.555  0.00  0.00    -0.492 OA
BRANCH  24  25
ATOM     25  C   UNL     1       2.718  -7.762  25.358  0.00  0.00    +0.229 C 
BRANCH  25  26
ATOM     26  C   UNL     1       1.560  -8.481  24.681  0.00  0.00    +0.052 C 
BRANCH  26  27
ATOM     27  C   UNL     1       0.664  -7.474  23.965  0.00  0.00    +0.124 C 
BRANCH  27  28
ATOM     28  C   UNL     1       1.292  -6.946  22.700  0.00  0.00    +0.305 C 
ATOM     29  O   UNL     1       1.423  -5.768  22.416  0.00  0.00    -0.251 OA
BRANCH  28  30
ATOM     30  O   UNL     1       1.710  -7.940  21.884  0.00  0.00    -0.481 OA
ATOM     31  H   UNL     1       1.390  -8.826  22.138  0.00  0.00    +0.295 HD
ENDBRANCH  28  30
ENDBRANCH  27  28
ENDBRANCH  26  27
ENDBRANCH  25  26
ENDBRANCH  24  25
ENDBRANCH  17  24
ENDBRANCH   1  21
TORSDOF 8
ENDMDL
MODEL 8
REMARK VINA RESULT:      -6.7      1.484      1.808
REMARK  Name = 
REMARK  8 active torsions:
REMARK  status: ('A' for Active; 'I' for Inactive)
REMARK    1  A    between atoms: O_1  and  C_2
REMARK    2  A    between atoms: C_2  and  C_4
REMARK    3  A    between atoms: C_4  and  C_5
REMARK    4  A    between atoms: C_5  and  C_6
REMARK    5  A    between atoms: C_6  and  O_7
REMARK    6  A    between atoms: O_7  and  C_8
REMARK    7  A    between atoms: C_11  and  N_12
REMARK    8  A    between atoms: C_16  and  C_18
REMARK                            x       y       z     vdW  Elec       q    Type
REMARK                         _______ _______ _______ _____ _____    ______ ____
ROOT
ATOM      1  N   UNL     1       7.904  -0.194  24.298  0.00  0.00    -0.268 N 
ATOM      2  H   UNL     1       6.891  -0.319  24.359  0.00  0.00    +0.156 HD
ATOM      3  C   UNL     1       8.639  -1.343  24.424  0.00  0.00    +0.310 C 
ATOM      4  N   UNL     1       7.887  -2.496  24.592  0.00  0.00    -0.236 N 
ATOM      5  H   UNL     1       8.458  -3.325  24.678  0.00  0.00    +0.159 HD
ATOM      6  C   UNL     1       6.511  -2.599  24.608  0.00  0.00    +0.253 C 
ATOM      7  O   UNL     1       5.774  -1.615  24.550  0.00  0.00    -0.270 OA
ATOM      8  O   UNL     1       9.862  -1.437  24.388  0.00  0.00    -0.252 OA
ENDROOT
BRANCH   6   9
ATOM      9  C   UNL     1       5.869  -3.935  24.665  0.00  0.00    +0.055 A 
ATOM     10  C   UNL     1       5.993  -4.869  25.702  0.00  0.00    +0.054 A 
ATOM     11 CL   UNL     1       6.987  -4.623  27.092  0.00  0.00    -0.083 Cl
ATOM     12  C   UNL     1       5.257  -6.063  25.657  0.00  0.00    +0.040 A 
ATOM     13  C   UNL     1       4.405  -6.325  24.584  0.00  0.00    +0.042 A 
ATOM     14 CL   UNL     1       3.480  -7.773  24.555  0.00  0.00    -0.083 Cl
ATOM     15  C   UNL     1       4.286  -5.415  23.541  0.00  0.00    +0.021 A 
ATOM     16  C   UNL     1       5.015  -4.229  23.584  0.00  0.00    +0.016 A 
ENDBRANCH   6   9
BRANCH   1  21
ATOM     17  C   UNL     1       9.251   3.742  23.559  0.00  0.00    +0.122 A 
ATOM     18  C   UNL     1       9.315   2.761  22.572  0.00  0.00    +0.067 A 
ATOM     19  C   UNL     1       8.858   1.471  22.839  0.00  0.00    +0.066 A 
ATOM     20 CL   UNL     1       8.976   0.308  21.559  0.00  0.00    -0.082 Cl
ATOM     21  C   UNL     1       8.325   1.132  24.095  0.00  0.00    +0.053 A 
ATOM     22  C   UNL     1       8.249   2.123  25.074  0.00  0.00    +0.028 A 
ATOM     23  C   UNL     1       8.711   3.418  24.804  0.00  0.00    +0.047 A 
BRANCH  17  24
ATOM     24  O   UNL     1       9.683   5.035  23.417  0.00  0.00    -0.492 OA
BRANCH  24  25
ATOM     25  C   UNL     1      10.336   5.592  24.557  0.00  0.00    +0.229 C 
BRANCH  25  26
ATOM     26  C   UNL     1      11.760   5.987  24.194  0.00  0.00    +0.052 C 
BRANCH  26  27
ATOM     27  C   UNL     1      12.036   5.666  22.728  0.00  0.00    +0.124 C 
BRANCH  27  28
ATOM     28  C   UNL     1      13.512   5.619  22.420  0.00  0.00    +0.305 C 
ATOM     29  O   UNL     1      14.044   6.117  21.442  0.00  0.00    -0.251 OA
BRANCH  28  30
ATOM     30  O   UNL     1      14.210   4.950  23.364  0.00  0.00    -0.481 OA
ATOM     31  H   UNL     1      13.963   4.010  23.452  0.00  0.00    +0.295 HD
ENDBRANCH  28  30
ENDBRANCH  27  28
ENDBRANCH  26  27
ENDBRANCH  25  26
ENDBRANCH  24  25
ENDBRANCH  17  24
ENDBRANCH   1  21
TORSDOF 8
ENDMDL
MODEL 9
REMARK VINA RESULT:      -6.6      1.618      2.137
REMARK  Name = 
REMARK  8 active torsions:
REMARK  status: ('A' for Active; 'I' for Inactive)
REMARK    1  A    between atoms: O_1  and  C_2
REMARK    2  A    between atoms: C_2  and  C_4
REMARK    3  A    between atoms: C_4  and  C_5
REMARK    4  A    between atoms: C_5  and  C_6
REMARK    5  A    between atoms: C_6  and  O_7
REMARK    6  A    between atoms: O_7  and  C_8
REMARK    7  A    between atoms: C_11  and  N_12
REMARK    8  A    between atoms: C_16  and  C_18
REMARK                            x       y       z     vdW  Elec       q    Type
REMARK                         _______ _______ _______ _____ _____    ______ ____
ROOT
ATOM      1  N   UNL     1       7.110  -3.072  23.575  0.00  0.00    -0.268 N 
ATOM      2  H   UNL     1       6.104  -2.888  23.589  0.00  0.00    +0.156 HD
ATOM      3  C   UNL     1       7.464  -4.373  23.822  0.00  0.00    +0.310 C 
ATOM      4  N   UNL     1       6.399  -5.235  24.027  0.00  0.00    -0.236 N 
ATOM      5  H   UNL     1       6.694  -6.185  24.202  0.00  0.00    +0.159 HD
ATOM      6  C   UNL     1       5.054  -4.927  23.975  0.00  0.00    +0.253 C 
ATOM      7  O   UNL     1       4.647  -3.777  23.807  0.00  0.00    -0.270 OA
ATOM      8  O   UNL     1       8.605  -4.825  23.859  0.00  0.00    -0.252 OA
ENDROOT
BRANCH   6   9
ATOM      9  C   UNL     1       4.042  -6.005  24.088  0.00  0.00    +0.055 A 
ATOM     10  C   UNL     1       3.879  -6.874  25.174  0.00  0.00    +0.054 A 
ATOM     11 CL   UNL     1       4.897  -6.861  26.568  0.00  0.00    -0.083 Cl
ATOM     12  C   UNL     1       2.820  -7.795  25.177  0.00  0.00    +0.040 A 
ATOM     13  C   UNL     1       1.931  -7.850  24.104  0.00  0.00    +0.042 A 
ATOM     14 CL   UNL     1       0.615  -8.955  24.133  0.00  0.00    -0.083 Cl
ATOM     15  C   UNL     1       2.092  -7.004  23.013  0.00  0.00    +0.021 A 
ATOM     16  C   UNL     1       3.142  -6.089  23.008  0.00  0.00    +0.016 A 
ENDBRANCH   6   9
BRANCH   1  21
ATOM     17  C   UNL     1       9.412   0.391  22.828  0.00  0.00    +0.122 A 
ATOM     18  C   UNL     1       8.367   0.405  23.749  0.00  0.00    +0.067 A 
ATOM     19  C   UNL     1       7.627  -0.754  23.983  0.00  0.00    +0.066 A 
ATOM     20 CL   UNL     1       6.342  -0.652  25.142  0.00  0.00    -0.082 Cl
ATOM     21  C   UNL     1       7.913  -1.951  23.304  0.00  0.00    +0.053 A 
ATOM     22  C   UNL     1       8.970  -1.963  22.394  0.00  0.00    +0.028 A 
ATOM     23  C   UNL     1       9.712  -0.797  22.160  0.00  0.00    +0.047 A 
BRANCH  17  24
ATOM     24  O   UNL     1      10.196   1.468  22.506  0.00  0.00    -0.492 OA
BRANCH  24  25
ATOM     25  C   UNL     1      10.772   2.161  23.614  0.00  0.00    +0.229 C 
BRANCH  25  26
ATOM     26  C   UNL     1      10.500   3.653  23.487  0.00  0.00    +0.052 C 
BRANCH  26  27
ATOM     27  C   UNL     1      11.811   4.411  23.300  0.00  0.00    +0.124 C 
BRANCH  27  28
ATOM     28  C   UNL     1      11.787   5.768  23.956  0.00  0.00    +0.305 C 
ATOM     29  O   UNL     1      10.793   6.457  24.115  0.00  0.00    -0.251 OA
BRANCH  28  30
ATOM     30  O   UNL     1      13.014   6.161  24.364  0.00  0.00    -0.481 OA
ATOM     31  H   UNL     1      13.368   5.649  25.117  0.00  0.00    +0.295 HD
ENDBRANCH  28  30
ENDBRANCH  27  28
ENDBRANCH  26  27
ENDBRANCH  25  26
ENDBRANCH  24  25
ENDBRANCH  17  24
ENDBRANCH   1  21
TORSDOF 8
ENDMDL
