MODEL 1
REMARK VINA RESULT:      -5.6      0.000      0.000
REMARK  Name = 
REMARK  11 active torsions:
REMARK  status: ('A' for Active; 'I' for Inactive)
REMARK    1  A    between atoms: C_2  and  C_3
REMARK    2  A    between atoms: C_2  and  C_5
REMARK    3  A    between atoms: C_2  and  C_7
REMARK    4  A    between atoms: C_3  and  C_4
REMARK    5  A    between atoms: CA_10  and  C_11
REMARK    6  A    between atoms: C_11  and  O_12
REMARK    7  A    between atoms: C_20  and  O_22
REMARK    8  A    between atoms: O_22  and  C_23
REMARK    9  A    between atoms: C_23  and  C_24
REMARK   10  A    between atoms: C_24  and  C_25
REMARK   11  A    between atoms: C_25  and  C_26
REMARK                            x       y       z     vdW  Elec       q    Type
REMARK                         _______ _______ _______ _____ _____    ______ ____
ROOT
ATOM      1  C   UNL     1       9.092  -1.608  23.233  0.00  0.00    +0.088 C 
ATOM      2  C   UNL     1       7.998  -1.312  24.290  0.00  0.00    +0.040 C 
ATOM      3  C   UNL     1       6.717  -0.728  23.720  0.00  0.00    +0.010 C 
ATOM      4  C   UNL     1       5.656  -0.692  24.809  0.00  0.00    +0.003 C 
ATOM      5  C   UNL     1       5.382  -2.098  25.318  0.00  0.00    +0.036 C 
ATOM      6  C   UNL     1       6.622  -2.802  25.911  0.00  0.00    +0.147 C 
ATOM      7  C   UNL     1       7.811  -2.646  25.003  0.00  0.00    -0.009 C 
ATOM      8  CA  UNL     1       8.899  -3.407  24.761  0.00  0.00    +0.114 C 
ATOM      9  N   UNL     1       9.754  -2.826  23.777  0.00  0.00    -0.334 N 
ATOM     10  H   UNL     1       9.910  -3.523  23.038  0.00  0.00    +0.147 HD
ENDROOT
BRANCH   8  11
ATOM     11  C   UNL     1       9.374  -4.633  25.498  0.00  0.00    +0.351 C 
ATOM     12  OXT UNL     1       9.509  -4.797  26.692  0.00  0.00    -0.244 OA
BRANCH  11  13
ATOM     13  O   UNL     1       9.730  -5.560  24.571  0.00  0.00    -0.476 OA
ATOM     14  H   UNL     1       9.157  -6.348  24.690  0.00  0.00    +0.295 HD
ENDBRANCH  11  13
ENDBRANCH   8  11
BRANCH   1  15
ATOM     15  C   UNL     1      10.119  -0.489  22.994  0.00  0.00    +0.072 C 
BRANCH  15  16
ATOM     16  C   UNL     1       9.868   0.409  21.766  0.00  0.00    +0.009 C 
ATOM     17  C   UNL     1       9.736   1.894  22.067  0.00  0.00    +0.004 C 
ENDBRANCH  15  16
BRANCH  15  18
ATOM     18  C   UNL     1      10.221   0.385  24.237  0.00  0.00    +0.228 C 
ATOM     19  O   UNL     1      11.245   0.535  24.893  0.00  0.00    -0.301 OA
ENDBRANCH  15  18
ENDBRANCH   1  15
BRANCH   6  20
ATOM     20  O   UNL     1       6.295  -4.181  26.123  0.00  0.00    -0.372 OA
BRANCH  20  21
ATOM     21  C   UNL     1       5.261  -4.638  25.247  0.00  0.00    +0.160 C 
BRANCH  21  22
ATOM     22  C   UNL     1       5.803  -5.564  24.164  0.00  0.00    +0.028 C 
BRANCH  22  23
ATOM     23  C   UNL     1       5.473  -4.984  22.784  0.00  0.00    -0.001 C 
ATOM     24  C   UNL     1       6.708  -4.528  22.029  0.00  0.00    +0.004 C 
ENDBRANCH  22  23
ENDBRANCH  21  22
ENDBRANCH  20  21
ENDBRANCH   6  20
TORSDOF 9
ENDMDL
MODEL 2
REMARK VINA RESULT:      -5.6      1.519      2.129
REMARK  Name = 
REMARK  11 active torsions:
REMARK  status: ('A' for Active; 'I' for Inactive)
REMARK    1  A    between atoms: C_2  and  C_3
REMARK    2  A    between atoms: C_2  and  C_5
REMARK    3  A    between atoms: C_2  and  C_7
REMARK    4  A    between atoms: C_3  and  C_4
REMARK    5  A    between atoms: CA_10  and  C_11
REMARK    6  A    between atoms: C_11  and  O_12
REMARK    7  A    between atoms: C_20  and  O_22
REMARK    8  A    between atoms: O_22  and  C_23
REMARK    9  A    between atoms: C_23  and  C_24
REMARK   10  A    between atoms: C_24  and  C_25
REMARK   11  A    between atoms: C_25  and  C_26
REMARK                            x       y       z     vdW  Elec       q    Type
REMARK                         _______ _______ _______ _____ _____    ______ ____
ROOT
ATOM      1  C   UNL     1       9.386  -2.368  23.104  0.00  0.00    +0.088 C 
ATOM      2  C   UNL     1       7.856  -2.495  23.320  0.00  0.00    +0.040 C 
ATOM      3  C   UNL     1       7.046  -2.570  22.036  0.00  0.00    +0.010 C 
ATOM      4  C   UNL     1       5.603  -2.913  22.375  0.00  0.00    +0.003 C 
ATOM      5  C   UNL     1       5.540  -4.255  23.087  0.00  0.00    +0.036 C 
ATOM      6  C   UNL     1       6.344  -4.304  24.405  0.00  0.00    +0.147 C 
ATOM      7  C   UNL     1       7.716  -3.719  24.217  0.00  0.00    -0.009 C 
ATOM      8  CA  UNL     1       8.910  -3.948  24.801  0.00  0.00    +0.114 C 
ATOM      9  N   UNL     1       9.944  -3.133  24.253  0.00  0.00    -0.334 N 
ATOM     10  H   UNL     1      10.710  -3.747  23.950  0.00  0.00    +0.147 HD
ENDROOT
BRANCH   8  11
ATOM     11  C   UNL     1       9.219  -4.787  26.016  0.00  0.00    +0.351 C 
ATOM     12  OXT UNL     1       8.679  -4.780  27.101  0.00  0.00    -0.244 OA
BRANCH  11  13
ATOM     13  O   UNL     1      10.311  -5.542  25.729  0.00  0.00    -0.476 OA
ATOM     14  H   UNL     1      10.253  -6.374  26.248  0.00  0.00    +0.295 HD
ENDBRANCH  11  13
ENDBRANCH   8  11
BRANCH   1  15
ATOM     15  C   UNL     1       9.945  -0.936  23.077  0.00  0.00    +0.072 C 
BRANCH  15  16
ATOM     16  C   UNL     1       9.735  -0.152  21.765  0.00  0.00    +0.009 C 
ATOM     17  C   UNL     1       9.785   1.361  21.902  0.00  0.00    +0.004 C 
ENDBRANCH  15  16
BRANCH  15  18
ATOM     18  C   UNL     1       9.361  -0.136  24.234  0.00  0.00    +0.228 C 
ATOM     19  O   UNL     1       9.673  -0.293  25.408  0.00  0.00    -0.301 OA
ENDBRANCH  15  18
ENDBRANCH   1  15
BRANCH   6  20
ATOM     20  O   UNL     1       6.405  -5.668  24.841  0.00  0.00    -0.372 OA
BRANCH  20  21
ATOM     21  C   UNL     1       5.478  -5.948  25.893  0.00  0.00    +0.160 C 
BRANCH  21  22
ATOM     22  C   UNL     1       4.408  -6.943  25.457  0.00  0.00    +0.028 C 
BRANCH  22  23
ATOM     23  C   UNL     1       3.064  -6.219  25.319  0.00  0.00    -0.001 C 
ATOM     24  C   UNL     1       3.053  -4.867  26.009  0.00  0.00    +0.004 C 
ENDBRANCH  22  23
ENDBRANCH  21  22
ENDBRANCH  20  21
ENDBRANCH   6  20
TORSDOF 9
ENDMDL
MODEL 3
REMARK VINA RESULT:      -5.4      2.333      5.744
REMARK  Name = 
REMARK  11 active torsions:
REMARK  status: ('A' for Active; 'I' for Inactive)
REMARK    1  A    between atoms: C_2  and  C_3
REMARK    2  A    between atoms: C_2  and  C_5
REMARK    3  A    between atoms: C_2  and  C_7
REMARK    4  A    between atoms: C_3  and  C_4
REMARK    5  A    between atoms: CA_10  and  C_11
REMARK    6  A    between atoms: C_11  and  O_12
REMARK    7  A    between atoms: C_20  and  O_22
REMARK    8  A    between atoms: O_22  and  C_23
REMARK    9  A    between atoms: C_23  and  C_24
REMARK   10  A    between atoms: C_24  and  C_25
REMARK   11  A    between atoms: C_25  and  C_26
REMARK                            x       y       z     vdW  Elec       q    Type
REMARK                         _______ _______ _______ _____ _____    ______ ____
ROOT
ATOM      1  C   UNL     1       7.146  -4.254  23.824  0.00  0.00    +0.088 C 
ATOM      2  C   UNL     1       6.811  -2.975  24.632  0.00  0.00    +0.040 C 
ATOM      3  C   UNL     1       6.650  -3.202  26.126  0.00  0.00    +0.010 C 
ATOM      4  C   UNL     1       6.547  -1.857  26.828  0.00  0.00    +0.003 C 
ATOM      5  C   UNL     1       7.805  -1.040  26.579  0.00  0.00    +0.036 C 
ATOM      6  C   UNL     1       8.082  -0.757  25.086  0.00  0.00    +0.147 C 
ATOM      7  C   UNL     1       7.932  -2.009  24.267  0.00  0.00    -0.009 C 
ATOM      8  CA  UNL     1       8.503  -2.443  23.124  0.00  0.00    +0.114 C 
ATOM      9  N   UNL     1       8.035  -3.737  22.746  0.00  0.00    -0.334 N 
ATOM     10  H   UNL     1       8.851  -4.347  22.617  0.00  0.00    +0.147 HD
ENDROOT
BRANCH   8  11
ATOM     11  C   UNL     1       9.386  -1.687  22.165  0.00  0.00    +0.351 C 
ATOM     12  OXT UNL     1       9.075  -1.076  21.165  0.00  0.00    -0.244 OA
BRANCH  11  13
ATOM     13  O   UNL     1      10.673  -1.864  22.562  0.00  0.00    -0.476 OA
ATOM     14  H   UNL     1      11.186  -1.067  22.305  0.00  0.00    +0.295 HD
ENDBRANCH  11  13
ENDBRANCH   8  11
BRANCH   1  15
ATOM     15  C   UNL     1       5.946  -5.008  23.227  0.00  0.00    +0.072 C 
BRANCH  15  16
ATOM     16  C   UNL     1       4.626  -4.214  23.137  0.00  0.00    +0.009 C 
ATOM     17  C   UNL     1       3.373  -5.006  23.475  0.00  0.00    +0.004 C 
ENDBRANCH  15  16
BRANCH  15  18
ATOM     18  C   UNL     1       6.307  -5.533  21.844  0.00  0.00    +0.228 C 
ATOM     19  O   UNL     1       5.944  -5.017  20.794  0.00  0.00    -0.301 OA
ENDBRANCH  15  18
ENDBRANCH   1  15
BRANCH   6  20
ATOM     20  O   UNL     1       9.399  -0.204  24.972  0.00  0.00    -0.372 OA
BRANCH  20  21
ATOM     21  C   UNL     1       9.381   1.189  24.653  0.00  0.00    +0.160 C 
BRANCH  21  22
ATOM     22  C   UNL     1      10.617   1.607  23.862  0.00  0.00    +0.028 C 
BRANCH  22  23
ATOM     23  C   UNL     1      10.208   1.971  22.431  0.00  0.00    -0.001 C 
ATOM     24  C   UNL     1       8.722   2.255  22.300  0.00  0.00    +0.004 C 
ENDBRANCH  22  23
ENDBRANCH  21  22
ENDBRANCH  20  21
ENDBRANCH   6  20
TORSDOF 9
ENDMDL
MODEL 4
REMARK VINA RESULT:      -5.4      1.940      3.141
REMARK  Name = 
REMARK  11 active torsions:
REMARK  status: ('A' for Active; 'I' for Inactive)
REMARK    1  A    between atoms: C_2  and  C_3
REMARK    2  A    between atoms: C_2  and  C_5
REMARK    3  A    between atoms: C_2  and  C_7
REMARK    4  A    between atoms: C_3  and  C_4
REMARK    5  A    between atoms: CA_10  and  C_11
REMARK    6  A    between atoms: C_11  and  O_12
REMARK    7  A    between atoms: C_20  and  O_22
REMARK    8  A    between atoms: O_22  and  C_23
REMARK    9  A    between atoms: C_23  and  C_24
REMARK   10  A    between atoms: C_24  and  C_25
REMARK   11  A    between atoms: C_25  and  C_26
REMARK                            x       y       z     vdW  Elec       q    Type
REMARK                         _______ _______ _______ _____ _____    ______ ____
ROOT
ATOM      1  C   UNL     1       8.475  -1.759  23.571  0.00  0.00    +0.088 C 
ATOM      2  C   UNL     1       8.685  -3.020  24.447  0.00  0.00    +0.040 C 
ATOM      3  C   UNL     1       8.603  -2.766  25.943  0.00  0.00    +0.010 C 
ATOM      4  C   UNL     1       8.602  -4.098  26.677  0.00  0.00    +0.003 C 
ATOM      5  C   UNL     1       7.407  -4.932  26.244  0.00  0.00    +0.036 C 
ATOM      6  C   UNL     1       7.376  -5.244  24.731  0.00  0.00    +0.147 C 
ATOM      7  C   UNL     1       7.646  -4.004  23.924  0.00  0.00    -0.009 C 
ATOM      8  CA  UNL     1       7.263  -3.595  22.696  0.00  0.00    +0.114 C 
ATOM      9  N   UNL     1       7.775  -2.303  22.374  0.00  0.00    -0.334 N 
ATOM     10  H   UNL     1       6.986  -1.704  22.105  0.00  0.00    +0.147 HD
ENDROOT
BRANCH   8  11
ATOM     11  C   UNL     1       6.550  -4.377  21.622  0.00  0.00    +0.351 C 
ATOM     12  OXT UNL     1       6.824  -5.468  21.169  0.00  0.00    -0.244 OA
BRANCH  11  13
ATOM     13  O   UNL     1       5.541  -3.602  21.148  0.00  0.00    -0.476 OA
ATOM     14  H   UNL     1       4.705  -4.114  21.213  0.00  0.00    +0.295 HD
ENDBRANCH  11  13
ENDBRANCH   8  11
BRANCH   1  15
ATOM     15  C   UNL     1       9.750  -1.003  23.162  0.00  0.00    +0.072 C 
BRANCH  15  16
ATOM     16  C   UNL     1       9.784  -0.466  21.716  0.00  0.00    +0.009 C 
ATOM     17  C   UNL     1       9.353   0.983  21.555  0.00  0.00    +0.004 C 
ENDBRANCH  15  16
BRANCH  15  18
ATOM     18  C   UNL     1       9.994   0.150  24.127  0.00  0.00    +0.228 C 
ATOM     19  O   UNL     1      10.981   0.252  24.844  0.00  0.00    -0.301 OA
ENDBRANCH  15  18
ENDBRANCH   1  15
BRANCH   6  20
ATOM     20  O   UNL     1       6.098  -5.812  24.418  0.00  0.00    -0.372 OA
BRANCH  20  21
ATOM     21  C   UNL     1       5.058  -5.317  25.265  0.00  0.00    +0.160 C 
BRANCH  21  22
ATOM     22  C   UNL     1       4.050  -4.473  24.491  0.00  0.00    +0.028 C 
BRANCH  22  23
ATOM     23  C   UNL     1       3.729  -3.203  25.289  0.00  0.00    -0.001 C 
ATOM     24  C   UNL     1       4.900  -2.241  25.355  0.00  0.00    +0.004 C 
ENDBRANCH  22  23
ENDBRANCH  21  22
ENDBRANCH  20  21
ENDBRANCH   6  20
TORSDOF 9
ENDMDL
MODEL 5
REMARK VINA RESULT:      -5.4      2.087      5.443
REMARK  Name = 
REMARK  11 active torsions:
REMARK  status: ('A' for Active; 'I' for Inactive)
REMARK    1  A    between atoms: C_2  and  C_3
REMARK    2  A    between atoms: C_2  and  C_5
REMARK    3  A    between atoms: C_2  and  C_7
REMARK    4  A    between atoms: C_3  and  C_4
REMARK    5  A    between atoms: CA_10  and  C_11
REMARK    6  A    between atoms: C_11  and  O_12
REMARK    7  A    between atoms: C_20  and  O_22
REMARK    8  A    between atoms: O_22  and  C_23
REMARK    9  A    between atoms: C_23  and  C_24
REMARK   10  A    between atoms: C_24  and  C_25
REMARK   11  A    between atoms: C_25  and  C_26
REMARK                            x       y       z     vdW  Elec       q    Type
REMARK                         _______ _______ _______ _____ _____    ______ ____
ROOT
ATOM      1  C   UNL     1       7.398  -2.884  24.149  0.00  0.00    +0.088 C 
ATOM      2  C   UNL     1       8.776  -2.285  23.767  0.00  0.00    +0.040 C 
ATOM      3  C   UNL     1       8.938  -1.981  22.287  0.00  0.00    +0.010 C 
ATOM      4  C   UNL     1      10.227  -1.202  22.075  0.00  0.00    +0.003 C 
ATOM      5  C   UNL     1      10.182   0.103  22.854  0.00  0.00    +0.036 C 
ATOM      6  C   UNL     1      10.005  -0.082  24.377  0.00  0.00    +0.147 C 
ATOM      7  C   UNL     1       8.907  -1.067  24.672  0.00  0.00    -0.009 C 
ATOM      8  CA  UNL     1       8.042  -1.211  25.697  0.00  0.00    +0.114 C 
ATOM      9  N   UNL     1       7.158  -2.315  25.505  0.00  0.00    -0.334 N 
ATOM     10  H   UNL     1       6.194  -1.973  25.595  0.00  0.00    +0.147 HD
ENDROOT
BRANCH   8  11
ATOM     11  C   UNL     1       8.023  -0.494  27.023  0.00  0.00    +0.351 C 
ATOM     12  OXT UNL     1       7.112   0.111  27.546  0.00  0.00    -0.244 OA
BRANCH  11  13
ATOM     13  O   UNL     1       9.275  -0.557  27.544  0.00  0.00    -0.476 OA
ATOM     14  H   UNL     1       9.832   0.110  27.087  0.00  0.00    +0.295 HD
ENDBRANCH  11  13
ENDBRANCH   8  11
BRANCH   1  15
ATOM     15  C   UNL     1       7.316  -4.420  24.179  0.00  0.00    +0.072 C 
BRANCH  15  16
ATOM     16  C   UNL     1       7.312  -5.123  22.807  0.00  0.00    +0.009 C 
ATOM     17  C   UNL     1       6.194  -4.701  21.868  0.00  0.00    +0.004 C 
ENDBRANCH  15  16
BRANCH  15  18
ATOM     18  C   UNL     1       8.455  -4.977  25.022  0.00  0.00    +0.228 C 
ATOM     19  O   UNL     1       9.399  -5.614  24.571  0.00  0.00    -0.301 OA
ENDBRANCH  15  18
ENDBRANCH   1  15
BRANCH   6  20
ATOM     20  O   UNL     1       9.734   1.202  24.955  0.00  0.00    -0.372 OA
BRANCH  20  21
ATOM     21  C   UNL     1       8.986   2.048  24.079  0.00  0.00    +0.160 C 
BRANCH  21  22
ATOM     22  C   UNL     1       7.664   2.485  24.702  0.00  0.00    +0.028 C 
BRANCH  22  23
ATOM     23  C   UNL     1       6.509   1.738  24.025  0.00  0.00    -0.001 C 
ATOM     24  C   UNL     1       6.822   1.354  22.590  0.00  0.00    +0.004 C 
ENDBRANCH  22  23
ENDBRANCH  21  22
ENDBRANCH  20  21
ENDBRANCH   6  20
TORSDOF 9
ENDMDL
MODEL 6
REMARK VINA RESULT:      -5.3      2.204      6.269
REMARK  Name = 
REMARK  11 active torsions:
REMARK  status: ('A' for Active; 'I' for Inactive)
REMARK    1  A    between atoms: C_2  and  C_3
REMARK    2  A    between atoms: C_2  and  C_5
REMARK    3  A    between atoms: C_2  and  C_7
REMARK    4  A    between atoms: C_3  and  C_4
REMARK    5  A    between atoms: CA_10  and  C_11
REMARK    6  A    between atoms: C_11  and  O_12
REMARK    7  A    between atoms: C_20  and  O_22
REMARK    8  A    between atoms: O_22  and  C_23
REMARK    9  A    between atoms: C_23  and  C_24
REMARK   10  A    between atoms: C_24  and  C_25
REMARK   11  A    between atoms: C_25  and  C_26
REMARK                            x       y       z     vdW  Elec       q    Type
REMARK                         _______ _______ _______ _____ _____    ______ ____
ROOT
ATOM      1  C   UNL     1       5.588  -5.416  25.797  0.00  0.00    +0.088 C 
ATOM      2  C   UNL     1       5.814  -4.982  24.326  0.00  0.00    +0.040 C 
ATOM      3  C   UNL     1       4.785  -3.997  23.798  0.00  0.00    +0.010 C 
ATOM      4  C   UNL     1       5.236  -3.482  22.439  0.00  0.00    +0.003 C 
ATOM      5  C   UNL     1       6.580  -2.783  22.567  0.00  0.00    +0.036 C 
ATOM      6  C   UNL     1       7.708  -3.687  23.111  0.00  0.00    +0.147 C 
ATOM      7  C   UNL     1       7.244  -4.453  24.319  0.00  0.00    -0.009 C 
ATOM      8  CA  UNL     1       7.874  -4.936  25.410  0.00  0.00    +0.114 C 
ATOM      9  N   UNL     1       6.977  -5.591  26.305  0.00  0.00    -0.334 N 
ATOM     10  H   UNL     1       7.086  -5.167  27.234  0.00  0.00    +0.147 HD
ENDROOT
BRANCH   8  11
ATOM     11  C   UNL     1       9.354  -5.014  25.685  0.00  0.00    +0.351 C 
ATOM     12  OXT UNL     1      10.260  -5.234  24.910  0.00  0.00    -0.244 OA
BRANCH  11  13
ATOM     13  O   UNL     1       9.533  -4.875  27.024  0.00  0.00    -0.476 OA
ATOM     14  H   UNL     1       9.173  -5.674  27.467  0.00  0.00    +0.295 HD
ENDBRANCH  11  13
ENDBRANCH   8  11
BRANCH   1  15
ATOM     15  C   UNL     1       4.765  -6.699  26.001  0.00  0.00    +0.072 C 
BRANCH  15  16
ATOM     16  C   UNL     1       3.561  -6.586  26.958  0.00  0.00    +0.009 C 
ATOM     17  C   UNL     1       3.026  -5.177  27.158  0.00  0.00    +0.004 C 
ENDBRANCH  15  16
BRANCH  15  18
ATOM     18  C   UNL     1       4.283  -7.218  24.653  0.00  0.00    +0.228 C 
ATOM     19  O   UNL     1       3.347  -7.995  24.508  0.00  0.00    -0.301 OA
ENDBRANCH  15  18
ENDBRANCH   1  15
BRANCH   6  20
ATOM     20  O   UNL     1       8.839  -2.860  23.411  0.00  0.00    -0.372 OA
BRANCH  20  21
ATOM     21  C   UNL     1       8.717  -1.547  22.859  0.00  0.00    +0.160 C 
BRANCH  21  22
ATOM     22  C   UNL     1      10.067  -0.986  22.424  0.00  0.00    +0.028 C 
BRANCH  22  23
ATOM     23  C   UNL     1      10.239   0.427  22.992  0.00  0.00    -0.001 C 
ATOM     24  C   UNL     1       9.959   1.509  21.966  0.00  0.00    +0.004 C 
ENDBRANCH  22  23
ENDBRANCH  21  22
ENDBRANCH  20  21
ENDBRANCH   6  20
TORSDOF 9
ENDMDL
MODEL 7
REMARK VINA RESULT:      -5.3      2.609      6.433
REMARK  Name = 
REMARK  11 active torsions:
REMARK  status: ('A' for Active; 'I' for Inactive)
REMARK    1  A    between atoms: C_2  and  C_3
REMARK    2  A    between atoms: C_2  and  C_5
REMARK    3  A    between atoms: C_2  and  C_7
REMARK    4  A    between atoms: C_3  and  C_4
REMARK    5  A    between atoms: CA_10  and  C_11
REMARK    6  A    between atoms: C_11  and  O_12
REMARK    7  A    between atoms: C_20  and  O_22
REMARK    8  A    between atoms: O_22  and  C_23
REMARK    9  A    between atoms: C_23  and  C_24
REMARK   10  A    between atoms: C_24  and  C_25
REMARK   11  A    between atoms: C_25  and  C_26
REMARK                            x       y       z     vdW  Elec       q    Type
REMARK                         _______ _______ _______ _____ _____    ______ ____
ROOT
ATOM      1  C   UNL     1       4.308  -5.125  25.136  0.00  0.00    +0.088 C 
ATOM      2  C   UNL     1       5.288  -5.694  24.078  0.00  0.00    +0.040 C 
ATOM      3  C   UNL     1       4.955  -5.312  22.646  0.00  0.00    +0.010 C 
ATOM      4  C   UNL     1       6.099  -5.737  21.737  0.00  0.00    +0.003 C 
ATOM      5  C   UNL     1       7.384  -5.043  22.156  0.00  0.00    +0.036 C 
ATOM      6  C   UNL     1       7.817  -5.347  23.607  0.00  0.00    +0.147 C 
ATOM      7  C   UNL     1       6.654  -5.212  24.551  0.00  0.00    -0.009 C 
ATOM      8  CA  UNL     1       6.550  -4.873  25.853  0.00  0.00    +0.114 C 
ATOM      9  N   UNL     1       5.197  -4.870  26.304  0.00  0.00    -0.334 N 
ATOM     10  H   UNL     1       5.001  -3.954  26.723  0.00  0.00    +0.147 HD
ENDROOT
BRANCH   8  11
ATOM     11  C   UNL     1       7.649  -4.684  26.868  0.00  0.00    +0.351 C 
ATOM     12  OXT UNL     1       8.341  -3.708  27.065  0.00  0.00    -0.244 OA
BRANCH  11  13
ATOM     13  O   UNL     1       7.820  -5.865  27.517  0.00  0.00    -0.476 OA
ATOM     14  H   UNL     1       8.129  -6.531  26.865  0.00  0.00    +0.295 HD
ENDBRANCH  11  13
ENDBRANCH   8  11
BRANCH   1  15
ATOM     15  C   UNL     1       3.136  -6.039  25.530  0.00  0.00    +0.072 C 
BRANCH  15  16
ATOM     16  C   UNL     1       1.818  -5.821  24.759  0.00  0.00    +0.009 C 
ATOM     17  C   UNL     1       1.315  -4.386  24.733  0.00  0.00    +0.004 C 
ENDBRANCH  15  16
BRANCH  15  18
ATOM     18  C   UNL     1       3.557  -7.497  25.395  0.00  0.00    +0.228 C 
ATOM     19  O   UNL     1       2.951  -8.331  24.733  0.00  0.00    -0.301 OA
ENDBRANCH  15  18
ENDBRANCH   1  15
BRANCH   6  20
ATOM     20  O   UNL     1       8.885  -4.456  23.952  0.00  0.00    -0.372 OA
BRANCH  20  21
ATOM     21  C   UNL     1       8.662  -3.127  23.475  0.00  0.00    +0.160 C 
BRANCH  21  22
ATOM     22  C   UNL     1       9.745  -2.164  23.951  0.00  0.00    +0.028 C 
BRANCH  22  23
ATOM     23  C   UNL     1      10.253  -1.339  22.763  0.00  0.00    -0.001 C 
ATOM     24  C   UNL     1       9.236  -1.242  21.640  0.00  0.00    +0.004 C 
ENDBRANCH  22  23
ENDBRANCH  21  22
ENDBRANCH  20  21
ENDBRANCH   6  20
TORSDOF 9
ENDMDL
MODEL 8
REMARK VINA RESULT:      -5.3      2.773      6.108
REMARK  Name = 
REMARK  11 active torsions:
REMARK  status: ('A' for Active; 'I' for Inactive)
REMARK    1  A    between atoms: C_2  and  C_3
REMARK    2  A    between atoms: C_2  and  C_5
REMARK    3  A    between atoms: C_2  and  C_7
REMARK    4  A    between atoms: C_3  and  C_4
REMARK    5  A    between atoms: CA_10  and  C_11
REMARK    6  A    between atoms: C_11  and  O_12
REMARK    7  A    between atoms: C_20  and  O_22
REMARK    8  A    between atoms: O_22  and  C_23
REMARK    9  A    between atoms: C_23  and  C_24
REMARK   10  A    between atoms: C_24  and  C_25
REMARK   11  A    between atoms: C_25  and  C_26
REMARK                            x       y       z     vdW  Elec       q    Type
REMARK                         _______ _______ _______ _____ _____    ______ ____
ROOT
ATOM      1  C   UNL     1       6.695  -2.253  22.489  0.00  0.00    +0.088 C 
ATOM      2  C   UNL     1       8.101  -2.061  23.114  0.00  0.00    +0.040 C 
ATOM      3  C   UNL     1       9.227  -1.943  22.100  0.00  0.00    +0.010 C 
ATOM      4  C   UNL     1      10.506  -1.539  22.818  0.00  0.00    +0.003 C 
ATOM      5  C   UNL     1      10.313  -0.200  23.512  0.00  0.00    +0.036 C 
ATOM      6  C   UNL     1       9.179  -0.195  24.561  0.00  0.00    +0.147 C 
ATOM      7  C   UNL     1       7.937  -0.838  24.008  0.00  0.00    -0.009 C 
ATOM      8  CA  UNL     1       6.620  -0.664  24.243  0.00  0.00    +0.114 C 
ATOM      9  N   UNL     1       5.811  -1.521  23.438  0.00  0.00    -0.334 N 
ATOM     10  H   UNL     1       5.132  -0.939  22.934  0.00  0.00    +0.147 HD
ENDROOT
BRANCH   8  11
ATOM     11  C   UNL     1       5.955   0.152  25.322  0.00  0.00    +0.351 C 
ATOM     12  OXT UNL     1       6.137   0.119  26.520  0.00  0.00    -0.244 OA
BRANCH  11  13
ATOM     13  O   UNL     1       5.004   0.921  24.731  0.00  0.00    -0.476 OA
ATOM     14  H   UNL     1       5.024   1.809  25.150  0.00  0.00    +0.295 HD
ENDBRANCH  11  13
ENDBRANCH   8  11
BRANCH   1  15
ATOM     15  C   UNL     1       6.227  -3.708  22.318  0.00  0.00    +0.072 C 
BRANCH  15  16
ATOM     16  C   UNL     1       7.223  -4.797  22.770  0.00  0.00    +0.009 C 
ATOM     17  C   UNL     1       7.208  -6.070  21.939  0.00  0.00    +0.004 C 
ENDBRANCH  15  16
BRANCH  15  18
ATOM     18  C   UNL     1       4.905  -3.909  23.048  0.00  0.00    +0.228 C 
ATOM     19  O   UNL     1       4.032  -4.691  22.690  0.00  0.00    -0.301 OA
ENDBRANCH  15  18
ENDBRANCH   1  15
BRANCH   6  20
ATOM     20  O   UNL     1       8.942   1.162  24.955  0.00  0.00    -0.372 OA
BRANCH  20  21
ATOM     21  C   UNL     1       9.595   2.102  24.098  0.00  0.00    +0.160 C 
BRANCH  21  22
ATOM     22  C   UNL     1       8.659   3.230  23.675  0.00  0.00    +0.028 C 
BRANCH  22  23
ATOM     23  C   UNL     1       7.544   2.663  22.789  0.00  0.00    -0.001 C 
ATOM     24  C   UNL     1       8.079   1.929  21.573  0.00  0.00    +0.004 C 
ENDBRANCH  22  23
ENDBRANCH  21  22
ENDBRANCH  20  21
ENDBRANCH   6  20
TORSDOF 9
ENDMDL
MODEL 9
REMARK VINA RESULT:      -5.3      2.964      6.795
REMARK  Name = 
REMARK  11 active torsions:
REMARK  status: ('A' for Active; 'I' for Inactive)
REMARK    1  A    between atoms: C_2  and  C_3
REMARK    2  A    between atoms: C_2  and  C_5
REMARK    3  A    between atoms: C_2  and  C_7
REMARK    4  A    between atoms: C_3  and  C_4
REMARK    5  A    between atoms: CA_10  and  C_11
REMARK    6  A    between atoms: C_11  and  O_12
REMARK    7  A    between atoms: C_20  and  O_22
REMARK    8  A    between atoms: O_22  and  C_23
REMARK    9  A    between atoms: C_23  and  C_24
REMARK   10  A    between atoms: C_24  and  C_25
REMARK   11  A    between atoms: C_25  and  C_26
REMARK                            x       y       z     vdW  Elec       q    Type
REMARK                         _______ _______ _______ _____ _____    ______ ____
ROOT
ATOM      1  C   UNL     1       4.679  -6.794  24.933  0.00  0.00    +0.088 C 
ATOM      2  C   UNL     1       5.440  -5.593  25.550  0.00  0.00    +0.040 C 
ATOM      3  C   UNL     1       6.109  -5.891  26.882  0.00  0.00    +0.010 C 
ATOM      4  C   UNL     1       6.997  -4.718  27.269  0.00  0.00    +0.003 C 
ATOM      5  C   UNL     1       8.065  -4.501  26.209  0.00  0.00    +0.036 C 
ATOM      6  C   UNL     1       7.501  -4.202  24.803  0.00  0.00    +0.147 C 
ATOM      7  C   UNL     1       6.406  -5.169  24.449  0.00  0.00    -0.009 C 
ATOM      8  CA  UNL     1       5.959  -5.679  23.282  0.00  0.00    +0.114 C 
ATOM      9  N   UNL     1       4.882  -6.595  23.471  0.00  0.00    -0.334 N 
ATOM     10  H   UNL     1       5.129  -7.479  23.010  0.00  0.00    +0.147 HD
ENDROOT
BRANCH   8  11
ATOM     11  C   UNL     1       6.326  -5.276  21.877  0.00  0.00    +0.351 C 
ATOM     12  OXT UNL     1       5.717  -4.564  21.107  0.00  0.00    -0.244 OA
BRANCH  11  13
ATOM     13  O   UNL     1       7.469  -5.930  21.545  0.00  0.00    -0.476 OA
ATOM     14  H   UNL     1       8.226  -5.326  21.707  0.00  0.00    +0.295 HD
ENDBRANCH  11  13
ENDBRANCH   8  11
BRANCH   1  15
ATOM     15  C   UNL     1       3.181  -6.887  25.270  0.00  0.00    +0.072 C 
BRANCH  15  16
ATOM     16  C   UNL     1       2.507  -5.575  25.720  0.00  0.00    +0.009 C 
ATOM     17  C   UNL     1       1.945  -4.719  24.596  0.00  0.00    +0.004 C 
ENDBRANCH  15  16
BRANCH  15  18
ATOM     18  C   UNL     1       2.423  -7.453  24.076  0.00  0.00    +0.228 C 
ATOM     19  O   UNL     1       2.260  -8.649  23.868  0.00  0.00    -0.301 OA
ENDBRANCH  15  18
ENDBRANCH   1  15
BRANCH   6  20
ATOM     20  O   UNL     1       8.583  -4.261  23.865  0.00  0.00    -0.372 OA
BRANCH  20  21
ATOM     21  C   UNL     1       9.306  -3.031  23.787  0.00  0.00    +0.160 C 
BRANCH  21  22
ATOM     22  C   UNL     1       8.794  -2.142  22.658  0.00  0.00    +0.028 C 
BRANCH  22  23
ATOM     23  C   UNL     1       9.946  -1.285  22.120  0.00  0.00    -0.001 C 
ATOM     24  C   UNL     1       9.464  -0.017  21.440  0.00  0.00    +0.004 C 
ENDBRANCH  22  23
ENDBRANCH  21  22
ENDBRANCH  20  21
ENDBRANCH   6  20
TORSDOF 9
ENDMDL
