MODEL 1
REMARK VINA RESULT:      -7.4      0.000      0.000
REMARK  Name = 
REMARK  5 active torsions:
REMARK  status: ('A' for Active; 'I' for Inactive)
REMARK    1  A    between atoms: C_1  and  S_2
REMARK    2  A    between atoms: S_2  and  C_5
REMARK    3  A    between atoms: C_9  and  C_12
REMARK    4  A    between atoms: N_14  and  C_15
REMARK    5  A    between atoms: C_20  and  C_22
REMARK                            x       y       z     vdW  Elec       q    Type
REMARK                         _______ _______ _______ _____ _____    ______ ____
ROOT
ATOM      1  C   UNL     1       8.243  -2.224  25.121  0.00  0.00    +0.250 C 
ATOM      2  N   UNL     1       8.664  -1.056  25.741  0.00  0.00    -0.281 N 
ATOM      3  H   UNL     1       8.460  -0.944  26.728  0.00  0.00    +0.155 HD
ATOM      4  O   UNL     1       8.312  -2.446  23.913  0.00  0.00    -0.270 OA
ENDROOT
BRANCH   1   8
ATOM      5  C   UNL     1       6.380  -5.066  27.757  0.00  0.00    +0.089 A 
ATOM      6  C   UNL     1       5.782  -3.842  27.478  0.00  0.00    +0.028 A 
ATOM      7  C   UNL     1       6.411  -2.974  26.586  0.00  0.00    +0.016 A 
ATOM      8  C   UNL     1       7.632  -3.310  25.950  0.00  0.00    +0.055 A 
ATOM      9  C   UNL     1       8.189  -4.570  26.211  0.00  0.00    +0.055 A 
ATOM     10 CL   UNL     1       9.676  -5.125  25.529  0.00  0.00    -0.083 Cl
ATOM     11  C   UNL     1       7.558  -5.446  27.108  0.00  0.00    +0.047 A 
BRANCH   5  13
ATOM     12  C   UNL     1       3.898  -5.918  28.678  0.00  0.00    +0.200 C 
ATOM     13  S   UNL     1       5.637  -6.158  28.947  0.00  0.00    -0.006 S 
ATOM     14  O   UNL     1       5.978  -7.513  28.567  0.00  0.00    -0.170 OA
ATOM     15  O   UNL     1       5.969  -5.643  30.262  0.00  0.00    -0.170 OA
ENDBRANCH   5  13
ENDBRANCH   1   8
BRANCH   2  16
ATOM     16  C   UNL     1       9.274   0.050  25.100  0.00  0.00    +0.034 A 
ATOM     17  C   UNL     1       8.489   1.177  24.780  0.00  0.00    +0.034 A 
ATOM     18  C   UNL     1       9.030   2.328  24.139  0.00  0.00    +0.020 A 
ATOM     19  C   UNL     1      10.417   2.313  23.874  0.00  0.00    +0.050 A 
ATOM     20 CL   UNL     1      11.306   3.665  23.250  0.00  0.00    -0.083 Cl
ATOM     21  C   UNL     1      11.196   1.194  24.180  0.00  0.00    +0.022 A 
ATOM     22  C   UNL     1      10.630   0.079  24.785  0.00  0.00    +0.025 A 
BRANCH  18  23
ATOM     23  C   UNL     1       8.150   3.486  23.834  0.00  0.00    +0.072 A 
ATOM     24  N   UNL     1       7.876   4.309  24.881  0.00  0.00    -0.255 NA
ATOM     25  C   UNL     1       7.191   5.450  24.629  0.00  0.00    +0.111 A 
ATOM     26  C   UNL     1       6.759   5.835  23.373  0.00  0.00    +0.020 A 
ATOM     27  C   UNL     1       6.986   4.967  22.318  0.00  0.00    +0.004 A 
ATOM     28  C   UNL     1       7.651   3.766  22.558  0.00  0.00    +0.028 A 
ENDBRANCH  18  23
ENDBRANCH   2  16
TORSDOF 4
ENDMDL
MODEL 2
REMARK VINA RESULT:      -7.2      1.704      1.841
REMARK  Name = 
REMARK  5 active torsions:
REMARK  status: ('A' for Active; 'I' for Inactive)
REMARK    1  A    between atoms: C_1  and  S_2
REMARK    2  A    between atoms: S_2  and  C_5
REMARK    3  A    between atoms: C_9  and  C_12
REMARK    4  A    between atoms: N_14  and  C_15
REMARK    5  A    between atoms: C_20  and  C_22
REMARK                            x       y       z     vdW  Elec       q    Type
REMARK                         _______ _______ _______ _____ _____    ______ ____
ROOT
ATOM      1  C   UNL     1       8.129  -2.221  23.665  0.00  0.00    +0.250 C 
ATOM      2  N   UNL     1       8.386  -1.183  24.548  0.00  0.00    -0.281 N 
ATOM      3  H   UNL     1       7.971  -1.234  25.472  0.00  0.00    +0.155 HD
ATOM      4  O   UNL     1       8.462  -2.239  22.481  0.00  0.00    -0.270 OA
ENDROOT
BRANCH   1   8
ATOM      5  C   UNL     1       5.656  -5.416  25.139  0.00  0.00    +0.089 A 
ATOM      6  C   UNL     1       5.126  -4.399  24.354  0.00  0.00    +0.028 A 
ATOM      7  C   UNL     1       5.981  -3.409  23.869  0.00  0.00    +0.016 A 
ATOM      8  C   UNL     1       7.370  -3.419  24.147  0.00  0.00    +0.055 A 
ATOM      9  C   UNL     1       7.887  -4.482  24.901  0.00  0.00    +0.055 A 
ATOM     10 CL   UNL     1       9.552  -4.633  25.337  0.00  0.00    -0.083 Cl
ATOM     11  C   UNL     1       7.029  -5.480  25.389  0.00  0.00    +0.047 A 
BRANCH   5  13
ATOM     12  C   UNL     1       3.134  -5.710  26.274  0.00  0.00    +0.200 C 
ATOM     13  S   UNL     1       4.576  -6.647  25.830  0.00  0.00    -0.006 S 
ATOM     14  O   UNL     1       4.219  -7.561  24.764  0.00  0.00    -0.170 OA
ATOM     15  O   UNL     1       5.200  -7.127  27.049  0.00  0.00    -0.170 OA
ENDBRANCH   5  13
ENDBRANCH   1   8
BRANCH   2  16
ATOM     16  C   UNL     1       9.102   0.002  24.250  0.00  0.00    +0.034 A 
ATOM     17  C   UNL     1       8.390   1.200  24.039  0.00  0.00    +0.034 A 
ATOM     18  C   UNL     1       9.038   2.432  23.738  0.00  0.00    +0.020 A 
ATOM     19  C   UNL     1      10.449   2.414  23.704  0.00  0.00    +0.050 A 
ATOM     20 CL   UNL     1      11.440   3.826  23.517  0.00  0.00    -0.083 Cl
ATOM     21  C   UNL     1      11.159   1.227  23.902  0.00  0.00    +0.022 A 
ATOM     22  C   UNL     1      10.492   0.038  24.172  0.00  0.00    +0.025 A 
BRANCH  18  23
ATOM     23  C   UNL     1       8.229   3.662  23.532  0.00  0.00    +0.072 A 
ATOM     24  N   UNL     1       8.213   4.536  24.573  0.00  0.00    -0.255 NA
ATOM     25  C   UNL     1       7.603   5.732  24.388  0.00  0.00    +0.111 A 
ATOM     26  C   UNL     1       7.002   6.122  23.205  0.00  0.00    +0.020 A 
ATOM     27  C   UNL     1       6.967   5.207  22.166  0.00  0.00    +0.004 A 
ATOM     28  C   UNL     1       7.550   3.955  22.345  0.00  0.00    +0.028 A 
ENDBRANCH  18  23
ENDBRANCH   2  16
TORSDOF 4
ENDMDL
MODEL 3
REMARK VINA RESULT:      -7.0      2.526      3.549
REMARK  Name = 
REMARK  5 active torsions:
REMARK  status: ('A' for Active; 'I' for Inactive)
REMARK    1  A    between atoms: C_1  and  S_2
REMARK    2  A    between atoms: S_2  and  C_5
REMARK    3  A    between atoms: C_9  and  C_12
REMARK    4  A    between atoms: N_14  and  C_15
REMARK    5  A    between atoms: C_20  and  C_22
REMARK                            x       y       z     vdW  Elec       q    Type
REMARK                         _______ _______ _______ _____ _____    ______ ____
ROOT
ATOM      1  C   UNL     1       7.374  -0.381  23.414  0.00  0.00    +0.250 C 
ATOM      2  N   UNL     1       7.006   0.757  24.116  0.00  0.00    -0.281 N 
ATOM      3  H   UNL     1       6.527   0.633  25.001  0.00  0.00    +0.155 HD
ATOM      4  O   UNL     1       7.850  -0.388  22.279  0.00  0.00    -0.270 OA
ENDROOT
BRANCH   1   8
ATOM      5  C   UNL     1       6.532  -4.068  25.462  0.00  0.00    +0.089 A 
ATOM      6  C   UNL     1       5.515  -3.182  25.127  0.00  0.00    +0.028 A 
ATOM      7  C   UNL     1       5.839  -2.019  24.428  0.00  0.00    +0.016 A 
ATOM      8  C   UNL     1       7.171  -1.725  24.043  0.00  0.00    +0.055 A 
ATOM      9  C   UNL     1       8.171  -2.658  24.351  0.00  0.00    +0.055 A 
ATOM     10 CL   UNL     1       9.840  -2.443  23.965  0.00  0.00    -0.083 Cl
ATOM     11  C   UNL     1       7.847  -3.829  25.053  0.00  0.00    +0.047 A 
BRANCH   5  13
ATOM     12  C   UNL     1       5.315  -4.858  27.835  0.00  0.00    +0.200 C 
ATOM     13  S   UNL     1       6.156  -5.520  26.417  0.00  0.00    -0.006 S 
ATOM     14  O   UNL     1       5.213  -6.311  25.653  0.00  0.00    -0.170 OA
ATOM     15  O   UNL     1       7.419  -6.079  26.858  0.00  0.00    -0.170 OA
ENDBRANCH   5  13
ENDBRANCH   1   8
BRANCH   2  16
ATOM     16  C   UNL     1       7.150   2.092  23.666  0.00  0.00    +0.034 A 
ATOM     17  C   UNL     1       8.340   2.790  23.959  0.00  0.00    +0.034 A 
ATOM     18  C   UNL     1       8.562   4.132  23.538  0.00  0.00    +0.020 A 
ATOM     19  C   UNL     1       7.543   4.730  22.764  0.00  0.00    +0.050 A 
ATOM     20 CL   UNL     1       7.674   6.290  22.016  0.00  0.00    -0.083 Cl
ATOM     21  C   UNL     1       6.359   4.046  22.481  0.00  0.00    +0.022 A 
ATOM     22  C   UNL     1       6.167   2.744  22.927  0.00  0.00    +0.025 A 
BRANCH  18  23
ATOM     23  C   UNL     1       9.841   4.811  23.874  0.00  0.00    +0.072 A 
ATOM     24  N   UNL     1      10.960   4.253  23.340  0.00  0.00    -0.255 NA
ATOM     25  C   UNL     1      12.135   4.908  23.503  0.00  0.00    +0.111 A 
ATOM     26  C   UNL     1      12.267   6.111  24.172  0.00  0.00    +0.020 A 
ATOM     27  C   UNL     1      11.136   6.647  24.766  0.00  0.00    +0.004 A 
ATOM     28  C   UNL     1       9.923   5.971  24.650  0.00  0.00    +0.028 A 
ENDBRANCH  18  23
ENDBRANCH   2  16
TORSDOF 4
ENDMDL
MODEL 4
REMARK VINA RESULT:      -6.7      4.130      9.180
REMARK  Name = 
REMARK  5 active torsions:
REMARK  status: ('A' for Active; 'I' for Inactive)
REMARK    1  A    between atoms: C_1  and  S_2
REMARK    2  A    between atoms: S_2  and  C_5
REMARK    3  A    between atoms: C_9  and  C_12
REMARK    4  A    between atoms: N_14  and  C_15
REMARK    5  A    between atoms: C_20  and  C_22
REMARK                            x       y       z     vdW  Elec       q    Type
REMARK                         _______ _______ _______ _____ _____    ______ ____
ROOT
ATOM      1  C   UNL     1       8.627  -0.239  24.073  0.00  0.00    +0.250 C 
ATOM      2  N   UNL     1       7.392  -0.793  23.768  0.00  0.00    -0.281 N 
ATOM      3  H   UNL     1       6.581  -0.185  23.792  0.00  0.00    +0.155 HD
ATOM      4  O   UNL     1       9.673  -0.872  24.201  0.00  0.00    -0.270 OA
ENDROOT
BRANCH   1   8
ATOM      5  C   UNL     1       8.545   3.994  24.831  0.00  0.00    +0.089 A 
ATOM      6  C   UNL     1       7.965   3.093  25.716  0.00  0.00    +0.028 A 
ATOM      7  C   UNL     1       8.055   1.728  25.441  0.00  0.00    +0.016 A 
ATOM      8  C   UNL     1       8.728   1.239  24.295  0.00  0.00    +0.055 A 
ATOM      9  C   UNL     1       9.346   2.166  23.444  0.00  0.00    +0.055 A 
ATOM     10 CL   UNL     1      10.192   1.734  22.002  0.00  0.00    -0.083 Cl
ATOM     11  C   UNL     1       9.258   3.540  23.718  0.00  0.00    +0.047 A 
BRANCH   5  13
ATOM     12  C   UNL     1       9.399   6.453  23.850  0.00  0.00    +0.200 C 
ATOM     13  S   UNL     1       8.380   5.740  25.119  0.00  0.00    -0.006 S 
ATOM     14  O   UNL     1       7.002   6.097  24.855  0.00  0.00    -0.170 OA
ATOM     15  O   UNL     1       8.993   6.020  26.404  0.00  0.00    -0.170 OA
ENDBRANCH   5  13
ENDBRANCH   1   8
BRANCH   2  16
ATOM     16  C   UNL     1       7.139  -2.164  23.515  0.00  0.00    +0.034 A 
ATOM     17  C   UNL     1       6.794  -3.008  24.591  0.00  0.00    +0.034 A 
ATOM     18  C   UNL     1       6.520  -4.395  24.417  0.00  0.00    +0.020 A 
ATOM     19  C   UNL     1       6.566  -4.888  23.095  0.00  0.00    +0.050 A 
ATOM     20 CL   UNL     1       6.112  -6.500  22.638  0.00  0.00    -0.083 Cl
ATOM     21  C   UNL     1       6.918  -4.058  22.028  0.00  0.00    +0.022 A 
ATOM     22  C   UNL     1       7.199  -2.714  22.238  0.00  0.00    +0.025 A 
BRANCH  18  23
ATOM     23  C   UNL     1       6.156  -5.229  25.592  0.00  0.00    +0.072 A 
ATOM     24  N   UNL     1       6.927  -5.056  26.698  0.00  0.00    -0.255 NA
ATOM     25  C   UNL     1       6.556  -5.691  27.836  0.00  0.00    +0.111 A 
ATOM     26  C   UNL     1       5.438  -6.499  27.945  0.00  0.00    +0.020 A 
ATOM     27  C   UNL     1       4.689  -6.722  26.802  0.00  0.00    +0.004 A 
ATOM     28  C   UNL     1       5.074  -6.115  25.609  0.00  0.00    +0.028 A 
ENDBRANCH  18  23
ENDBRANCH   2  16
TORSDOF 4
ENDMDL
MODEL 5
REMARK VINA RESULT:      -6.7      3.404      3.554
REMARK  Name = 
REMARK  5 active torsions:
REMARK  status: ('A' for Active; 'I' for Inactive)
REMARK    1  A    between atoms: C_1  and  S_2
REMARK    2  A    between atoms: S_2  and  C_5
REMARK    3  A    between atoms: C_9  and  C_12
REMARK    4  A    between atoms: N_14  and  C_15
REMARK    5  A    between atoms: C_20  and  C_22
REMARK                            x       y       z     vdW  Elec       q    Type
REMARK                         _______ _______ _______ _____ _____    ______ ____
ROOT
ATOM      1  C   UNL     1       6.593  -2.721  23.742  0.00  0.00    +0.250 C 
ATOM      2  N   UNL     1       6.903  -1.964  22.622  0.00  0.00    -0.281 N 
ATOM      3  H   UNL     1       6.501  -2.245  21.734  0.00  0.00    +0.155 HD
ATOM      4  O   UNL     1       7.097  -2.575  24.854  0.00  0.00    -0.270 OA
ENDROOT
BRANCH   1   8
ATOM      5  C   UNL     1       3.637  -5.845  23.777  0.00  0.00    +0.089 A 
ATOM      6  C   UNL     1       3.426  -4.646  24.449  0.00  0.00    +0.028 A 
ATOM      7  C   UNL     1       4.401  -3.652  24.372  0.00  0.00    +0.016 A 
ATOM      8  C   UNL     1       5.590  -3.827  23.621  0.00  0.00    +0.055 A 
ATOM      9  C   UNL     1       5.756  -5.026  22.914  0.00  0.00    +0.055 A 
ATOM     10 CL   UNL     1       7.151  -5.398  21.966  0.00  0.00    -0.083 Cl
ATOM     11  C   UNL     1       4.776  -6.028  22.989  0.00  0.00    +0.047 A 
BRANCH   5  13
ATOM     12  C   UNL     1       1.250  -6.487  25.053  0.00  0.00    +0.200 C 
ATOM     13  S   UNL     1       2.445  -7.155  23.920  0.00  0.00    -0.006 S 
ATOM     14  O   UNL     1       1.812  -7.312  22.627  0.00  0.00    -0.170 OA
ATOM     15  O   UNL     1       3.111  -8.269  24.567  0.00  0.00    -0.170 OA
ENDBRANCH   5  13
ENDBRANCH   1   8
BRANCH   2  16
ATOM     16  C   UNL     1       7.813  -0.879  22.580  0.00  0.00    +0.034 A 
ATOM     17  C   UNL     1       7.344   0.421  22.859  0.00  0.00    +0.034 A 
ATOM     18  C   UNL     1       8.197   1.561  22.841  0.00  0.00    +0.020 A 
ATOM     19  C   UNL     1       9.563   1.327  22.571  0.00  0.00    +0.050 A 
ATOM     20 CL   UNL     1      10.798   2.542  22.658  0.00  0.00    -0.083 Cl
ATOM     21  C   UNL     1      10.029   0.042  22.283  0.00  0.00    +0.022 A 
ATOM     22  C   UNL     1       9.164  -1.045  22.289  0.00  0.00    +0.025 A 
BRANCH  18  23
ATOM     23  C   UNL     1       7.642   2.905  23.151  0.00  0.00    +0.072 A 
ATOM     24  N   UNL     1       7.806   3.328  24.432  0.00  0.00    -0.255 NA
ATOM     25  C   UNL     1       7.439   4.596  24.734  0.00  0.00    +0.111 A 
ATOM     26  C   UNL     1       6.916   5.492  23.819  0.00  0.00    +0.020 A 
ATOM     27  C   UNL     1       6.694   5.040  22.529  0.00  0.00    +0.004 A 
ATOM     28  C   UNL     1       7.022   3.726  22.203  0.00  0.00    +0.028 A 
ENDBRANCH  18  23
ENDBRANCH   2  16
TORSDOF 4
ENDMDL
MODEL 6
REMARK VINA RESULT:      -6.6      4.333      9.314
REMARK  Name = 
REMARK  5 active torsions:
REMARK  status: ('A' for Active; 'I' for Inactive)
REMARK    1  A    between atoms: C_1  and  S_2
REMARK    2  A    between atoms: S_2  and  C_5
REMARK    3  A    between atoms: C_9  and  C_12
REMARK    4  A    between atoms: N_14  and  C_15
REMARK    5  A    between atoms: C_20  and  C_22
REMARK                            x       y       z     vdW  Elec       q    Type
REMARK                         _______ _______ _______ _____ _____    ______ ____
ROOT
ATOM      1  C   UNL     1       8.872   0.000  24.021  0.00  0.00    +0.250 C 
ATOM      2  N   UNL     1       7.695  -0.541  23.524  0.00  0.00    -0.281 N 
ATOM      3  H   UNL     1       6.949   0.097  23.273  0.00  0.00    +0.155 HD
ATOM      4  O   UNL     1       9.812  -0.650  24.476  0.00  0.00    -0.270 OA
ENDROOT
BRANCH   1   8
ATOM      5  C   UNL     1       9.734   4.213  24.104  0.00  0.00    +0.089 A 
ATOM      6  C   UNL     1      10.490   3.338  23.332  0.00  0.00    +0.028 A 
ATOM      7  C   UNL     1      10.142   1.988  23.311  0.00  0.00    +0.016 A 
ATOM      8  C   UNL     1       9.037   1.489  24.044  0.00  0.00    +0.055 A 
ATOM      9  C   UNL     1       8.263   2.399  24.776  0.00  0.00    +0.055 A 
ATOM     10 CL   UNL     1       6.895   1.950  25.731  0.00  0.00    -0.083 Cl
ATOM     11  C   UNL     1       8.610   3.759  24.798  0.00  0.00    +0.047 A 
BRANCH   5  13
ATOM     12  C   UNL     1       9.642   6.396  25.825  0.00  0.00    +0.200 C 
ATOM     13  S   UNL     1      10.202   5.925  24.207  0.00  0.00    -0.006 S 
ATOM     14  O   UNL     1      11.649   5.983  24.187  0.00  0.00    -0.170 OA
ATOM     15  O   UNL     1       9.411   6.643  23.225  0.00  0.00    -0.170 OA
ENDBRANCH   5  13
ENDBRANCH   1   8
BRANCH   2  16
ATOM     16  C   UNL     1       7.398  -1.922  23.420  0.00  0.00    +0.034 A 
ATOM     17  C   UNL     1       6.902  -2.605  24.550  0.00  0.00    +0.034 A 
ATOM     18  C   UNL     1       6.576  -3.991  24.523  0.00  0.00    +0.020 A 
ATOM     19  C   UNL     1       6.729  -4.654  23.287  0.00  0.00    +0.050 A 
ATOM     20 CL   UNL     1       6.240  -6.292  22.991  0.00  0.00    -0.083 Cl
ATOM     21  C   UNL     1       7.229  -3.985  22.168  0.00  0.00    +0.022 A 
ATOM     22  C   UNL     1       7.558  -2.636  22.236  0.00  0.00    +0.025 A 
BRANCH  18  23
ATOM     23  C   UNL     1       6.052  -4.650  25.748  0.00  0.00    +0.072 A 
ATOM     24  N   UNL     1       6.991  -5.086  26.629  0.00  0.00    -0.255 NA
ATOM     25  C   UNL     1       6.567  -5.571  27.821  0.00  0.00    +0.111 A 
ATOM     26  C   UNL     1       5.239  -5.645  28.201  0.00  0.00    +0.020 A 
ATOM     27  C   UNL     1       4.281  -5.257  27.279  0.00  0.00    +0.004 A 
ATOM     28  C   UNL     1       4.689  -4.793  26.030  0.00  0.00    +0.028 A 
ENDBRANCH  18  23
ENDBRANCH   2  16
TORSDOF 4
ENDMDL
MODEL 7
REMARK VINA RESULT:      -6.5      4.811      9.268
REMARK  Name = 
REMARK  5 active torsions:
REMARK  status: ('A' for Active; 'I' for Inactive)
REMARK    1  A    between atoms: C_1  and  S_2
REMARK    2  A    between atoms: S_2  and  C_5
REMARK    3  A    between atoms: C_9  and  C_12
REMARK    4  A    between atoms: N_14  and  C_15
REMARK    5  A    between atoms: C_20  and  C_22
REMARK                            x       y       z     vdW  Elec       q    Type
REMARK                         _______ _______ _______ _____ _____    ______ ____
ROOT
ATOM      1  C   UNL     1       8.342   0.061  24.313  0.00  0.00    +0.250 C 
ATOM      2  N   UNL     1       7.544  -0.502  23.328  0.00  0.00    -0.281 N 
ATOM      3  H   UNL     1       7.092   0.124  22.670  0.00  0.00    +0.155 HD
ATOM      4  O   UNL     1       8.854  -0.557  25.245  0.00  0.00    -0.270 OA
ENDROOT
BRANCH   1   8
ATOM      5  C   UNL     1       9.475   4.209  24.226  0.00  0.00    +0.089 A 
ATOM      6  C   UNL     1      10.112   3.272  23.421  0.00  0.00    +0.028 A 
ATOM      7  C   UNL     1       9.678   1.947  23.460  0.00  0.00    +0.016 A 
ATOM      8  C   UNL     1       8.603   1.535  24.287  0.00  0.00    +0.055 A 
ATOM      9  C   UNL     1       7.947   2.509  25.053  0.00  0.00    +0.055 A 
ATOM     10 CL   UNL     1       6.632   2.169  26.120  0.00  0.00    -0.083 Cl
ATOM     11  C   UNL     1       8.381   3.843  25.015  0.00  0.00    +0.047 A 
BRANCH   5  13
ATOM     12  C   UNL     1      11.764   5.726  23.787  0.00  0.00    +0.200 C 
ATOM     13  S   UNL     1      10.057   5.889  24.251  0.00  0.00    -0.006 S 
ATOM     14  O   UNL     1       9.363   6.606  23.201  0.00  0.00    -0.170 OA
ATOM     15  O   UNL     1      10.001   6.339  25.628  0.00  0.00    -0.170 OA
ENDBRANCH   5  13
ENDBRANCH   1   8
BRANCH   2  16
ATOM     16  C   UNL     1       7.221  -1.876  23.207  0.00  0.00    +0.034 A 
ATOM     17  C   UNL     1       5.964  -2.327  23.660  0.00  0.00    +0.034 A 
ATOM     18  C   UNL     1       5.564  -3.691  23.569  0.00  0.00    +0.020 A 
ATOM     19  C   UNL     1       6.475  -4.579  22.956  0.00  0.00    +0.050 A 
ATOM     20 CL   UNL     1       6.128  -6.241  22.599  0.00  0.00    -0.083 Cl
ATOM     21  C   UNL     1       7.725  -4.138  22.516  0.00  0.00    +0.022 A 
ATOM     22  C   UNL     1       8.090  -2.803  22.640  0.00  0.00    +0.025 A 
BRANCH  18  23
ATOM     23  C   UNL     1       4.223  -4.102  24.060  0.00  0.00    +0.072 A 
ATOM     24  N   UNL     1       3.392  -4.633  23.124  0.00  0.00    -0.255 NA
ATOM     25  C   UNL     1       2.210  -5.146  23.543  0.00  0.00    +0.111 A 
ATOM     26  C   UNL     1       1.799  -5.172  24.864  0.00  0.00    +0.020 A 
ATOM     27  C   UNL     1       2.620  -4.577  25.806  0.00  0.00    +0.004 A 
ATOM     28  C   UNL     1       3.822  -4.004  25.396  0.00  0.00    +0.028 A 
ENDBRANCH  18  23
ENDBRANCH   2  16
TORSDOF 4
ENDMDL
MODEL 8
REMARK VINA RESULT:      -6.5      1.943      2.310
REMARK  Name = 
REMARK  5 active torsions:
REMARK  status: ('A' for Active; 'I' for Inactive)
REMARK    1  A    between atoms: C_1  and  S_2
REMARK    2  A    between atoms: S_2  and  C_5
REMARK    3  A    between atoms: C_9  and  C_12
REMARK    4  A    between atoms: N_14  and  C_15
REMARK    5  A    between atoms: C_20  and  C_22
REMARK                            x       y       z     vdW  Elec       q    Type
REMARK                         _______ _______ _______ _____ _____    ______ ____
ROOT
ATOM      1  C   UNL     1       8.283  -1.243  26.190  0.00  0.00    +0.250 C 
ATOM      2  N   UNL     1       8.229  -0.631  24.946  0.00  0.00    -0.281 N 
ATOM      3  H   UNL     1       7.606  -1.028  24.251  0.00  0.00    +0.155 HD
ATOM      4  O   UNL     1       9.073  -0.950  27.086  0.00  0.00    -0.270 OA
ENDROOT
BRANCH   1   8
ATOM      5  C   UNL     1       5.804  -4.695  26.848  0.00  0.00    +0.089 A 
ATOM      6  C   UNL     1       7.190  -4.785  26.894  0.00  0.00    +0.028 A 
ATOM      7  C   UNL     1       7.945  -3.626  26.713  0.00  0.00    +0.016 A 
ATOM      8  C   UNL     1       7.338  -2.364  26.494  0.00  0.00    +0.055 A 
ATOM      9  C   UNL     1       5.938  -2.293  26.499  0.00  0.00    +0.055 A 
ATOM     10 CL   UNL     1       5.047  -0.838  26.234  0.00  0.00    -0.083 Cl
ATOM     11  C   UNL     1       5.176  -3.458  26.682  0.00  0.00    +0.047 A 
BRANCH   5  13
ATOM     12  C   UNL     1       4.669  -6.724  25.321  0.00  0.00    +0.200 C 
ATOM     13  S   UNL     1       4.822  -6.169  27.001  0.00  0.00    -0.006 S 
ATOM     14  O   UNL     1       5.605  -7.140  27.736  0.00  0.00    -0.170 OA
ATOM     15  O   UNL     1       3.510  -5.760  27.466  0.00  0.00    -0.170 OA
ENDBRANCH   5  13
ENDBRANCH   1   8
BRANCH   2  16
ATOM     16  C   UNL     1       9.039   0.448  24.517  0.00  0.00    +0.034 A 
ATOM     17  C   UNL     1       8.436   1.695  24.250  0.00  0.00    +0.034 A 
ATOM     18  C   UNL     1       9.183   2.828  23.819  0.00  0.00    +0.020 A 
ATOM     19  C   UNL     1      10.581   2.662  23.710  0.00  0.00    +0.050 A 
ATOM     20 CL   UNL     1      11.693   3.947  23.360  0.00  0.00    -0.083 Cl
ATOM     21  C   UNL     1      11.181   1.426  23.963  0.00  0.00    +0.022 A 
ATOM     22  C   UNL     1      10.417   0.335  24.362  0.00  0.00    +0.025 A 
BRANCH  18  23
ATOM     23  C   UNL     1       8.489   4.117  23.560  0.00  0.00    +0.072 A 
ATOM     24  N   UNL     1       7.679   4.139  22.469  0.00  0.00    -0.255 NA
ATOM     25  C   UNL     1       6.920   5.242  22.264  0.00  0.00    +0.111 A 
ATOM     26  C   UNL     1       6.911   6.345  23.100  0.00  0.00    +0.020 A 
ATOM     27  C   UNL     1       7.781   6.344  24.177  0.00  0.00    +0.004 A 
ATOM     28  C   UNL     1       8.603   5.239  24.386  0.00  0.00    +0.028 A 
ENDBRANCH  18  23
ENDBRANCH   2  16
TORSDOF 4
ENDMDL
MODEL 9
REMARK VINA RESULT:      -6.5      2.824      3.064
REMARK  Name = 
REMARK  5 active torsions:
REMARK  status: ('A' for Active; 'I' for Inactive)
REMARK    1  A    between atoms: C_1  and  S_2
REMARK    2  A    between atoms: S_2  and  C_5
REMARK    3  A    between atoms: C_9  and  C_12
REMARK    4  A    between atoms: N_14  and  C_15
REMARK    5  A    between atoms: C_20  and  C_22
REMARK                            x       y       z     vdW  Elec       q    Type
REMARK                         _______ _______ _______ _____ _____    ______ ____
ROOT
ATOM      1  C   UNL     1       7.136  -3.013  23.343  0.00  0.00    +0.250 C 
ATOM      2  N   UNL     1       7.416  -2.027  24.277  0.00  0.00    -0.281 N 
ATOM      3  H   UNL     1       6.888  -2.031  25.143  0.00  0.00    +0.155 HD
ATOM      4  O   UNL     1       7.607  -3.063  22.207  0.00  0.00    -0.270 OA
ENDROOT
BRANCH   1   8
ATOM      5  C   UNL     1       4.087  -5.877  24.340  0.00  0.00    +0.089 A 
ATOM      6  C   UNL     1       3.890  -4.935  23.338  0.00  0.00    +0.028 A 
ATOM      7  C   UNL     1       4.927  -4.055  23.028  0.00  0.00    +0.016 A 
ATOM      8  C   UNL     1       6.174  -4.104  23.699  0.00  0.00    +0.055 A 
ATOM      9  C   UNL     1       6.364  -5.094  24.672  0.00  0.00    +0.055 A 
ATOM     10 CL   UNL     1       7.817  -5.278  25.587  0.00  0.00    -0.083 Cl
ATOM     11  C   UNL     1       5.323  -5.982  24.985  0.00  0.00    +0.047 A 
BRANCH   5  13
ATOM     12  C   UNL     1       2.420  -6.485  26.483  0.00  0.00    +0.200 C 
ATOM     13  S   UNL     1       2.756  -6.960  24.804  0.00  0.00    -0.006 S 
ATOM     14  O   UNL     1       1.609  -6.614  23.991  0.00  0.00    -0.170 OA
ATOM     15  O   UNL     1       3.287  -8.310  24.812  0.00  0.00    -0.170 OA
ENDBRANCH   5  13
ENDBRANCH   1   8
BRANCH   2  16
ATOM     16  C   UNL     1       8.312  -0.944  24.098  0.00  0.00    +0.034 A 
ATOM     17  C   UNL     1       7.795   0.332  23.793  0.00  0.00    +0.034 A 
ATOM     18  C   UNL     1       8.631   1.469  23.602  0.00  0.00    +0.020 A 
ATOM     19  C   UNL     1      10.018   1.273  23.778  0.00  0.00    +0.050 A 
ATOM     20 CL   UNL     1      11.195   2.547  23.752  0.00  0.00    -0.083 Cl
ATOM     21  C   UNL     1      10.535   0.008  24.069  0.00  0.00    +0.022 A 
ATOM     22  C   UNL     1       9.691  -1.084  24.227  0.00  0.00    +0.025 A 
BRANCH  18  23
ATOM     23  C   UNL     1       8.023   2.789  23.289  0.00  0.00    +0.072 A 
ATOM     24  N   UNL     1       7.095   2.788  22.295  0.00  0.00    -0.255 NA
ATOM     25  C   UNL     1       6.414   3.935  22.062  0.00  0.00    +0.111 A 
ATOM     26  C   UNL     1       6.598   5.106  22.775  0.00  0.00    +0.020 A 
ATOM     27  C   UNL     1       7.584   5.122  23.746  0.00  0.00    +0.004 A 
ATOM     28  C   UNL     1       8.329   3.967  23.978  0.00  0.00    +0.028 A 
ENDBRANCH  18  23
ENDBRANCH   2  16
TORSDOF 4
ENDMDL
