MODEL 1
REMARK VINA RESULT:      -5.0      0.000      0.000
REMARK  Name = 
REMARK  4 active torsions:
REMARK  status: ('A' for Active; 'I' for Inactive)
REMARK    1  A    between atoms: O_1  and  C_2
REMARK    2  A    between atoms: C_2  and  C_4
REMARK    3  A    between atoms: C_7  and  O_8
REMARK    4  A    between atoms: C_10  and  O_11
REMARK                            x       y       z     vdW  Elec       q    Type
REMARK                         _______ _______ _______ _____ _____    ______ ____
ROOT
ATOM      1  C   UNL     1       9.637  -1.136  23.694  0.00  0.00    +0.100 A 
ATOM      2  C   UNL     1       9.960   0.074  24.323  0.00  0.00    +0.134 A 
ATOM      3  C   UNL     1      10.140   1.237  23.572  0.00  0.00    +0.091 A 
ATOM      4  C   UNL     1       9.988   1.190  22.193  0.00  0.00    +0.120 A 
ATOM      5  C   UNL     1       9.651   0.005  21.547  0.00  0.00    +0.046 A 
ATOM      6  C   UNL     1       9.486  -1.161  22.299  0.00  0.00    +0.022 A 
ENDROOT
BRANCH   1   7
ATOM      7  C   UNL     1       9.460  -2.422  24.425  0.00  0.00    +0.340 C 
ATOM      8  O   UNL     1      10.059  -3.439  24.113  0.00  0.00    -0.245 OA
BRANCH   7   9
ATOM      9  O   UNL     1       8.540  -2.384  25.410  0.00  0.00    -0.477 OA
ATOM     10  H   UNL     1       8.759  -3.001  26.143  0.00  0.00    +0.295 HD
ENDBRANCH   7   9
ENDBRANCH   1   7
BRANCH   2  11
ATOM     11  O   UNL     1      10.092   0.123  25.686  0.00  0.00    -0.506 OA
ATOM     12  H   UNL     1       9.335  -0.348  26.084  0.00  0.00    +0.292 HD
ENDBRANCH   2  11
BRANCH   4  13
ATOM     13  O   UNL     1      10.170   2.348  21.497  0.00  0.00    -0.507 OA
ATOM     14  H   UNL     1       9.890   2.211  20.576  0.00  0.00    +0.292 HD
ENDBRANCH   4  13
TORSDOF 4
ENDMDL
MODEL 2
REMARK VINA RESULT:      -5.0      1.549      2.395
REMARK  Name = 
REMARK  4 active torsions:
REMARK  status: ('A' for Active; 'I' for Inactive)
REMARK    1  A    between atoms: O_1  and  C_2
REMARK    2  A    between atoms: C_2  and  C_4
REMARK    3  A    between atoms: C_7  and  O_8
REMARK    4  A    between atoms: C_10  and  O_11
REMARK                            x       y       z     vdW  Elec       q    Type
REMARK                         _______ _______ _______ _____ _____    ______ ____
ROOT
ATOM      1  C   UNL     1       9.810  -0.752  23.208  0.00  0.00    +0.100 A 
ATOM      2  C   UNL     1       9.743  -0.053  21.995  0.00  0.00    +0.134 A 
ATOM      3  C   UNL     1       9.997   1.319  21.952  0.00  0.00    +0.091 A 
ATOM      4  C   UNL     1      10.326   1.989  23.122  0.00  0.00    +0.120 A 
ATOM      5  C   UNL     1      10.415   1.315  24.336  0.00  0.00    +0.046 A 
ATOM      6  C   UNL     1      10.146  -0.055  24.379  0.00  0.00    +0.022 A 
ENDROOT
BRANCH   1   7
ATOM      7  C   UNL     1       9.523  -2.208  23.335  0.00  0.00    +0.340 C 
ATOM      8  O   UNL     1      10.299  -2.983  23.872  0.00  0.00    -0.245 OA
BRANCH   7   9
ATOM      9  O   UNL     1       8.374  -2.606  22.752  0.00  0.00    -0.477 OA
ATOM     10  H   UNL     1       7.622  -2.013  22.975  0.00  0.00    +0.295 HD
ENDBRANCH   7   9
ENDBRANCH   1   7
BRANCH   2  11
ATOM     11  O   UNL     1       9.437  -0.719  20.836  0.00  0.00    -0.506 OA
ATOM     12  H   UNL     1      10.263  -0.851  20.332  0.00  0.00    +0.292 HD
ENDBRANCH   2  11
BRANCH   4  13
ATOM     13  O   UNL     1      10.569   3.328  23.038  0.00  0.00    -0.507 OA
ATOM     14  H   UNL     1      10.470   3.611  22.113  0.00  0.00    +0.292 HD
ENDBRANCH   4  13
TORSDOF 4
ENDMDL
MODEL 3
REMARK VINA RESULT:      -4.8      0.978      3.939
REMARK  Name = 
REMARK  4 active torsions:
REMARK  status: ('A' for Active; 'I' for Inactive)
REMARK    1  A    between atoms: O_1  and  C_2
REMARK    2  A    between atoms: C_2  and  C_4
REMARK    3  A    between atoms: C_7  and  O_8
REMARK    4  A    between atoms: C_10  and  O_11
REMARK                            x       y       z     vdW  Elec       q    Type
REMARK                         _______ _______ _______ _____ _____    ______ ____
ROOT
ATOM      1  C   UNL     1      10.021   0.497  22.949  0.00  0.00    +0.100 A 
ATOM      2  C   UNL     1      10.050  -0.014  24.253  0.00  0.00    +0.134 A 
ATOM      3  C   UNL     1       9.788  -1.365  24.491  0.00  0.00    +0.091 A 
ATOM      4  C   UNL     1       9.506  -2.204  23.422  0.00  0.00    +0.120 A 
ATOM      5  C   UNL     1       9.488  -1.724  22.116  0.00  0.00    +0.046 A 
ATOM      6  C   UNL     1       9.736  -0.369  21.882  0.00  0.00    +0.022 A 
ENDROOT
BRANCH   1   7
ATOM      7  C   UNL     1      10.261   1.931  22.622  0.00  0.00    +0.340 C 
ATOM      8  O   UNL     1      10.757   2.709  23.422  0.00  0.00    -0.245 OA
BRANCH   7   9
ATOM      9  O   UNL     1       9.825   2.308  21.403  0.00  0.00    -0.477 OA
ATOM     10  H   UNL     1       8.964   1.895  21.175  0.00  0.00    +0.295 HD
ENDBRANCH   7   9
ENDBRANCH   1   7
BRANCH   2  11
ATOM     11  O   UNL     1      10.347   0.811  25.306  0.00  0.00    -0.506 OA
ATOM     12  H   UNL     1      10.522   0.255  26.090  0.00  0.00    +0.292 HD
ENDBRANCH   2  11
BRANCH   4  13
ATOM     13  O   UNL     1       9.258  -3.516  23.695  0.00  0.00    -0.507 OA
ATOM     14  H   UNL     1       9.915  -4.066  23.237  0.00  0.00    +0.292 HD
ENDBRANCH   4  13
TORSDOF 4
ENDMDL
MODEL 4
REMARK VINA RESULT:      -4.7      1.932      3.960
REMARK  Name = 
REMARK  4 active torsions:
REMARK  status: ('A' for Active; 'I' for Inactive)
REMARK    1  A    between atoms: O_1  and  C_2
REMARK    2  A    between atoms: C_2  and  C_4
REMARK    3  A    between atoms: C_7  and  O_8
REMARK    4  A    between atoms: C_10  and  O_11
REMARK                            x       y       z     vdW  Elec       q    Type
REMARK                         _______ _______ _______ _____ _____    ______ ____
ROOT
ATOM      1  C   UNL     1       9.609   1.851  23.354  0.00  0.00    +0.100 A 
ATOM      2  C   UNL     1      10.117   0.725  24.015  0.00  0.00    +0.134 A 
ATOM      3  C   UNL     1      10.227  -0.499  23.352  0.00  0.00    +0.091 A 
ATOM      4  C   UNL     1       9.836  -0.591  22.023  0.00  0.00    +0.120 A 
ATOM      5  C   UNL     1       9.343   0.515  21.339  0.00  0.00    +0.046 A 
ATOM      6  C   UNL     1       9.220   1.735  22.010  0.00  0.00    +0.022 A 
ENDROOT
BRANCH   1   7
ATOM      7  C   UNL     1       9.434   3.179  24.006  0.00  0.00    +0.340 C 
ATOM      8  O   UNL     1       8.770   3.327  25.019  0.00  0.00    -0.245 OA
BRANCH   7   9
ATOM      9  O   UNL     1      10.012   4.205  23.350  0.00  0.00    -0.477 OA
ATOM     10  H   UNL     1      10.264   3.962  22.432  0.00  0.00    +0.295 HD
ENDBRANCH   7   9
ENDBRANCH   1   7
BRANCH   2  11
ATOM     11  O   UNL     1      10.521   0.822  25.322  0.00  0.00    -0.506 OA
ATOM     12  H   UNL     1      11.470   1.056  25.332  0.00  0.00    +0.292 HD
ENDBRANCH   2  11
BRANCH   4  13
ATOM     13  O   UNL     1       9.961  -1.803  21.410  0.00  0.00    -0.507 OA
ATOM     14  H   UNL     1      10.245  -1.665  20.491  0.00  0.00    +0.292 HD
ENDBRANCH   4  13
TORSDOF 4
ENDMDL
MODEL 5
REMARK VINA RESULT:      -4.7      1.638      2.089
REMARK  Name = 
REMARK  4 active torsions:
REMARK  status: ('A' for Active; 'I' for Inactive)
REMARK    1  A    between atoms: O_1  and  C_2
REMARK    2  A    between atoms: C_2  and  C_4
REMARK    3  A    between atoms: C_7  and  O_8
REMARK    4  A    between atoms: C_10  and  O_11
REMARK                            x       y       z     vdW  Elec       q    Type
REMARK                         _______ _______ _______ _____ _____    ______ ____
ROOT
ATOM      1  C   UNL     1       9.771   0.137  23.057  0.00  0.00    +0.100 A 
ATOM      2  C   UNL     1      10.028   0.966  24.157  0.00  0.00    +0.134 A 
ATOM      3  C   UNL     1       9.708   2.325  24.110  0.00  0.00    +0.091 A 
ATOM      4  C   UNL     1       9.123   2.849  22.966  0.00  0.00    +0.120 A 
ATOM      5  C   UNL     1       8.843   2.044  21.867  0.00  0.00    +0.046 A 
ATOM      6  C   UNL     1       9.178   0.688  21.910  0.00  0.00    +0.022 A 
ENDROOT
BRANCH   1   7
ATOM      7  C   UNL     1      10.112  -1.313  23.022  0.00  0.00    +0.340 C 
ATOM      8  O   UNL     1      10.027  -2.028  24.008  0.00  0.00    -0.245 OA
BRANCH   7   9
ATOM      9  O   UNL     1      10.584  -1.750  21.837  0.00  0.00    -0.477 OA
ATOM     10  H   UNL     1      10.615  -1.034  21.166  0.00  0.00    +0.295 HD
ENDBRANCH   7   9
ENDBRANCH   1   7
BRANCH   2  11
ATOM     11  O   UNL     1      10.587   0.443  25.293  0.00  0.00    -0.506 OA
ATOM     12  H   UNL     1       9.934  -0.150  25.711  0.00  0.00    +0.292 HD
ENDBRANCH   2  11
BRANCH   4  13
ATOM     13  O   UNL     1       8.824   4.180  22.962  0.00  0.00    -0.507 OA
ATOM     14  H   UNL     1       8.493   4.427  22.082  0.00  0.00    +0.292 HD
ENDBRANCH   4  13
TORSDOF 4
ENDMDL
MODEL 6
REMARK VINA RESULT:      -4.6      5.198      6.404
REMARK  Name = 
REMARK  4 active torsions:
REMARK  status: ('A' for Active; 'I' for Inactive)
REMARK    1  A    between atoms: O_1  and  C_2
REMARK    2  A    between atoms: C_2  and  C_4
REMARK    3  A    between atoms: C_7  and  O_8
REMARK    4  A    between atoms: C_10  and  O_11
REMARK                            x       y       z     vdW  Elec       q    Type
REMARK                         _______ _______ _______ _____ _____    ______ ____
ROOT
ATOM      1  C   UNL     1       7.189  -5.273  25.469  0.00  0.00    +0.100 A 
ATOM      2  C   UNL     1       7.770  -5.054  24.214  0.00  0.00    +0.134 A 
ATOM      3  C   UNL     1       7.048  -5.301  23.044  0.00  0.00    +0.091 A 
ATOM      4  C   UNL     1       5.741  -5.759  23.134  0.00  0.00    +0.120 A 
ATOM      5  C   UNL     1       5.135  -5.968  24.369  0.00  0.00    +0.046 A 
ATOM      6  C   UNL     1       5.865  -5.734  25.538  0.00  0.00    +0.022 A 
ENDROOT
BRANCH   1   7
ATOM      7  C   UNL     1       7.907  -5.060  26.757  0.00  0.00    +0.340 C 
ATOM      8  O   UNL     1       8.693  -4.140  26.923  0.00  0.00    -0.245 OA
BRANCH   7   9
ATOM      9  O   UNL     1       7.671  -6.001  27.693  0.00  0.00    -0.477 OA
ATOM     10  H   UNL     1       6.830  -6.482  27.529  0.00  0.00    +0.295 HD
ENDBRANCH   7   9
ENDBRANCH   1   7
BRANCH   2  11
ATOM     11  O   UNL     1       9.055  -4.583  24.126  0.00  0.00    -0.506 OA
ATOM     12  H   UNL     1       9.030  -3.610  24.201  0.00  0.00    +0.292 HD
ENDBRANCH   2  11
BRANCH   4  13
ATOM     13  O   UNL     1       5.069  -5.986  21.970  0.00  0.00    -0.507 OA
ATOM     14  H   UNL     1       4.705  -5.145  21.645  0.00  0.00    +0.292 HD
ENDBRANCH   4  13
TORSDOF 4
ENDMDL
MODEL 7
REMARK VINA RESULT:      -4.6      1.577      4.620
REMARK  Name = 
REMARK  4 active torsions:
REMARK  status: ('A' for Active; 'I' for Inactive)
REMARK    1  A    between atoms: O_1  and  C_2
REMARK    2  A    between atoms: C_2  and  C_4
REMARK    3  A    between atoms: C_7  and  O_8
REMARK    4  A    between atoms: C_10  and  O_11
REMARK                            x       y       z     vdW  Elec       q    Type
REMARK                         _______ _______ _______ _____ _____    ______ ____
ROOT
ATOM      1  C   UNL     1      10.334   1.907  23.303  0.00  0.00    +0.100 A 
ATOM      2  C   UNL     1       9.669   1.255  22.257  0.00  0.00    +0.134 A 
ATOM      3  C   UNL     1       9.497  -0.130  22.280  0.00  0.00    +0.091 A 
ATOM      4  C   UNL     1       9.984  -0.860  23.355  0.00  0.00    +0.120 A 
ATOM      5  C   UNL     1      10.634  -0.235  24.414  0.00  0.00    +0.046 A 
ATOM      6  C   UNL     1      10.818   1.150  24.382  0.00  0.00    +0.022 A 
ENDROOT
BRANCH   1   7
ATOM      7  C   UNL     1      10.581   3.376  23.332  0.00  0.00    +0.340 C 
ATOM      8  O   UNL     1      11.698   3.848  23.479  0.00  0.00    -0.245 OA
BRANCH   7   9
ATOM      9  O   UNL     1       9.469   4.133  23.251  0.00  0.00    -0.477 OA
ATOM     10  H   UNL     1       8.654   3.610  23.412  0.00  0.00    +0.295 HD
ENDBRANCH   7   9
ENDBRANCH   1   7
BRANCH   2  11
ATOM     11  O   UNL     1       9.171   1.979  21.205  0.00  0.00    -0.506 OA
ATOM     12  H   UNL     1       8.205   2.065  21.321  0.00  0.00    +0.292 HD
ENDBRANCH   2  11
BRANCH   4  13
ATOM     13  O   UNL     1       9.794  -2.210  23.341  0.00  0.00    -0.507 OA
ATOM     14  H   UNL     1       9.314  -2.455  22.532  0.00  0.00    +0.292 HD
ENDBRANCH   4  13
TORSDOF 4
ENDMDL
MODEL 8
REMARK VINA RESULT:      -4.5      1.916      2.417
REMARK  Name = 
REMARK  4 active torsions:
REMARK  status: ('A' for Active; 'I' for Inactive)
REMARK    1  A    between atoms: O_1  and  C_2
REMARK    2  A    between atoms: C_2  and  C_4
REMARK    3  A    between atoms: C_7  and  O_8
REMARK    4  A    between atoms: C_10  and  O_11
REMARK                            x       y       z     vdW  Elec       q    Type
REMARK                         _______ _______ _______ _____ _____    ______ ____
ROOT
ATOM      1  C   UNL     1       8.483  -1.392  22.740  0.00  0.00    +0.100 A 
ATOM      2  C   UNL     1       9.596  -0.892  22.051  0.00  0.00    +0.134 A 
ATOM      3  C   UNL     1       9.635   0.442  21.639  0.00  0.00    +0.091 A 
ATOM      4  C   UNL     1       8.562   1.275  21.925  0.00  0.00    +0.120 A 
ATOM      5  C   UNL     1       7.453   0.807  22.621  0.00  0.00    +0.046 A 
ATOM      6  C   UNL     1       7.410  -0.532  23.020  0.00  0.00    +0.022 A 
ENDROOT
BRANCH   1   7
ATOM      7  C   UNL     1       8.358  -2.809  23.183  0.00  0.00    +0.340 C 
ATOM      8  O   UNL     1       7.322  -3.444  23.059  0.00  0.00    -0.245 OA
BRANCH   7   9
ATOM      9  O   UNL     1       9.456  -3.306  23.787  0.00  0.00    -0.477 OA
ATOM     10  H   UNL     1       9.331  -3.403  24.757  0.00  0.00    +0.295 HD
ENDBRANCH   7   9
ENDBRANCH   1   7
BRANCH   2  11
ATOM     11  O   UNL     1      10.663  -1.711  21.786  0.00  0.00    -0.506 OA
ATOM     12  H   UNL     1      11.331  -1.194  21.295  0.00  0.00    +0.292 HD
ENDBRANCH   2  11
BRANCH   4  13
ATOM     13  O   UNL     1       8.639   2.571  21.508  0.00  0.00    -0.507 OA
ATOM     14  H   UNL     1       8.882   3.133  22.263  0.00  0.00    +0.292 HD
ENDBRANCH   4  13
TORSDOF 4
ENDMDL
MODEL 9
REMARK VINA RESULT:      -4.4      1.226      2.278
REMARK  Name = 
REMARK  4 active torsions:
REMARK  status: ('A' for Active; 'I' for Inactive)
REMARK    1  A    between atoms: O_1  and  C_2
REMARK    2  A    between atoms: C_2  and  C_4
REMARK    3  A    between atoms: C_7  and  O_8
REMARK    4  A    between atoms: C_10  and  O_11
REMARK                            x       y       z     vdW  Elec       q    Type
REMARK                         _______ _______ _______ _____ _____    ______ ____
ROOT
ATOM      1  C   UNL     1       9.371  -0.176  24.824  0.00  0.00    +0.100 A 
ATOM      2  C   UNL     1       9.880  -0.726  23.641  0.00  0.00    +0.134 A 
ATOM      3  C   UNL     1      10.169   0.091  22.546  0.00  0.00    +0.091 A 
ATOM      4  C   UNL     1       9.956   1.459  22.640  0.00  0.00    +0.120 A 
ATOM      5  C   UNL     1       9.467   2.032  23.810  0.00  0.00    +0.046 A 
ATOM      6  C   UNL     1       9.164   1.210  24.899  0.00  0.00    +0.022 A 
ENDROOT
BRANCH   1   7
ATOM      7  C   UNL     1       9.011  -0.988  26.020  0.00  0.00    +0.340 C 
ATOM      8  O   UNL     1       8.545  -2.113  25.931  0.00  0.00    -0.245 OA
BRANCH   7   9
ATOM      9  O   UNL     1       9.180  -0.356  27.199  0.00  0.00    -0.477 OA
ATOM     10  H   UNL     1       8.324  -0.102  27.608  0.00  0.00    +0.295 HD
ENDBRANCH   7   9
ENDBRANCH   1   7
BRANCH   2  11
ATOM     11  O   UNL     1      10.108  -2.075  23.554  0.00  0.00    -0.506 OA
ATOM     12  H   UNL     1      10.477  -2.378  24.406  0.00  0.00    +0.292 HD
ENDBRANCH   2  11
BRANCH   4  13
ATOM     13  O   UNL     1      10.253   2.222  21.550  0.00  0.00    -0.507 OA
ATOM     14  H   UNL     1      10.980   1.805  21.059  0.00  0.00    +0.292 HD
ENDBRANCH   4  13
TORSDOF 4
ENDMDL
