MODEL 1
REMARK VINA RESULT:      -8.5      0.000      0.000
REMARK  Name = 
REMARK  6 active torsions:
REMARK  status: ('A' for Active; 'I' for Inactive)
REMARK    1  A    between atoms: C_1  and  C_2
REMARK    2  A    between atoms: C_2  and  C_3
REMARK    3  A    between atoms: C_2  and  N_4
REMARK    4  A    between atoms: N_6  and  C_7
REMARK    5  A    between atoms: C_18  and  O_19
REMARK    6  A    between atoms: O_19  and  C_20
REMARK                            x       y       z     vdW  Elec       q    Type
REMARK                         _______ _______ _______ _____ _____    ______ ____
ROOT
ATOM      1  N   UNL     1       8.425  -3.532  24.113  0.00  0.00    -0.294 N 
ATOM      2  C   UNL     1       7.231  -3.991  23.584  0.00  0.00    +0.169 A 
ATOM      3  C   UNL     1       6.889  -3.060  22.620  0.00  0.00    +0.128 A 
ATOM      4  C   UNL     1       5.699  -3.259  21.934  0.00  0.00    +0.147 A 
ATOM      5  N   UNL     1       4.956  -4.359  22.193  0.00  0.00    -0.201 NA
ATOM      6  C   UNL     1       5.389  -5.197  23.166  0.00  0.00    +0.326 A 
ATOM      7  N   UNL     1       7.826  -2.088  22.518  0.00  0.00    -0.211 NA
ATOM      8  N   UNL     1       6.518  -5.085  23.903  0.00  0.00    -0.175 NA
ATOM      9  C   UNL     1       8.773  -2.390  23.386  0.00  0.00    +0.202 A 
ATOM     10  N   UNL     1       9.910  -1.688  23.611  0.00  0.00    -0.283 N 
ATOM     11  H   UNL     1      10.597  -1.995  24.293  0.00  0.00    +0.155 HD
ENDROOT
BRANCH  10  12
ATOM     12  C   UNL     1      10.087  -0.317  23.289  0.00  0.00    +0.069 A 
ATOM     13  C   UNL     1      10.370   0.594  24.320  0.00  0.00    +0.144 A 
ATOM     14  F   UNL     1      10.551   0.132  25.568  0.00  0.00    -0.204 F 
ATOM     15  C   UNL     1      10.430   1.968  24.096  0.00  0.00    +0.040 A 
ATOM     16  C   UNL     1      10.210   2.467  22.814  0.00  0.00    +0.003 A 
ATOM     17  C   UNL     1       9.955   1.588  21.768  0.00  0.00    +0.002 A 
ATOM     18  C   UNL     1       9.902   0.207  22.003  0.00  0.00    +0.026 A 
ENDBRANCH  10  12
BRANCH   1  20
ATOM     19  C   UNL     1       8.473  -3.840  26.582  0.00  0.00    +0.031 C 
ATOM     20  C   UNL     1       9.182  -4.085  25.239  0.00  0.00    +0.086 C 
ATOM     21  C   UNL     1       9.520  -5.580  25.155  0.00  0.00    +0.031 C 
ENDBRANCH   1  20
BRANCH   6  22
ATOM     22  O   UNL     1       4.682  -6.370  23.383  0.00  0.00    -0.418 OA
BRANCH  22  23
ATOM     23  C   UNL     1       3.709  -6.386  24.353  0.00  0.00    +0.202 A 
ATOM     24  C   UNL     1       3.934  -6.730  25.688  0.00  0.00    +0.168 A 
ATOM     25  F   UNL     1       5.172  -6.986  26.136  0.00  0.00    -0.202 F 
ATOM     26  C   UNL     1       2.870  -6.867  26.583  0.00  0.00    +0.042 A 
ATOM     27  C   UNL     1       1.558  -6.684  26.147  0.00  0.00    +0.006 A 
ATOM     28  C   UNL     1       1.321  -6.337  24.816  0.00  0.00    +0.042 A 
ATOM     29  C   UNL     1       2.394  -6.191  23.937  0.00  0.00    +0.168 A 
ATOM     30  F   UNL     1       2.133  -5.878  22.657  0.00  0.00    -0.202 F 
ENDBRANCH  22  23
ENDBRANCH   6  22
TORSDOF 4
ENDMDL
MODEL 2
REMARK VINA RESULT:      -8.2      3.326      5.227
REMARK  Name = 
REMARK  6 active torsions:
REMARK  status: ('A' for Active; 'I' for Inactive)
REMARK    1  A    between atoms: C_1  and  C_2
REMARK    2  A    between atoms: C_2  and  C_3
REMARK    3  A    between atoms: C_2  and  N_4
REMARK    4  A    between atoms: N_6  and  C_7
REMARK    5  A    between atoms: C_18  and  O_19
REMARK    6  A    between atoms: O_19  and  C_20
REMARK                            x       y       z     vdW  Elec       q    Type
REMARK                         _______ _______ _______ _____ _____    ______ ____
ROOT
ATOM      1  N   UNL     1       8.360   0.668  25.109  0.00  0.00    -0.294 N 
ATOM      2  C   UNL     1       8.973  -0.393  24.466  0.00  0.00    +0.169 A 
ATOM      3  C   UNL     1       9.588   0.168  23.361  0.00  0.00    +0.128 A 
ATOM      4  C   UNL     1      10.269  -0.687  22.506  0.00  0.00    +0.147 A 
ATOM      5  N   UNL     1      10.347  -2.004  22.804  0.00  0.00    -0.201 NA
ATOM      6  C   UNL     1       9.698  -2.441  23.910  0.00  0.00    +0.326 A 
ATOM      7  N   UNL     1       9.406   1.509  23.324  0.00  0.00    -0.211 NA
ATOM      8  N   UNL     1       8.994  -1.697  24.794  0.00  0.00    -0.175 NA
ATOM      9  C   UNL     1       8.702   1.820  24.395  0.00  0.00    +0.202 A 
ATOM     10  N   UNL     1       8.300   3.063  24.760  0.00  0.00    -0.283 N 
ATOM     11  H   UNL     1       7.767   3.220  25.610  0.00  0.00    +0.155 HD
ENDROOT
BRANCH  10  12
ATOM     12  C   UNL     1       8.182   4.163  23.872  0.00  0.00    +0.069 A 
ATOM     13  C   UNL     1       9.038   5.264  24.033  0.00  0.00    +0.144 A 
ATOM     14  F   UNL     1      10.003   5.209  24.967  0.00  0.00    -0.204 F 
ATOM     15  C   UNL     1       8.896   6.429  23.282  0.00  0.00    +0.040 A 
ATOM     16  C   UNL     1       7.878   6.516  22.334  0.00  0.00    +0.003 A 
ATOM     17  C   UNL     1       7.031   5.433  22.132  0.00  0.00    +0.002 A 
ATOM     18  C   UNL     1       7.187   4.264  22.889  0.00  0.00    +0.026 A 
ENDBRANCH  10  12
BRANCH   1  20
ATOM     19  C   UNL     1       6.068   0.147  25.924  0.00  0.00    +0.031 C 
ATOM     20  C   UNL     1       7.485   0.625  26.283  0.00  0.00    +0.086 C 
ATOM     21  C   UNL     1       7.980  -0.224  27.462  0.00  0.00    +0.031 C 
ENDBRANCH   1  20
BRANCH   6  22
ATOM     22  O   UNL     1       9.839  -3.772  24.272  0.00  0.00    -0.418 OA
BRANCH  22  23
ATOM     23  C   UNL     1       8.727  -4.468  24.678  0.00  0.00    +0.202 A 
ATOM     24  C   UNL     1       7.638  -4.763  23.855  0.00  0.00    +0.168 A 
ATOM     25  F   UNL     1       7.654  -4.451  22.551  0.00  0.00    -0.202 F 
ATOM     26  C   UNL     1       6.480  -5.343  24.377  0.00  0.00    +0.042 A 
ATOM     27  C   UNL     1       6.386  -5.618  25.742  0.00  0.00    +0.006 A 
ATOM     28  C   UNL     1       7.468  -5.331  26.574  0.00  0.00    +0.042 A 
ATOM     29  C   UNL     1       8.623  -4.763  26.037  0.00  0.00    +0.168 A 
ATOM     30  F   UNL     1       9.641  -4.478  26.866  0.00  0.00    -0.202 F 
ENDBRANCH  22  23
ENDBRANCH   6  22
TORSDOF 4
ENDMDL
MODEL 3
REMARK VINA RESULT:      -8.1      2.157      8.357
REMARK  Name = 
REMARK  6 active torsions:
REMARK  status: ('A' for Active; 'I' for Inactive)
REMARK    1  A    between atoms: C_1  and  C_2
REMARK    2  A    between atoms: C_2  and  C_3
REMARK    3  A    between atoms: C_2  and  N_4
REMARK    4  A    between atoms: N_6  and  C_7
REMARK    5  A    between atoms: C_18  and  O_19
REMARK    6  A    between atoms: O_19  and  C_20
REMARK                            x       y       z     vdW  Elec       q    Type
REMARK                         _______ _______ _______ _____ _____    ______ ____
ROOT
ATOM      1  N   UNL     1       6.434  -4.586  23.830  0.00  0.00    -0.294 N 
ATOM      2  C   UNL     1       7.426  -3.708  24.228  0.00  0.00    +0.169 A 
ATOM      3  C   UNL     1       7.209  -3.517  25.582  0.00  0.00    +0.128 A 
ATOM      4  C   UNL     1       8.059  -2.644  26.247  0.00  0.00    +0.147 A 
ATOM      5  N   UNL     1       9.077  -2.062  25.575  0.00  0.00    -0.201 NA
ATOM      6  C   UNL     1       9.186  -2.319  24.248  0.00  0.00    +0.326 A 
ATOM      7  N   UNL     1       6.164  -4.256  26.023  0.00  0.00    -0.211 NA
ATOM      8  N   UNL     1       8.403  -3.133  23.504  0.00  0.00    -0.175 NA
ATOM      9  C   UNL     1       5.720  -4.932  24.981  0.00  0.00    +0.202 A 
ATOM     10  N   UNL     1       4.684  -5.807  24.974  0.00  0.00    -0.283 N 
ATOM     11  H   UNL     1       4.410  -6.298  24.128  0.00  0.00    +0.155 HD
ENDROOT
BRANCH  10  12
ATOM     12  C   UNL     1       3.644  -5.832  25.938  0.00  0.00    +0.069 A 
ATOM     13  C   UNL     1       3.805  -6.611  27.095  0.00  0.00    +0.144 A 
ATOM     14  F   UNL     1       4.973  -7.243  27.298  0.00  0.00    -0.204 F 
ATOM     15  C   UNL     1       2.778  -6.783  28.021  0.00  0.00    +0.040 A 
ATOM     16  C   UNL     1       1.548  -6.164  27.807  0.00  0.00    +0.003 A 
ATOM     17  C   UNL     1       1.367  -5.363  26.685  0.00  0.00    +0.002 A 
ATOM     18  C   UNL     1       2.409  -5.193  25.763  0.00  0.00    +0.026 A 
ENDBRANCH  10  12
BRANCH   1  20
ATOM     19  C   UNL     1       5.907  -3.879  21.503  0.00  0.00    +0.031 C 
ATOM     20  C   UNL     1       6.135  -5.051  22.473  0.00  0.00    +0.086 C 
ATOM     21  C   UNL     1       7.170  -5.989  21.838  0.00  0.00    +0.031 C 
ENDBRANCH   1  20
BRANCH   6  22
ATOM     22  O   UNL     1      10.273  -1.795  23.565  0.00  0.00    -0.418 OA
BRANCH  22  23
ATOM     23  C   UNL     1      10.253  -0.470  23.206  0.00  0.00    +0.202 A 
ATOM     24  C   UNL     1      10.652   0.578  24.039  0.00  0.00    +0.168 A 
ATOM     25  F   UNL     1      11.181   0.336  25.247  0.00  0.00    -0.202 F 
ATOM     26  C   UNL     1      10.463   1.909  23.659  0.00  0.00    +0.042 A 
ATOM     27  C   UNL     1       9.848   2.212  22.444  0.00  0.00    +0.006 A 
ATOM     28  C   UNL     1       9.448   1.174  21.602  0.00  0.00    +0.042 A 
ATOM     29  C   UNL     1       9.654  -0.150  21.988  0.00  0.00    +0.168 A 
ATOM     30  F   UNL     1       9.239  -1.128  21.167  0.00  0.00    -0.202 F 
ENDBRANCH  22  23
ENDBRANCH   6  22
TORSDOF 4
ENDMDL
MODEL 4
REMARK VINA RESULT:      -8.0      2.013      8.517
REMARK  Name = 
REMARK  6 active torsions:
REMARK  status: ('A' for Active; 'I' for Inactive)
REMARK    1  A    between atoms: C_1  and  C_2
REMARK    2  A    between atoms: C_2  and  C_3
REMARK    3  A    between atoms: C_2  and  N_4
REMARK    4  A    between atoms: N_6  and  C_7
REMARK    5  A    between atoms: C_18  and  O_19
REMARK    6  A    between atoms: O_19  and  C_20
REMARK                            x       y       z     vdW  Elec       q    Type
REMARK                         _______ _______ _______ _____ _____    ______ ____
ROOT
ATOM      1  N   UNL     1       6.288  -4.762  23.782  0.00  0.00    -0.294 N 
ATOM      2  C   UNL     1       7.219  -3.886  24.312  0.00  0.00    +0.169 A 
ATOM      3  C   UNL     1       6.882  -3.776  25.650  0.00  0.00    +0.128 A 
ATOM      4  C   UNL     1       7.647  -2.924  26.433  0.00  0.00    +0.147 A 
ATOM      5  N   UNL     1       8.704  -2.283  25.884  0.00  0.00    -0.201 NA
ATOM      6  C   UNL     1       8.933  -2.462  24.560  0.00  0.00    +0.326 A 
ATOM      7  N   UNL     1       5.823  -4.562  25.957  0.00  0.00    -0.211 NA
ATOM      8  N   UNL     1       8.239  -3.250  23.708  0.00  0.00    -0.175 NA
ATOM      9  C   UNL     1       5.488  -5.188  24.846  0.00  0.00    +0.202 A 
ATOM     10  N   UNL     1       4.480  -6.084  24.701  0.00  0.00    -0.283 N 
ATOM     11  H   UNL     1       4.293  -6.532  23.809  0.00  0.00    +0.155 HD
ENDROOT
BRANCH  10  12
ATOM     12  C   UNL     1       3.362  -6.185  25.569  0.00  0.00    +0.069 A 
ATOM     13  C   UNL     1       2.160  -5.556  25.207  0.00  0.00    +0.144 A 
ATOM     14  F   UNL     1       2.075  -4.949  24.012  0.00  0.00    -0.204 F 
ATOM     15  C   UNL     1       1.064  -5.507  26.066  0.00  0.00    +0.040 A 
ATOM     16  C   UNL     1       1.148  -6.099  27.324  0.00  0.00    +0.003 A 
ATOM     17  C   UNL     1       2.315  -6.754  27.700  0.00  0.00    +0.002 A 
ATOM     18  C   UNL     1       3.410  -6.803  26.826  0.00  0.00    +0.026 A 
ENDBRANCH  10  12
BRANCH   1  20
ATOM     19  C   UNL     1       5.908  -3.938  21.465  0.00  0.00    +0.031 C 
ATOM     20  C   UNL     1       6.119  -5.156  22.381  0.00  0.00    +0.086 C 
ATOM     21  C   UNL     1       7.246  -6.005  21.778  0.00  0.00    +0.031 C 
ENDBRANCH   1  20
BRANCH   6  22
ATOM     22  O   UNL     1      10.060  -1.877  24.004  0.00  0.00    -0.418 OA
BRANCH  22  23
ATOM     23  C   UNL     1       9.950  -0.625  23.449  0.00  0.00    +0.202 A 
ATOM     24  C   UNL     1       9.570  -0.380  22.128  0.00  0.00    +0.168 A 
ATOM     25  F   UNL     1       9.191  -1.381  21.322  0.00  0.00    -0.202 F 
ATOM     26  C   UNL     1       9.625   0.910  21.593  0.00  0.00    +0.042 A 
ATOM     27  C   UNL     1      10.085   1.973  22.370  0.00  0.00    +0.006 A 
ATOM     28  C   UNL     1      10.464   1.741  23.693  0.00  0.00    +0.042 A 
ATOM     29  C   UNL     1      10.392   0.451  24.218  0.00  0.00    +0.168 A 
ATOM     30  F   UNL     1      10.784   0.255  25.487  0.00  0.00    -0.202 F 
ENDBRANCH  22  23
ENDBRANCH   6  22
TORSDOF 4
ENDMDL
MODEL 5
REMARK VINA RESULT:      -7.8      3.377      5.044
REMARK  Name = 
REMARK  6 active torsions:
REMARK  status: ('A' for Active; 'I' for Inactive)
REMARK    1  A    between atoms: C_1  and  C_2
REMARK    2  A    between atoms: C_2  and  C_3
REMARK    3  A    between atoms: C_2  and  N_4
REMARK    4  A    between atoms: N_6  and  C_7
REMARK    5  A    between atoms: C_18  and  O_19
REMARK    6  A    between atoms: O_19  and  C_20
REMARK                            x       y       z     vdW  Elec       q    Type
REMARK                         _______ _______ _______ _____ _____    ______ ____
ROOT
ATOM      1  N   UNL     1       8.260   0.776  25.094  0.00  0.00    -0.294 N 
ATOM      2  C   UNL     1       8.863  -0.283  24.439  0.00  0.00    +0.169 A 
ATOM      3  C   UNL     1       9.522   0.291  23.366  0.00  0.00    +0.128 A 
ATOM      4  C   UNL     1      10.203  -0.559  22.506  0.00  0.00    +0.147 A 
ATOM      5  N   UNL     1      10.239  -1.885  22.769  0.00  0.00    -0.201 NA
ATOM      6  C   UNL     1       9.549  -2.334  23.845  0.00  0.00    +0.326 A 
ATOM      7  N   UNL     1       9.376   1.637  23.361  0.00  0.00    -0.211 NA
ATOM      8  N   UNL     1       8.841  -1.596  24.731  0.00  0.00    -0.175 NA
ATOM      9  C   UNL     1       8.652   1.938  24.421  0.00  0.00    +0.202 A 
ATOM     10  N   UNL     1       8.272   3.180  24.809  0.00  0.00    -0.283 N 
ATOM     11  H   UNL     1       7.720   3.328  25.649  0.00  0.00    +0.155 HD
ENDROOT
BRANCH  10  12
ATOM     12  C   UNL     1       8.206   4.307  23.949  0.00  0.00    +0.069 A 
ATOM     13  C   UNL     1       8.939   5.458  24.278  0.00  0.00    +0.144 A 
ATOM     14  F   UNL     1       9.749   5.432  25.350  0.00  0.00    -0.204 F 
ATOM     15  C   UNL     1       8.824   6.641  23.551  0.00  0.00    +0.040 A 
ATOM     16  C   UNL     1       7.961   6.697  22.459  0.00  0.00    +0.003 A 
ATOM     17  C   UNL     1       7.243   5.564  22.091  0.00  0.00    +0.002 A 
ATOM     18  C   UNL     1       7.371   4.378  22.826  0.00  0.00    +0.026 A 
ENDBRANCH  10  12
BRANCH   1  20
ATOM     19  C   UNL     1       5.958   0.208  25.849  0.00  0.00    +0.031 C 
ATOM     20  C   UNL     1       7.352   0.725  26.243  0.00  0.00    +0.086 C 
ATOM     21  C   UNL     1       7.833  -0.098  27.446  0.00  0.00    +0.031 C 
ENDBRANCH   1  20
BRANCH   6  22
ATOM     22  O   UNL     1       9.645  -3.678  24.174  0.00  0.00    -0.418 OA
BRANCH  22  23
ATOM     23  C   UNL     1       8.564  -4.296  24.752  0.00  0.00    +0.202 A 
ATOM     24  C   UNL     1       8.501  -4.680  26.093  0.00  0.00    +0.168 A 
ATOM     25  F   UNL     1       9.490  -4.375  26.946  0.00  0.00    -0.202 F 
ATOM     26  C   UNL     1       7.429  -5.437  26.574  0.00  0.00    +0.042 A 
ATOM     27  C   UNL     1       6.412  -5.842  25.709  0.00  0.00    +0.006 A 
ATOM     28  C   UNL     1       6.463  -5.463  24.367  0.00  0.00    +0.042 A 
ATOM     29  C   UNL     1       7.532  -4.696  23.904  0.00  0.00    +0.168 A 
ATOM     30  F   UNL     1       7.565  -4.364  22.604  0.00  0.00    -0.202 F 
ENDBRANCH  22  23
ENDBRANCH   6  22
TORSDOF 4
ENDMDL
MODEL 6
REMARK VINA RESULT:      -7.6      3.005      4.910
REMARK  Name = 
REMARK  6 active torsions:
REMARK  status: ('A' for Active; 'I' for Inactive)
REMARK    1  A    between atoms: C_1  and  C_2
REMARK    2  A    between atoms: C_2  and  C_3
REMARK    3  A    between atoms: C_2  and  N_4
REMARK    4  A    between atoms: N_6  and  C_7
REMARK    5  A    between atoms: C_18  and  O_19
REMARK    6  A    between atoms: O_19  and  C_20
REMARK                            x       y       z     vdW  Elec       q    Type
REMARK                         _______ _______ _______ _____ _____    ______ ____
ROOT
ATOM      1  N   UNL     1       8.019   1.171  23.061  0.00  0.00    -0.294 N 
ATOM      2  C   UNL     1       8.441  -0.139  22.925  0.00  0.00    +0.169 A 
ATOM      3  C   UNL     1       9.777  -0.120  23.285  0.00  0.00    +0.128 A 
ATOM      4  C   UNL     1      10.474  -1.319  23.216  0.00  0.00    +0.147 A 
ATOM      5  N   UNL     1       9.824  -2.448  22.854  0.00  0.00    -0.201 NA
ATOM      6  C   UNL     1       8.516  -2.343  22.516  0.00  0.00    +0.326 A 
ATOM      7  N   UNL     1      10.170   1.120  23.660  0.00  0.00    -0.211 NA
ATOM      8  N   UNL     1       7.753  -1.225  22.531  0.00  0.00    -0.175 NA
ATOM      9  C   UNL     1       9.105   1.892  23.566  0.00  0.00    +0.202 A 
ATOM     10  N   UNL     1       9.043   3.216  23.855  0.00  0.00    -0.283 N 
ATOM     11  H   UNL     1       8.177   3.739  23.765  0.00  0.00    +0.155 HD
ENDROOT
BRANCH  10  12
ATOM     12  C   UNL     1      10.164   4.085  23.889  0.00  0.00    +0.069 A 
ATOM     13  C   UNL     1      10.027   5.351  24.481  0.00  0.00    +0.144 A 
ATOM     14  F   UNL     1       8.866   5.670  25.076  0.00  0.00    -0.204 F 
ATOM     15  C   UNL     1      11.045   6.301  24.438  0.00  0.00    +0.040 A 
ATOM     16  C   UNL     1      12.243   5.999  23.794  0.00  0.00    +0.003 A 
ATOM     17  C   UNL     1      12.419   4.745  23.221  0.00  0.00    +0.002 A 
ATOM     18  C   UNL     1      11.391   3.793  23.276  0.00  0.00    +0.026 A 
ENDBRANCH  10  12
BRANCH   1  20
ATOM     19  C   UNL     1       5.817   1.912  23.953  0.00  0.00    +0.031 C 
ATOM     20  C   UNL     1       6.712   1.735  22.714  0.00  0.00    +0.086 C 
ATOM     21  C   UNL     1       6.732   3.071  21.958  0.00  0.00    +0.031 C 
ENDBRANCH   1  20
BRANCH   6  22
ATOM     22  O   UNL     1       7.818  -3.504  22.224  0.00  0.00    -0.418 OA
BRANCH  22  23
ATOM     23  C   UNL     1       6.917  -3.983  23.144  0.00  0.00    +0.202 A 
ATOM     24  C   UNL     1       7.260  -4.775  24.242  0.00  0.00    +0.168 A 
ATOM     25  F   UNL     1       8.542  -5.049  24.522  0.00  0.00    -0.202 F 
ATOM     26  C   UNL     1       6.274  -5.349  25.049  0.00  0.00    +0.042 A 
ATOM     27  C   UNL     1       4.924  -5.154  24.753  0.00  0.00    +0.006 A 
ATOM     28  C   UNL     1       4.570  -4.362  23.661  0.00  0.00    +0.042 A 
ATOM     29  C   UNL     1       5.565  -3.786  22.872  0.00  0.00    +0.168 A 
ATOM     30  F   UNL     1       5.193  -3.046  21.814  0.00  0.00    -0.202 F 
ENDBRANCH  22  23
ENDBRANCH   6  22
TORSDOF 4
ENDMDL
MODEL 7
REMARK VINA RESULT:      -7.6      3.530      5.539
REMARK  Name = 
REMARK  6 active torsions:
REMARK  status: ('A' for Active; 'I' for Inactive)
REMARK    1  A    between atoms: C_1  and  C_2
REMARK    2  A    between atoms: C_2  and  C_3
REMARK    3  A    between atoms: C_2  and  N_4
REMARK    4  A    between atoms: N_6  and  C_7
REMARK    5  A    between atoms: C_18  and  O_19
REMARK    6  A    between atoms: O_19  and  C_20
REMARK                            x       y       z     vdW  Elec       q    Type
REMARK                         _______ _______ _______ _____ _____    ______ ____
ROOT
ATOM      1  N   UNL     1       7.645   1.455  23.573  0.00  0.00    -0.294 N 
ATOM      2  C   UNL     1       7.819   0.179  24.079  0.00  0.00    +0.169 A 
ATOM      3  C   UNL     1       8.988   0.246  24.816  0.00  0.00    +0.128 A 
ATOM      4  C   UNL     1       9.425  -0.921  25.427  0.00  0.00    +0.147 A 
ATOM      5  N   UNL     1       8.683  -2.046  25.323  0.00  0.00    -0.201 NA
ATOM      6  C   UNL     1       7.559  -1.994  24.567  0.00  0.00    +0.326 A 
ATOM      7  N   UNL     1       9.506   1.497  24.807  0.00  0.00    -0.211 NA
ATOM      8  N   UNL     1       7.058  -0.918  23.918  0.00  0.00    -0.175 NA
ATOM      9  C   UNL     1       8.679   2.238  24.094  0.00  0.00    +0.202 A 
ATOM     10  N   UNL     1       8.809   3.562  23.834  0.00  0.00    -0.283 N 
ATOM     11  H   UNL     1       8.119   4.064  23.282  0.00  0.00    +0.155 HD
ENDROOT
BRANCH  10  12
ATOM     12  C   UNL     1      10.030   4.281  23.901  0.00  0.00    +0.069 A 
ATOM     13  C   UNL     1      10.047   5.539  24.524  0.00  0.00    +0.144 A 
ATOM     14  F   UNL     1       8.928   5.990  25.114  0.00  0.00    -0.204 F 
ATOM     15  C   UNL     1      11.178   6.353  24.515  0.00  0.00    +0.040 A 
ATOM     16  C   UNL     1      12.336   5.917  23.877  0.00  0.00    +0.003 A 
ATOM     17  C   UNL     1      12.359   4.663  23.275  0.00  0.00    +0.002 A 
ATOM     18  C   UNL     1      11.218   3.850  23.295  0.00  0.00    +0.026 A 
ENDBRANCH  10  12
BRANCH   1  20
ATOM     19  C   UNL     1       5.457   2.622  23.368  0.00  0.00    +0.031 C 
ATOM     20  C   UNL     1       6.616   1.920  22.640  0.00  0.00    +0.086 C 
ATOM     21  C   UNL     1       7.094   2.851  21.517  0.00  0.00    +0.031 C 
ENDBRANCH   1  20
BRANCH   6  22
ATOM     22  O   UNL     1       6.746  -3.116  24.520  0.00  0.00    -0.418 OA
BRANCH  22  23
ATOM     23  C   UNL     1       6.830  -3.948  23.431  0.00  0.00    +0.202 A 
ATOM     24  C   UNL     1       6.044  -3.823  22.283  0.00  0.00    +0.168 A 
ATOM     25  F   UNL     1       5.196  -2.796  22.135  0.00  0.00    -0.202 F 
ATOM     26  C   UNL     1       6.081  -4.795  21.279  0.00  0.00    +0.042 A 
ATOM     27  C   UNL     1       6.892  -5.921  21.421  0.00  0.00    +0.006 A 
ATOM     28  C   UNL     1       7.684  -6.054  22.562  0.00  0.00    +0.042 A 
ATOM     29  C   UNL     1       7.647  -5.071  23.550  0.00  0.00    +0.168 A 
ATOM     30  F   UNL     1       8.404  -5.238  24.646  0.00  0.00    -0.202 F 
ENDBRANCH  22  23
ENDBRANCH   6  22
TORSDOF 4
ENDMDL
MODEL 8
REMARK VINA RESULT:      -7.5      3.301      5.003
REMARK  Name = 
REMARK  6 active torsions:
REMARK  status: ('A' for Active; 'I' for Inactive)
REMARK    1  A    between atoms: C_1  and  C_2
REMARK    2  A    between atoms: C_2  and  C_3
REMARK    3  A    between atoms: C_2  and  N_4
REMARK    4  A    between atoms: N_6  and  C_7
REMARK    5  A    between atoms: C_18  and  O_19
REMARK    6  A    between atoms: O_19  and  C_20
REMARK                            x       y       z     vdW  Elec       q    Type
REMARK                         _______ _______ _______ _____ _____    ______ ____
ROOT
ATOM      1  N   UNL     1       8.498   0.787  23.179  0.00  0.00    -0.294 N 
ATOM      2  C   UNL     1       7.617  -0.016  23.882  0.00  0.00    +0.169 A 
ATOM      3  C   UNL     1       6.597   0.833  24.271  0.00  0.00    +0.128 A 
ATOM      4  C   UNL     1       5.569   0.290  25.029  0.00  0.00    +0.147 A 
ATOM      5  N   UNL     1       5.575  -1.032  25.312  0.00  0.00    -0.201 NA
ATOM      6  C   UNL     1       6.633  -1.764  24.884  0.00  0.00    +0.326 A 
ATOM      7  N   UNL     1       6.800   2.091  23.814  0.00  0.00    -0.211 NA
ATOM      8  N   UNL     1       7.690  -1.330  24.160  0.00  0.00    -0.175 NA
ATOM      9  C   UNL     1       7.922   2.059  23.121  0.00  0.00    +0.202 A 
ATOM     10  N   UNL     1       8.498   3.104  22.476  0.00  0.00    -0.283 N 
ATOM     11  H   UNL     1       9.362   2.993  21.954  0.00  0.00    +0.155 HD
ENDROOT
BRANCH  10  12
ATOM     12  C   UNL     1       8.252   4.469  22.775  0.00  0.00    +0.069 A 
ATOM     13  C   UNL     1       9.044   5.108  23.743  0.00  0.00    +0.144 A 
ATOM     14  F   UNL     1      10.068   4.436  24.296  0.00  0.00    -0.204 F 
ATOM     15  C   UNL     1       8.778   6.405  24.177  0.00  0.00    +0.040 A 
ATOM     16  C   UNL     1       7.699   7.103  23.639  0.00  0.00    +0.003 A 
ATOM     17  C   UNL     1       6.913   6.507  22.659  0.00  0.00    +0.002 A 
ATOM     18  C   UNL     1       7.193   5.204  22.226  0.00  0.00    +0.026 A 
ENDBRANCH  10  12
BRANCH   1  20
ATOM     19  C   UNL     1      10.827   0.107  23.732  0.00  0.00    +0.031 C 
ATOM     20  C   UNL     1       9.805   0.420  22.627  0.00  0.00    +0.086 C 
ATOM     21  C   UNL     1       9.813  -0.752  21.636  0.00  0.00    +0.031 C 
ENDBRANCH   1  20
BRANCH   6  22
ATOM     22  O   UNL     1       6.612  -3.134  25.095  0.00  0.00    -0.418 OA
BRANCH  22  23
ATOM     23  C   UNL     1       6.484  -3.968  24.011  0.00  0.00    +0.202 A 
ATOM     24  C   UNL     1       5.270  -4.276  23.394  0.00  0.00    +0.168 A 
ATOM     25  F   UNL     1       4.130  -3.686  23.780  0.00  0.00    -0.202 F 
ATOM     26  C   UNL     1       5.200  -5.248  22.392  0.00  0.00    +0.042 A 
ATOM     27  C   UNL     1       6.347  -5.943  22.007  0.00  0.00    +0.006 A 
ATOM     28  C   UNL     1       7.566  -5.642  22.614  0.00  0.00    +0.042 A 
ATOM     29  C   UNL     1       7.624  -4.661  23.604  0.00  0.00    +0.168 A 
ATOM     30  F   UNL     1       8.807  -4.408  24.185  0.00  0.00    -0.202 F 
ENDBRANCH  22  23
ENDBRANCH   6  22
TORSDOF 4
ENDMDL
MODEL 9
REMARK VINA RESULT:      -7.4      2.194      8.373
REMARK  Name = 
REMARK  6 active torsions:
REMARK  status: ('A' for Active; 'I' for Inactive)
REMARK    1  A    between atoms: C_1  and  C_2
REMARK    2  A    between atoms: C_2  and  C_3
REMARK    3  A    between atoms: C_2  and  N_4
REMARK    4  A    between atoms: N_6  and  C_7
REMARK    5  A    between atoms: C_18  and  O_19
REMARK    6  A    between atoms: O_19  and  C_20
REMARK                            x       y       z     vdW  Elec       q    Type
REMARK                         _______ _______ _______ _____ _____    ______ ____
ROOT
ATOM      1  N   UNL     1       5.631  -4.224  25.067  0.00  0.00    -0.294 N 
ATOM      2  C   UNL     1       6.536  -3.640  24.199  0.00  0.00    +0.169 A 
ATOM      3  C   UNL     1       5.927  -3.701  22.958  0.00  0.00    +0.128 A 
ATOM      4  C   UNL     1       6.636  -3.200  21.875  0.00  0.00    +0.147 A 
ATOM      5  N   UNL     1       7.850  -2.638  22.074  0.00  0.00    -0.201 NA
ATOM      6  C   UNL     1       8.348  -2.643  23.334  0.00  0.00    +0.326 A 
ATOM      7  N   UNL     1       4.696  -4.257  23.039  0.00  0.00    -0.211 NA
ATOM      8  N   UNL     1       7.751  -3.120  24.450  0.00  0.00    -0.175 NA
ATOM      9  C   UNL     1       4.496  -4.537  24.313  0.00  0.00    +0.202 A 
ATOM     10  N   UNL     1       3.384  -5.099  24.847  0.00  0.00    -0.283 N 
ATOM     11  H   UNL     1       3.304  -5.273  25.844  0.00  0.00    +0.155 HD
ENDROOT
BRANCH  10  12
ATOM     12  C   UNL     1       2.441  -5.867  24.117  0.00  0.00    +0.069 A 
ATOM     13  C   UNL     1       2.523  -7.269  24.161  0.00  0.00    +0.144 A 
ATOM     14  F   UNL     1       3.437  -7.844  24.961  0.00  0.00    -0.204 F 
ATOM     15  C   UNL     1       1.713  -8.082  23.372  0.00  0.00    +0.040 A 
ATOM     16  C   UNL     1       0.784  -7.502  22.511  0.00  0.00    +0.003 A 
ATOM     17  C   UNL     1       0.660  -6.117  22.465  0.00  0.00    +0.002 A 
ATOM     18  C   UNL     1       1.476  -5.308  23.268  0.00  0.00    +0.026 A 
ENDBRANCH  10  12
BRANCH   1  20
ATOM     19  C   UNL     1       4.920  -3.616  27.373  0.00  0.00    +0.031 C 
ATOM     20  C   UNL     1       5.808  -4.512  26.493  0.00  0.00    +0.086 C 
ATOM     21  C   UNL     1       5.575  -5.967  26.922  0.00  0.00    +0.031 C 
ENDBRANCH   1  20
BRANCH   6  22
ATOM     22  O   UNL     1       9.553  -1.997  23.566  0.00  0.00    -0.418 OA
BRANCH  22  23
ATOM     23  C   UNL     1       9.606  -0.630  23.438  0.00  0.00    +0.202 A 
ATOM     24  C   UNL     1       9.815   0.040  22.231  0.00  0.00    +0.168 A 
ATOM     25  F   UNL     1       9.890  -0.631  21.073  0.00  0.00    -0.202 F 
ATOM     26  C   UNL     1      10.006   1.424  22.202  0.00  0.00    +0.042 A 
ATOM     27  C   UNL     1      10.011   2.157  23.389  0.00  0.00    +0.006 A 
ATOM     28  C   UNL     1       9.799   1.499  24.601  0.00  0.00    +0.042 A 
ATOM     29  C   UNL     1       9.598   0.119  24.614  0.00  0.00    +0.168 A 
ATOM     30  F   UNL     1       9.419  -0.490  25.797  0.00  0.00    -0.202 F 
ENDBRANCH  22  23
ENDBRANCH   6  22
TORSDOF 4
ENDMDL
