MODEL 1
REMARK VINA RESULT:      -5.3      0.000      0.000
REMARK  Name = 
REMARK  46 active torsions:
REMARK  status: ('A' for Active; 'I' for Inactive)
REMARK    1  A    between atoms: C_1  and  C_2
REMARK    2  A    between atoms: C_2  and  C_3
REMARK    3  A    between atoms: C_3  and  C_4
REMARK    4  A    between atoms: C_4  and  C_5
REMARK    5  A    between atoms: C_5  and  C_6
REMARK    6  A    between atoms: C_6  and  C_7
REMARK    7  A    between atoms: C_7  and  C_8
REMARK    8  A    between atoms: C_8  and  C_9
REMARK    9  A    between atoms: C_9  and  C_10
REMARK   10  A    between atoms: C_10  and  C_11
REMARK   11  A    between atoms: C_11  and  C_12
REMARK   12  A    between atoms: C_12  and  C_13
REMARK   13  A    between atoms: C_13  and  C_14
REMARK   14  A    between atoms: C_14  and  C_15
REMARK   15  A    between atoms: C_15  and  C_16
REMARK   16  A    between atoms: C_16  and  O_18
REMARK   17  A    between atoms: O_18  and  C_19
REMARK   18  A    between atoms: C_19  and  C_20
REMARK   19  A    between atoms: C_20  and  C_22
REMARK   20  A    between atoms: C_20  and  O_45
REMARK   21  A    between atoms: C_22  and  O_23
REMARK   22  A    between atoms: O_23  and  P_24
REMARK   23  A    between atoms: P_24  and  O_27
REMARK   24  A    between atoms: O_27  and  C_28
REMARK   25  A    between atoms: C_30  and  O_32
REMARK   26  A    between atoms: C_33  and  O_35
REMARK   27  A    between atoms: C_36  and  O_38
REMARK   28  A    between atoms: C_39  and  O_41
REMARK   29  A    between atoms: C_42  and  O_44
REMARK   30  A    between atoms: O_45  and  C_46
REMARK   31  A    between atoms: C_46  and  C_48
REMARK   32  A    between atoms: C_48  and  C_49
REMARK   33  A    between atoms: C_49  and  C_50
REMARK   34  A    between atoms: C_50  and  C_51
REMARK   35  A    between atoms: C_51  and  C_52
REMARK   36  A    between atoms: C_52  and  C_53
REMARK   37  A    between atoms: C_53  and  C_54
REMARK   38  A    between atoms: C_54  and  C_55
REMARK   39  A    between atoms: C_56  and  C_57
REMARK   40  A    between atoms: C_57  and  C_58
REMARK   41  A    between atoms: C_58  and  C_59
REMARK   42  A    between atoms: C_59  and  C_60
REMARK   43  A    between atoms: C_60  and  C_61
REMARK   44  A    between atoms: C_61  and  C_62
REMARK   45  A    between atoms: C_62  and  C_63
REMARK   46  A    between atoms: C_63  and  C_64
REMARK                            x       y       z     vdW  Elec       q    Type
REMARK                         _______ _______ _______ _____ _____    ______ ____
ROOT
ATOM      1  C   UNL     1       5.886  -4.880  21.739  0.00  0.00    +0.240 C 
ENDROOT
BRANCH   1   2
ATOM      2  C   UNL     1       4.887  -5.619  22.660  0.00  0.00    +0.216 C 
BRANCH   2   3
ATOM      3  O   UNL     1       3.618  -5.013  22.943  0.00  0.00    -0.324 OA
BRANCH   3   4
ATOM      4  P   UNL     1       2.260  -5.839  23.273  0.00  0.00    +0.213 P 
ATOM      5  O   UNL     1       2.565  -7.307  23.202  0.00  0.00    -0.437 OA
ATOM      6  O   UNL     1       1.097  -5.138  22.640  0.00  0.00    -0.517 OA
BRANCH   4   7
ATOM      7  O   UNL     1       2.140  -5.567  24.872  0.00  0.00    -0.319 OA
BRANCH   7   8
ATOM      8  C   UNL     1       3.368  -5.444  25.589  0.00  0.00    +0.188 C 
ATOM      9  C   UNL     1       3.284  -4.127  26.348  0.00  0.00    +0.177 C 
ATOM     10  C   UNL     1       4.450  -3.951  27.297  0.00  0.00    +0.177 C 
ATOM     11  C   UNL     1       4.718  -5.179  28.166  0.00  0.00    +0.176 C 
ATOM     12  C   UNL     1       4.871  -6.442  27.314  0.00  0.00    +0.177 C 
ATOM     13  C   UNL     1       3.613  -6.681  26.466  0.00  0.00    +0.177 C 
BRANCH  13  14
ATOM     14  O   UNL     1       3.866  -7.872  25.693  0.00  0.00    -0.386 OA
ATOM     15  H   UNL     1       4.598  -7.657  25.073  0.00  0.00    +0.210 HD
ENDBRANCH  13  14
BRANCH   9  16
ATOM     16  O   UNL     1       3.350  -3.016  25.428  0.00  0.00    -0.386 OA
ATOM     17  H   UNL     1       3.642  -2.233  25.936  0.00  0.00    +0.210 HD
ENDBRANCH   9  16
BRANCH  10  18
ATOM     18  O   UNL     1       4.167  -2.831  28.148  0.00  0.00    -0.386 OA
ATOM     19  H   UNL     1       4.863  -2.191  27.929  0.00  0.00    +0.210 HD
ENDBRANCH  10  18
BRANCH  11  20
ATOM     20  O   UNL     1       5.921  -4.903  28.910  0.00  0.00    -0.386 OA
ATOM     21  H   UNL     1       6.208  -5.754  29.292  0.00  0.00    +0.210 HD
ENDBRANCH  11  20
BRANCH  12  22
ATOM     22  O   UNL     1       5.137  -7.571  28.158  0.00  0.00    -0.386 OA
ATOM     23  H   UNL     1       4.271  -7.764  28.579  0.00  0.00    +0.210 HD
ENDBRANCH  12  22
ENDBRANCH   7   8
ENDBRANCH   4   7
ENDBRANCH   3   4
ENDBRANCH   2   3
ENDBRANCH   1   2
BRANCH   1  24
ATOM     24  C   UNL     1       7.328  -4.960  22.280  0.00  0.00    +0.279 C 
BRANCH  24  25
ATOM     25  O   UNL     1       7.320  -5.658  23.535  0.00  0.00    -0.461 OA
BRANCH  25  26
ATOM     26  C   UNL     1       8.217  -5.201  24.458  0.00  0.00    +0.307 C 
ATOM     27  O   UNL     1       9.431  -5.311  24.373  0.00  0.00    -0.251 OA
BRANCH  26  28
ATOM     28  C   UNL     1       7.480  -4.544  25.600  0.00  0.00    +0.120 C 
BRANCH  28  29
ATOM     29  C   UNL     1       8.337  -3.510  26.316  0.00  0.00    +0.011 C 
BRANCH  29  30
ATOM     30  C   UNL     1       7.549  -2.245  26.657  0.00  0.00    +0.001 C 
BRANCH  30  31
ATOM     31  C   UNL     1       8.482  -1.047  26.806  0.00  0.00    +0.000 C 
BRANCH  31  32
ATOM     32  C   UNL     1       7.697   0.224  27.115  0.00  0.00    +0.000 C 
BRANCH  32  33
ATOM     33  C   UNL     1       6.766   0.578  25.959  0.00  0.00    +0.000 C 
BRANCH  33  34
ATOM     34  C   UNL     1       6.398   2.058  25.989  0.00  0.00    -0.000 C 
BRANCH  34  35
ATOM     35  C   UNL     1       7.649   2.931  25.969  0.00  0.00    -0.000 C 
BRANCH  35  36
ATOM     36  C   UNL     1       7.338   4.335  26.480  0.00  0.00    -0.000 C 
BRANCH  36  37
ATOM     37  C   UNL     1       8.120   5.388  25.699  0.00  0.00    -0.000 C 
BRANCH  37  38
ATOM     38  C   UNL     1       9.037   4.731  24.670  0.00  0.00    -0.000 C 
BRANCH  38  39
ATOM     39  C   UNL     1       9.800   5.782  23.867  0.00  0.00    -0.000 C 
BRANCH  39  40
ATOM     40  C   UNL     1      10.859   6.467  24.728  0.00  0.00    -0.000 C 
BRANCH  40  42
ATOM     41  C   UNL     1      12.256   5.001  23.237  0.00  0.00    +0.004 C 
ATOM     42  C   UNL     1      12.266   6.156  24.224  0.00  0.00    -0.003 C 
ENDBRANCH  40  42
ENDBRANCH  39  40
ENDBRANCH  38  39
ENDBRANCH  37  38
ENDBRANCH  36  37
ENDBRANCH  35  36
ENDBRANCH  34  35
ENDBRANCH  33  34
ENDBRANCH  32  33
ENDBRANCH  31  32
ENDBRANCH  30  31
ENDBRANCH  29  30
ENDBRANCH  28  29
ENDBRANCH  26  28
ENDBRANCH  25  26
ENDBRANCH  24  25
ENDBRANCH   1  24
BRANCH   1  43
ATOM     43  O   UNL     1       5.588  -3.488  21.532  0.00  0.00    -0.456 OA
BRANCH  43  44
ATOM     44  C   UNL     1       6.113  -2.682  22.500  0.00  0.00    +0.308 C 
ATOM     45  O   UNL     1       5.630  -2.402  23.580  0.00  0.00    -0.251 OA
BRANCH  44  46
ATOM     46  C   UNL     1       7.366  -2.009  22.056  0.00  0.00    +0.120 C 
BRANCH  46  47
ATOM     47  C   UNL     1       8.137  -1.473  23.246  0.00  0.00    +0.011 C 
BRANCH  47  48
ATOM     48  C   UNL     1       9.595  -1.918  23.205  0.00  0.00    +0.001 C 
BRANCH  48  49
ATOM     49  C   UNL     1      10.504  -0.727  22.912  0.00  0.00    +0.000 C 
BRANCH  49  50
ATOM     50  C   UNL     1      10.565   0.212  24.114  0.00  0.00    +0.000 C 
BRANCH  50  51
ATOM     51  C   UNL     1      10.435   1.655  23.665  0.00  0.00    +0.004 C 
BRANCH  51  52
ATOM     52  C   UNL     1       9.999   1.729  22.206  0.00  0.00    +0.027 C 
BRANCH  52  53
ATOM     53  C   UNL     1       8.655   2.363  22.062  0.00  0.00    -0.031 C 
ATOM     54  C   UNL     1       7.515   1.795  22.463  0.00  0.00    -0.031 C 
BRANCH  54  55
ATOM     55  C   UNL     1       6.171   2.436  22.302  0.00  0.00    +0.027 C 
BRANCH  55  56
ATOM     56  C   UNL     1       6.299   3.958  22.301  0.00  0.00    +0.004 C 
BRANCH  56  57
ATOM     57  C   UNL     1       5.363   4.585  23.333  0.00  0.00    +0.000 C 
BRANCH  57  58
ATOM     58  C   UNL     1       4.054   5.035  22.687  0.00  0.00    +0.000 C 
BRANCH  58  59
ATOM     59  C   UNL     1       2.940   4.019  22.937  0.00  0.00    -0.000 C 
BRANCH  59  60
ATOM     60  C   UNL     1       2.604   3.248  21.662  0.00  0.00    -0.000 C 
BRANCH  60  61
ATOM     61  C   UNL     1       1.399   3.857  20.947  0.00  0.00    -0.003 C 
ATOM     62  C   UNL     1       1.791   4.447  19.602  0.00  0.00    +0.004 C 
ENDBRANCH  60  61
ENDBRANCH  59  60
ENDBRANCH  58  59
ENDBRANCH  57  58
ENDBRANCH  56  57
ENDBRANCH  55  56
ENDBRANCH  54  55
ENDBRANCH  52  53
ENDBRANCH  51  52
ENDBRANCH  50  51
ENDBRANCH  49  50
ENDBRANCH  48  49
ENDBRANCH  47  48
ENDBRANCH  46  47
ENDBRANCH  44  46
ENDBRANCH  43  44
ENDBRANCH   1  43
TORSDOF 44
ENDMDL
MODEL 2
REMARK VINA RESULT:      -5.0      1.201      3.236
REMARK  Name = 
REMARK  46 active torsions:
REMARK  status: ('A' for Active; 'I' for Inactive)
REMARK    1  A    between atoms: C_1  and  C_2
REMARK    2  A    between atoms: C_2  and  C_3
REMARK    3  A    between atoms: C_3  and  C_4
REMARK    4  A    between atoms: C_4  and  C_5
REMARK    5  A    between atoms: C_5  and  C_6
REMARK    6  A    between atoms: C_6  and  C_7
REMARK    7  A    between atoms: C_7  and  C_8
REMARK    8  A    between atoms: C_8  and  C_9
REMARK    9  A    between atoms: C_9  and  C_10
REMARK   10  A    between atoms: C_10  and  C_11
REMARK   11  A    between atoms: C_11  and  C_12
REMARK   12  A    between atoms: C_12  and  C_13
REMARK   13  A    between atoms: C_13  and  C_14
REMARK   14  A    between atoms: C_14  and  C_15
REMARK   15  A    between atoms: C_15  and  C_16
REMARK   16  A    between atoms: C_16  and  O_18
REMARK   17  A    between atoms: O_18  and  C_19
REMARK   18  A    between atoms: C_19  and  C_20
REMARK   19  A    between atoms: C_20  and  C_22
REMARK   20  A    between atoms: C_20  and  O_45
REMARK   21  A    between atoms: C_22  and  O_23
REMARK   22  A    between atoms: O_23  and  P_24
REMARK   23  A    between atoms: P_24  and  O_27
REMARK   24  A    between atoms: O_27  and  C_28
REMARK   25  A    between atoms: C_30  and  O_32
REMARK   26  A    between atoms: C_33  and  O_35
REMARK   27  A    between atoms: C_36  and  O_38
REMARK   28  A    between atoms: C_39  and  O_41
REMARK   29  A    between atoms: C_42  and  O_44
REMARK   30  A    between atoms: O_45  and  C_46
REMARK   31  A    between atoms: C_46  and  C_48
REMARK   32  A    between atoms: C_48  and  C_49
REMARK   33  A    between atoms: C_49  and  C_50
REMARK   34  A    between atoms: C_50  and  C_51
REMARK   35  A    between atoms: C_51  and  C_52
REMARK   36  A    between atoms: C_52  and  C_53
REMARK   37  A    between atoms: C_53  and  C_54
REMARK   38  A    between atoms: C_54  and  C_55
REMARK   39  A    between atoms: C_56  and  C_57
REMARK   40  A    between atoms: C_57  and  C_58
REMARK   41  A    between atoms: C_58  and  C_59
REMARK   42  A    between atoms: C_59  and  C_60
REMARK   43  A    between atoms: C_60  and  C_61
REMARK   44  A    between atoms: C_61  and  C_62
REMARK   45  A    between atoms: C_62  and  C_63
REMARK   46  A    between atoms: C_63  and  C_64
REMARK                            x       y       z     vdW  Elec       q    Type
REMARK                         _______ _______ _______ _____ _____    ______ ____
ROOT
ATOM      1  C   UNL     1       5.727  -4.933  21.697  0.00  0.00    +0.240 C 
ENDROOT
BRANCH   1   2
ATOM      2  C   UNL     1       4.767  -5.701  22.636  0.00  0.00    +0.216 C 
BRANCH   2   3
ATOM      3  O   UNL     1       3.509  -5.107  22.985  0.00  0.00    -0.324 OA
BRANCH   3   4
ATOM      4  P   UNL     1       2.170  -5.948  23.358  0.00  0.00    +0.213 P 
ATOM      5  O   UNL     1       2.495  -7.412  23.303  0.00  0.00    -0.437 OA
ATOM      6  O   UNL     1       0.984  -5.273  22.741  0.00  0.00    -0.517 OA
BRANCH   4   7
ATOM      7  O   UNL     1       2.082  -5.652  24.954  0.00  0.00    -0.319 OA
BRANCH   7   8
ATOM      8  C   UNL     1       3.323  -5.484  25.639  0.00  0.00    +0.188 C 
ATOM      9  C   UNL     1       3.223  -4.156  26.377  0.00  0.00    +0.177 C 
ATOM     10  C   UNL     1       4.406  -3.933  27.294  0.00  0.00    +0.177 C 
ATOM     11  C   UNL     1       4.727  -5.138  28.178  0.00  0.00    +0.176 C 
ATOM     12  C   UNL     1       4.893  -6.411  27.343  0.00  0.00    +0.177 C 
ATOM     13  C   UNL     1       3.623  -6.699  26.531  0.00  0.00    +0.177 C 
BRANCH  13  14
ATOM     14  O   UNL     1       3.888  -7.896  25.772  0.00  0.00    -0.386 OA
ATOM     15  H   UNL     1       4.140  -8.591  26.420  0.00  0.00    +0.210 HD
ENDBRANCH  13  14
BRANCH   9  16
ATOM     16  O   UNL     1       3.236  -3.061  25.437  0.00  0.00    -0.386 OA
ATOM     17  H   UNL     1       3.013  -2.248  25.932  0.00  0.00    +0.210 HD
ENDBRANCH   9  16
BRANCH  10  18
ATOM     18  O   UNL     1       4.113  -2.806  28.132  0.00  0.00    -0.386 OA
ATOM     19  H   UNL     1       3.153  -2.695  28.045  0.00  0.00    +0.210 HD
ENDBRANCH  10  18
BRANCH  11  20
ATOM     20  O   UNL     1       5.940  -4.817  28.887  0.00  0.00    -0.386 OA
ATOM     21  H   UNL     1       5.951  -5.385  29.680  0.00  0.00    +0.210 HD
ENDBRANCH  11  20
BRANCH  12  22
ATOM     22  O   UNL     1       5.209  -7.518  28.200  0.00  0.00    -0.386 OA
ATOM     23  H   UNL     1       5.756  -7.120  28.913  0.00  0.00    +0.210 HD
ENDBRANCH  12  22
ENDBRANCH   7   8
ENDBRANCH   4   7
ENDBRANCH   3   4
ENDBRANCH   2   3
ENDBRANCH   1   2
BRANCH   1  24
ATOM     24  C   UNL     1       7.184  -4.989  22.199  0.00  0.00    +0.279 C 
BRANCH  24  25
ATOM     25  O   UNL     1       7.229  -5.732  23.427  0.00  0.00    -0.461 OA
BRANCH  25  26
ATOM     26  C   UNL     1       8.127  -5.277  24.348  0.00  0.00    +0.307 C 
ATOM     27  O   UNL     1       9.337  -5.444  24.293  0.00  0.00    -0.251 OA
BRANCH  26  28
ATOM     28  C   UNL     1       7.401  -4.538  25.446  0.00  0.00    +0.120 C 
BRANCH  28  29
ATOM     29  C   UNL     1       8.323  -4.175  26.602  0.00  0.00    +0.011 C 
BRANCH  29  30
ATOM     30  C   UNL     1       8.688  -2.690  26.601  0.00  0.00    +0.001 C 
BRANCH  30  31
ATOM     31  C   UNL     1       7.438  -1.824  26.733  0.00  0.00    +0.000 C 
BRANCH  31  32
ATOM     32  C   UNL     1       7.805  -0.347  26.852  0.00  0.00    +0.000 C 
BRANCH  32  33
ATOM     33  C   UNL     1       6.738   0.527  26.203  0.00  0.00    +0.000 C 
BRANCH  33  34
ATOM     34  C   UNL     1       7.352   1.452  25.158  0.00  0.00    -0.000 C 
BRANCH  34  35
ATOM     35  C   UNL     1       7.813   2.761  25.791  0.00  0.00    -0.000 C 
BRANCH  35  36
ATOM     36  C   UNL     1       6.824   3.227  26.856  0.00  0.00    -0.000 C 
BRANCH  36  37
ATOM     37  C   UNL     1       5.906   4.318  26.312  0.00  0.00    -0.000 C 
BRANCH  37  38
ATOM     38  C   UNL     1       4.452   4.040  26.685  0.00  0.00    -0.000 C 
BRANCH  38  39
ATOM     39  C   UNL     1       3.876   2.907  25.838  0.00  0.00    -0.000 C 
BRANCH  39  40
ATOM     40  C   UNL     1       3.323   1.791  26.720  0.00  0.00    -0.000 C 
BRANCH  40  42
ATOM     41  C   UNL     1       4.263   0.969  28.902  0.00  0.00    +0.004 C 
ATOM     42  C   UNL     1       3.535   2.101  28.200  0.00  0.00    -0.003 C 
ENDBRANCH  40  42
ENDBRANCH  39  40
ENDBRANCH  38  39
ENDBRANCH  37  38
ENDBRANCH  36  37
ENDBRANCH  35  36
ENDBRANCH  34  35
ENDBRANCH  33  34
ENDBRANCH  32  33
ENDBRANCH  31  32
ENDBRANCH  30  31
ENDBRANCH  29  30
ENDBRANCH  28  29
ENDBRANCH  26  28
ENDBRANCH  25  26
ENDBRANCH  24  25
ENDBRANCH   1  24
BRANCH   1  43
ATOM     43  O   UNL     1       5.396  -3.546  21.511  0.00  0.00    -0.456 OA
BRANCH  43  44
ATOM     44  C   UNL     1       5.850  -2.750  22.523  0.00  0.00    +0.308 C 
ATOM     45  O   UNL     1       5.392  -2.635  23.643  0.00  0.00    -0.251 OA
BRANCH  44  46
ATOM     46  C   UNL     1       6.963  -1.862  22.085  0.00  0.00    +0.120 C 
BRANCH  46  47
ATOM     47  C   UNL     1       7.883  -1.544  23.248  0.00  0.00    +0.011 C 
BRANCH  47  48
ATOM     48  C   UNL     1       9.313  -1.984  22.958  0.00  0.00    +0.001 C 
BRANCH  48  49
ATOM     49  C   UNL     1      10.253  -0.782  22.985  0.00  0.00    +0.000 C 
BRANCH  49  50
ATOM     50  C   UNL     1      10.555  -0.367  24.422  0.00  0.00    +0.000 C 
BRANCH  50  51
ATOM     51  C   UNL     1      10.910   1.107  24.484  0.00  0.00    +0.004 C 
BRANCH  51  52
ATOM     52  C   UNL     1      10.569   1.799  23.170  0.00  0.00    +0.027 C 
BRANCH  52  53
ATOM     53  C   UNL     1      10.346   3.263  23.357  0.00  0.00    -0.031 C 
ATOM     54  C   UNL     1      11.324   4.173  23.363  0.00  0.00    -0.031 C 
BRANCH  54  55
ATOM     55  C   UNL     1      11.088   5.639  23.563  0.00  0.00    +0.027 C 
BRANCH  55  56
ATOM     56  C   UNL     1      10.004   5.870  24.614  0.00  0.00    +0.004 C 
BRANCH  56  57
ATOM     57  C   UNL     1       8.941   6.838  24.097  0.00  0.00    +0.000 C 
BRANCH  57  58
ATOM     58  C   UNL     1       8.327   6.335  22.793  0.00  0.00    +0.000 C 
BRANCH  58  59
ATOM     59  C   UNL     1       7.047   5.543  23.057  0.00  0.00    -0.000 C 
BRANCH  59  60
ATOM     60  C   UNL     1       7.013   4.262  22.225  0.00  0.00    -0.000 C 
BRANCH  60  61
ATOM     61  C   UNL     1       5.912   3.318  22.705  0.00  0.00    -0.003 C 
ATOM     62  C   UNL     1       4.538   3.804  22.274  0.00  0.00    +0.004 C 
ENDBRANCH  60  61
ENDBRANCH  59  60
ENDBRANCH  58  59
ENDBRANCH  57  58
ENDBRANCH  56  57
ENDBRANCH  55  56
ENDBRANCH  54  55
ENDBRANCH  52  53
ENDBRANCH  51  52
ENDBRANCH  50  51
ENDBRANCH  49  50
ENDBRANCH  48  49
ENDBRANCH  47  48
ENDBRANCH  46  47
ENDBRANCH  44  46
ENDBRANCH  43  44
ENDBRANCH   1  43
TORSDOF 44
ENDMDL
MODEL 3
REMARK VINA RESULT:      -4.8      2.466      5.464
REMARK  Name = 
REMARK  46 active torsions:
REMARK  status: ('A' for Active; 'I' for Inactive)
REMARK    1  A    between atoms: C_1  and  C_2
REMARK    2  A    between atoms: C_2  and  C_3
REMARK    3  A    between atoms: C_3  and  C_4
REMARK    4  A    between atoms: C_4  and  C_5
REMARK    5  A    between atoms: C_5  and  C_6
REMARK    6  A    between atoms: C_6  and  C_7
REMARK    7  A    between atoms: C_7  and  C_8
REMARK    8  A    between atoms: C_8  and  C_9
REMARK    9  A    between atoms: C_9  and  C_10
REMARK   10  A    between atoms: C_10  and  C_11
REMARK   11  A    between atoms: C_11  and  C_12
REMARK   12  A    between atoms: C_12  and  C_13
REMARK   13  A    between atoms: C_13  and  C_14
REMARK   14  A    between atoms: C_14  and  C_15
REMARK   15  A    between atoms: C_15  and  C_16
REMARK   16  A    between atoms: C_16  and  O_18
REMARK   17  A    between atoms: O_18  and  C_19
REMARK   18  A    between atoms: C_19  and  C_20
REMARK   19  A    between atoms: C_20  and  C_22
REMARK   20  A    between atoms: C_20  and  O_45
REMARK   21  A    between atoms: C_22  and  O_23
REMARK   22  A    between atoms: O_23  and  P_24
REMARK   23  A    between atoms: P_24  and  O_27
REMARK   24  A    between atoms: O_27  and  C_28
REMARK   25  A    between atoms: C_30  and  O_32
REMARK   26  A    between atoms: C_33  and  O_35
REMARK   27  A    between atoms: C_36  and  O_38
REMARK   28  A    between atoms: C_39  and  O_41
REMARK   29  A    between atoms: C_42  and  O_44
REMARK   30  A    between atoms: O_45  and  C_46
REMARK   31  A    between atoms: C_46  and  C_48
REMARK   32  A    between atoms: C_48  and  C_49
REMARK   33  A    between atoms: C_49  and  C_50
REMARK   34  A    between atoms: C_50  and  C_51
REMARK   35  A    between atoms: C_51  and  C_52
REMARK   36  A    between atoms: C_52  and  C_53
REMARK   37  A    between atoms: C_53  and  C_54
REMARK   38  A    between atoms: C_54  and  C_55
REMARK   39  A    between atoms: C_56  and  C_57
REMARK   40  A    between atoms: C_57  and  C_58
REMARK   41  A    between atoms: C_58  and  C_59
REMARK   42  A    between atoms: C_59  and  C_60
REMARK   43  A    between atoms: C_60  and  C_61
REMARK   44  A    between atoms: C_61  and  C_62
REMARK   45  A    between atoms: C_62  and  C_63
REMARK   46  A    between atoms: C_63  and  C_64
REMARK                            x       y       z     vdW  Elec       q    Type
REMARK                         _______ _______ _______ _____ _____    ______ ____
ROOT
ATOM      1  C   UNL     1       8.778  -1.093  22.776  0.00  0.00    +0.240 C 
ENDROOT
BRANCH   1   2
ATOM      2  C   UNL     1       7.883  -2.172  22.121  0.00  0.00    +0.216 C 
BRANCH   2   3
ATOM      3  O   UNL     1       7.822  -3.479  22.709  0.00  0.00    -0.324 OA
BRANCH   3   4
ATOM      4  P   UNL     1       6.732  -4.615  22.308  0.00  0.00    +0.213 P 
ATOM      5  O   UNL     1       7.360  -5.965  22.493  0.00  0.00    -0.437 OA
ATOM      6  O   UNL     1       5.958  -4.147  21.114  0.00  0.00    -0.517 OA
BRANCH   4   7
ATOM      7  O   UNL     1       5.722  -4.503  23.577  0.00  0.00    -0.319 OA
BRANCH   7   8
ATOM      8  C   UNL     1       5.798  -5.550  24.545  0.00  0.00    +0.188 C 
ATOM      9  C   UNL     1       6.448  -4.940  25.778  0.00  0.00    +0.177 C 
ATOM     10  C   UNL     1       6.431  -5.895  26.952  0.00  0.00    +0.177 C 
ATOM     11  C   UNL     1       5.064  -6.536  27.195  0.00  0.00    +0.176 C 
ATOM     12  C   UNL     1       4.527  -7.197  25.922  0.00  0.00    +0.177 C 
ATOM     13  C   UNL     1       4.415  -6.174  24.783  0.00  0.00    +0.177 C 
BRANCH  13  14
ATOM     14  O   UNL     1       3.923  -6.895  23.636  0.00  0.00    -0.386 OA
ATOM     15  H   UNL     1       3.680  -7.795  23.951  0.00  0.00    +0.210 HD
ENDBRANCH  13  14
BRANCH   9  16
ATOM     16  O   UNL     1       7.840  -4.654  25.520  0.00  0.00    -0.386 OA
ATOM     17  H   UNL     1       8.249  -4.399  26.371  0.00  0.00    +0.210 HD
ENDBRANCH   9  16
BRANCH  10  18
ATOM     18  O   UNL     1       6.817  -5.165  28.126  0.00  0.00    -0.386 OA
ATOM     19  H   UNL     1       7.589  -4.652  27.837  0.00  0.00    +0.210 HD
ENDBRANCH  10  18
BRANCH  11  20
ATOM     20  O   UNL     1       5.244  -7.502  28.249  0.00  0.00    -0.386 OA
ATOM     21  H   UNL     1       4.495  -8.124  28.181  0.00  0.00    +0.210 HD
ENDBRANCH  11  20
BRANCH  12  22
ATOM     22  O   UNL     1       3.253  -7.802  26.188  0.00  0.00    -0.386 OA
ATOM     23  H   UNL     1       2.632  -7.043  26.234  0.00  0.00    +0.210 HD
ENDBRANCH  12  22
ENDBRANCH   7   8
ENDBRANCH   4   7
ENDBRANCH   3   4
ENDBRANCH   2   3
ENDBRANCH   1   2
BRANCH   1  24
ATOM     24  C   UNL     1       9.819  -0.536  21.785  0.00  0.00    +0.279 C 
BRANCH  24  25
ATOM     25  O   UNL     1       9.253   0.587  21.091  0.00  0.00    -0.461 OA
BRANCH  25  26
ATOM     26  C   UNL     1       9.114   1.721  21.837  0.00  0.00    +0.307 C 
ATOM     27  O   UNL     1      10.010   2.261  22.469  0.00  0.00    -0.251 OA
BRANCH  26  28
ATOM     28  C   UNL     1       7.686   2.205  21.766  0.00  0.00    +0.120 C 
BRANCH  28  29
ATOM     29  C   UNL     1       7.409   3.324  22.760  0.00  0.00    +0.011 C 
BRANCH  29  30
ATOM     30  C   UNL     1       6.046   3.976  22.527  0.00  0.00    +0.001 C 
BRANCH  30  31
ATOM     31  C   UNL     1       6.115   5.481  22.771  0.00  0.00    +0.000 C 
BRANCH  31  32
ATOM     32  C   UNL     1       7.315   6.097  22.057  0.00  0.00    +0.000 C 
BRANCH  32  33
ATOM     33  C   UNL     1       8.121   6.969  23.014  0.00  0.00    +0.000 C 
BRANCH  33  34
ATOM     34  C   UNL     1       9.438   6.295  23.387  0.00  0.00    -0.000 C 
BRANCH  34  35
ATOM     35  C   UNL     1       9.765   6.515  24.861  0.00  0.00    -0.000 C 
BRANCH  35  36
ATOM     36  C   UNL     1       8.529   6.301  25.729  0.00  0.00    -0.000 C 
BRANCH  36  37
ATOM     37  C   UNL     1       8.237   4.815  25.910  0.00  0.00    -0.000 C 
BRANCH  37  38
ATOM     38  C   UNL     1       6.787   4.593  26.335  0.00  0.00    -0.000 C 
BRANCH  38  39
ATOM     39  C   UNL     1       6.515   5.216  27.702  0.00  0.00    -0.000 C 
BRANCH  39  40
ATOM     40  C   UNL     1       5.336   6.184  27.638  0.00  0.00    -0.000 C 
BRANCH  40  42
ATOM     41  C   UNL     1       3.274   6.529  26.240  0.00  0.00    +0.004 C 
ATOM     42  C   UNL     1       4.771   6.272  26.222  0.00  0.00    -0.003 C 
ENDBRANCH  40  42
ENDBRANCH  39  40
ENDBRANCH  38  39
ENDBRANCH  37  38
ENDBRANCH  36  37
ENDBRANCH  35  36
ENDBRANCH  34  35
ENDBRANCH  33  34
ENDBRANCH  32  33
ENDBRANCH  31  32
ENDBRANCH  30  31
ENDBRANCH  29  30
ENDBRANCH  28  29
ENDBRANCH  26  28
ENDBRANCH  25  26
ENDBRANCH  24  25
ENDBRANCH   1  24
BRANCH   1  43
ATOM     43  O   UNL     1       9.495  -1.540  23.940  0.00  0.00    -0.456 OA
BRANCH  43  44
ATOM     44  C   UNL     1       9.783  -0.526  24.807  0.00  0.00    +0.308 C 
ATOM     45  O   UNL     1      10.815   0.112  24.892  0.00  0.00    -0.251 OA
BRANCH  44  46
ATOM     46  C   UNL     1       8.705  -0.321  25.815  0.00  0.00    +0.120 C 
BRANCH  46  47
ATOM     47  C   UNL     1       8.033   1.023  25.615  0.00  0.00    +0.011 C 
BRANCH  47  48
ATOM     48  C   UNL     1       6.532   0.934  25.863  0.00  0.00    +0.001 C 
BRANCH  48  49
ATOM     49  C   UNL     1       5.904  -0.107  24.940  0.00  0.00    +0.000 C 
BRANCH  49  50
ATOM     50  C   UNL     1       4.919  -0.983  25.708  0.00  0.00    +0.000 C 
BRANCH  50  51
ATOM     51  C   UNL     1       5.617  -1.678  26.862  0.00  0.00    +0.004 C 
BRANCH  51  52
ATOM     52  C   UNL     1       4.694  -1.773  28.071  0.00  0.00    +0.027 C 
BRANCH  52  53
ATOM     53  C   UNL     1       4.219  -0.429  28.512  0.00  0.00    -0.031 C 
ATOM     54  C   UNL     1       4.983   0.460  29.154  0.00  0.00    -0.031 C 
BRANCH  54  55
ATOM     55  C   UNL     1       4.490   1.802  29.601  0.00  0.00    +0.027 C 
BRANCH  55  56
ATOM     56  C   UNL     1       3.262   2.220  28.795  0.00  0.00    +0.004 C 
BRANCH  56  57
ATOM     57  C   UNL     1       3.672   2.927  27.504  0.00  0.00    +0.000 C 
BRANCH  57  58
ATOM     58  C   UNL     1       3.040   2.258  26.286  0.00  0.00    +0.000 C 
BRANCH  58  59
ATOM     59  C   UNL     1       3.401   3.003  25.001  0.00  0.00    -0.000 C 
BRANCH  59  60
ATOM     60  C   UNL     1       2.147   3.499  24.284  0.00  0.00    -0.000 C 
BRANCH  60  61
ATOM     61  C   UNL     1       2.468   3.970  22.866  0.00  0.00    -0.003 C 
ATOM     62  C   UNL     1       2.363   5.481  22.746  0.00  0.00    +0.004 C 
ENDBRANCH  60  61
ENDBRANCH  59  60
ENDBRANCH  58  59
ENDBRANCH  57  58
ENDBRANCH  56  57
ENDBRANCH  55  56
ENDBRANCH  54  55
ENDBRANCH  52  53
ENDBRANCH  51  52
ENDBRANCH  50  51
ENDBRANCH  49  50
ENDBRANCH  48  49
ENDBRANCH  47  48
ENDBRANCH  46  47
ENDBRANCH  44  46
ENDBRANCH  43  44
ENDBRANCH   1  43
TORSDOF 44
ENDMDL
MODEL 4
REMARK VINA RESULT:      -4.8      1.918      5.773
REMARK  Name = 
REMARK  46 active torsions:
REMARK  status: ('A' for Active; 'I' for Inactive)
REMARK    1  A    between atoms: C_1  and  C_2
REMARK    2  A    between atoms: C_2  and  C_3
REMARK    3  A    between atoms: C_3  and  C_4
REMARK    4  A    between atoms: C_4  and  C_5
REMARK    5  A    between atoms: C_5  and  C_6
REMARK    6  A    between atoms: C_6  and  C_7
REMARK    7  A    between atoms: C_7  and  C_8
REMARK    8  A    between atoms: C_8  and  C_9
REMARK    9  A    between atoms: C_9  and  C_10
REMARK   10  A    between atoms: C_10  and  C_11
REMARK   11  A    between atoms: C_11  and  C_12
REMARK   12  A    between atoms: C_12  and  C_13
REMARK   13  A    between atoms: C_13  and  C_14
REMARK   14  A    between atoms: C_14  and  C_15
REMARK   15  A    between atoms: C_15  and  C_16
REMARK   16  A    between atoms: C_16  and  O_18
REMARK   17  A    between atoms: O_18  and  C_19
REMARK   18  A    between atoms: C_19  and  C_20
REMARK   19  A    between atoms: C_20  and  C_22
REMARK   20  A    between atoms: C_20  and  O_45
REMARK   21  A    between atoms: C_22  and  O_23
REMARK   22  A    between atoms: O_23  and  P_24
REMARK   23  A    between atoms: P_24  and  O_27
REMARK   24  A    between atoms: O_27  and  C_28
REMARK   25  A    between atoms: C_30  and  O_32
REMARK   26  A    between atoms: C_33  and  O_35
REMARK   27  A    between atoms: C_36  and  O_38
REMARK   28  A    between atoms: C_39  and  O_41
REMARK   29  A    between atoms: C_42  and  O_44
REMARK   30  A    between atoms: O_45  and  C_46
REMARK   31  A    between atoms: C_46  and  C_48
REMARK   32  A    between atoms: C_48  and  C_49
REMARK   33  A    between atoms: C_49  and  C_50
REMARK   34  A    between atoms: C_50  and  C_51
REMARK   35  A    between atoms: C_51  and  C_52
REMARK   36  A    between atoms: C_52  and  C_53
REMARK   37  A    between atoms: C_53  and  C_54
REMARK   38  A    between atoms: C_54  and  C_55
REMARK   39  A    between atoms: C_56  and  C_57
REMARK   40  A    between atoms: C_57  and  C_58
REMARK   41  A    between atoms: C_58  and  C_59
REMARK   42  A    between atoms: C_59  and  C_60
REMARK   43  A    between atoms: C_60  and  C_61
REMARK   44  A    between atoms: C_61  and  C_62
REMARK   45  A    between atoms: C_62  and  C_63
REMARK   46  A    between atoms: C_63  and  C_64
REMARK                            x       y       z     vdW  Elec       q    Type
REMARK                         _______ _______ _______ _____ _____    ______ ____
ROOT
ATOM      1  C   UNL     1       8.199  -2.002  23.039  0.00  0.00    +0.240 C 
ENDROOT
BRANCH   1   2
ATOM      2  C   UNL     1       7.698  -2.879  21.868  0.00  0.00    +0.216 C 
BRANCH   2   3
ATOM      3  O   UNL     1       7.394  -4.260  22.109  0.00  0.00    -0.324 OA
BRANCH   3   4
ATOM      4  P   UNL     1       5.912  -4.911  21.977  0.00  0.00    +0.213 P 
ATOM      5  O   UNL     1       5.911  -5.864  20.818  0.00  0.00    -0.437 OA
ATOM      6  O   UNL     1       4.889  -3.855  22.266  0.00  0.00    -0.517 OA
BRANCH   4   7
ATOM      7  O   UNL     1       5.919  -5.902  23.266  0.00  0.00    -0.319 OA
BRANCH   7   8
ATOM      8  C   UNL     1       6.016  -5.279  24.547  0.00  0.00    +0.188 C 
ATOM      9  C   UNL     1       4.754  -5.671  25.304  0.00  0.00    +0.177 C 
ATOM     10  C   UNL     1       4.805  -5.224  26.749  0.00  0.00    +0.177 C 
ATOM     11  C   UNL     1       6.115  -5.583  27.450  0.00  0.00    +0.176 C 
ATOM     12  C   UNL     1       7.326  -5.077  26.661  0.00  0.00    +0.177 C 
ATOM     13  C   UNL     1       7.332  -5.661  25.241  0.00  0.00    +0.177 C 
BRANCH  13  14
ATOM     14  O   UNL     1       8.490  -5.112  24.581  0.00  0.00    -0.386 OA
ATOM     15  H   UNL     1       8.224  -4.924  23.653  0.00  0.00    +0.210 HD
ENDBRANCH  13  14
BRANCH   9  16
ATOM     16  O   UNL     1       3.602  -5.017  24.727  0.00  0.00    -0.386 OA
ATOM     17  H   UNL     1       2.807  -5.450  25.096  0.00  0.00    +0.210 HD
ENDBRANCH   9  16
BRANCH  10  18
ATOM     18  O   UNL     1       3.717  -5.847  27.447  0.00  0.00    -0.386 OA
ATOM     19  H   UNL     1       3.282  -5.110  27.903  0.00  0.00    +0.210 HD
ENDBRANCH  10  18
BRANCH  11  20
ATOM     20  O   UNL     1       6.059  -4.983  28.760  0.00  0.00    -0.386 OA
ATOM     21  H   UNL     1       6.652  -5.510  29.328  0.00  0.00    +0.210 HD
ENDBRANCH  11  20
BRANCH  12  22
ATOM     22  O   UNL     1       8.536  -5.416  27.354  0.00  0.00    -0.386 OA
ATOM     23  H   UNL     1       9.211  -4.821  26.962  0.00  0.00    +0.210 HD
ENDBRANCH  12  22
ENDBRANCH   7   8
ENDBRANCH   4   7
ENDBRANCH   3   4
ENDBRANCH   2   3
ENDBRANCH   1   2
BRANCH   1  24
ATOM     24  C   UNL     1       9.738  -2.010  23.141  0.00  0.00    +0.279 C 
BRANCH  24  25
ATOM     25  O   UNL     1      10.279  -1.145  22.129  0.00  0.00    -0.461 OA
BRANCH  25  26
ATOM     26  C   UNL     1       9.981   0.179  22.277  0.00  0.00    +0.307 C 
ATOM     27  O   UNL     1       9.464   0.883  21.423  0.00  0.00    -0.251 OA
BRANCH  26  28
ATOM     28  C   UNL     1      10.391   0.641  23.655  0.00  0.00    +0.120 C 
BRANCH  28  29
ATOM     29  C   UNL     1      10.153   2.131  23.855  0.00  0.00    +0.011 C 
BRANCH  29  30
ATOM     30  C   UNL     1       8.966   2.404  24.779  0.00  0.00    +0.001 C 
BRANCH  30  31
ATOM     31  C   UNL     1       7.683   2.592  23.973  0.00  0.00    +0.000 C 
BRANCH  31  32
ATOM     32  C   UNL     1       6.456   2.226  24.803  0.00  0.00    +0.000 C 
BRANCH  32  33
ATOM     33  C   UNL     1       5.189   2.796  24.173  0.00  0.00    +0.000 C 
BRANCH  33  34
ATOM     34  C   UNL     1       4.087   2.958  25.214  0.00  0.00    -0.000 C 
BRANCH  34  35
ATOM     35  C   UNL     1       3.852   4.431  25.534  0.00  0.00    -0.000 C 
BRANCH  35  36
ATOM     36  C   UNL     1       2.776   5.019  24.625  0.00  0.00    -0.000 C 
BRANCH  36  37
ATOM     37  C   UNL     1       3.381   5.997  23.622  0.00  0.00    -0.000 C 
BRANCH  37  38
ATOM     38  C   UNL     1       3.121   5.536  22.190  0.00  0.00    -0.000 C 
BRANCH  38  39
ATOM     39  C   UNL     1       2.028   4.471  22.148  0.00  0.00    -0.000 C 
BRANCH  39  40
ATOM     40  C   UNL     1       2.526   3.203  21.458  0.00  0.00    -0.000 C 
BRANCH  40  42
ATOM     41  C   UNL     1       1.725   3.447  19.087  0.00  0.00    +0.004 C 
ATOM     42  C   UNL     1       1.531   2.720  20.406  0.00  0.00    -0.003 C 
ENDBRANCH  40  42
ENDBRANCH  39  40
ENDBRANCH  38  39
ENDBRANCH  37  38
ENDBRANCH  36  37
ENDBRANCH  35  36
ENDBRANCH  34  35
ENDBRANCH  33  34
ENDBRANCH  32  33
ENDBRANCH  31  32
ENDBRANCH  30  31
ENDBRANCH  29  30
ENDBRANCH  28  29
ENDBRANCH  26  28
ENDBRANCH  25  26
ENDBRANCH  24  25
ENDBRANCH   1  24
BRANCH   1  43
ATOM     43  O   UNL     1       7.687  -2.380  24.329  0.00  0.00    -0.456 OA
BRANCH  43  44
ATOM     44  C   UNL     1       6.623  -1.620  24.721  0.00  0.00    +0.308 C 
ATOM     45  O   UNL     1       5.799  -1.070  24.016  0.00  0.00    -0.251 OA
BRANCH  44  46
ATOM     46  C   UNL     1       6.611  -1.384  26.192  0.00  0.00    +0.120 C 
BRANCH  46  47
ATOM     47  C   UNL     1       8.025  -1.281  26.730  0.00  0.00    +0.011 C 
BRANCH  47  48
ATOM     48  C   UNL     1       8.212  -0.013  27.554  0.00  0.00    +0.001 C 
BRANCH  48  49
ATOM     49  C   UNL     1       6.858   0.534  27.999  0.00  0.00    +0.000 C 
BRANCH  49  50
ATOM     50  C   UNL     1       7.032   1.829  28.786  0.00  0.00    +0.000 C 
BRANCH  50  51
ATOM     51  C   UNL     1       5.928   2.811  28.442  0.00  0.00    +0.004 C 
BRANCH  51  52
ATOM     52  C   UNL     1       6.182   4.161  29.100  0.00  0.00    +0.027 C 
BRANCH  52  53
ATOM     53  C   UNL     1       7.001   5.056  28.231  0.00  0.00    -0.031 C 
ATOM     54  C   UNL     1       6.862   5.142  26.905  0.00  0.00    -0.031 C 
BRANCH  54  55
ATOM     55  C   UNL     1       7.698   6.036  26.043  0.00  0.00    +0.027 C 
BRANCH  55  56
ATOM     56  C   UNL     1       6.943   6.416  24.771  0.00  0.00    +0.004 C 
BRANCH  56  57
ATOM     57  C   UNL     1       7.812   6.196  23.534  0.00  0.00    +0.000 C 
BRANCH  57  58
ATOM     58  C   UNL     1       9.229   6.718  23.758  0.00  0.00    +0.000 C 
BRANCH  58  59
ATOM     59  C   UNL     1      10.269   5.654  23.408  0.00  0.00    -0.000 C 
BRANCH  59  60
ATOM     60  C   UNL     1      11.630   5.999  24.009  0.00  0.00    -0.000 C 
BRANCH  60  61
ATOM     61  C   UNL     1      12.730   5.103  23.440  0.00  0.00    -0.003 C 
ATOM     62  C   UNL     1      13.258   5.642  22.121  0.00  0.00    +0.004 C 
ENDBRANCH  60  61
ENDBRANCH  59  60
ENDBRANCH  58  59
ENDBRANCH  57  58
ENDBRANCH  56  57
ENDBRANCH  55  56
ENDBRANCH  54  55
ENDBRANCH  52  53
ENDBRANCH  51  52
ENDBRANCH  50  51
ENDBRANCH  49  50
ENDBRANCH  48  49
ENDBRANCH  47  48
ENDBRANCH  46  47
ENDBRANCH  44  46
ENDBRANCH  43  44
ENDBRANCH   1  43
TORSDOF 44
ENDMDL
MODEL 5
REMARK VINA RESULT:      -4.7      2.515      6.092
REMARK  Name = 
REMARK  46 active torsions:
REMARK  status: ('A' for Active; 'I' for Inactive)
REMARK    1  A    between atoms: C_1  and  C_2
REMARK    2  A    between atoms: C_2  and  C_3
REMARK    3  A    between atoms: C_3  and  C_4
REMARK    4  A    between atoms: C_4  and  C_5
REMARK    5  A    between atoms: C_5  and  C_6
REMARK    6  A    between atoms: C_6  and  C_7
REMARK    7  A    between atoms: C_7  and  C_8
REMARK    8  A    between atoms: C_8  and  C_9
REMARK    9  A    between atoms: C_9  and  C_10
REMARK   10  A    between atoms: C_10  and  C_11
REMARK   11  A    between atoms: C_11  and  C_12
REMARK   12  A    between atoms: C_12  and  C_13
REMARK   13  A    between atoms: C_13  and  C_14
REMARK   14  A    between atoms: C_14  and  C_15
REMARK   15  A    between atoms: C_15  and  C_16
REMARK   16  A    between atoms: C_16  and  O_18
REMARK   17  A    between atoms: O_18  and  C_19
REMARK   18  A    between atoms: C_19  and  C_20
REMARK   19  A    between atoms: C_20  and  C_22
REMARK   20  A    between atoms: C_20  and  O_45
REMARK   21  A    between atoms: C_22  and  O_23
REMARK   22  A    between atoms: O_23  and  P_24
REMARK   23  A    between atoms: P_24  and  O_27
REMARK   24  A    between atoms: O_27  and  C_28
REMARK   25  A    between atoms: C_30  and  O_32
REMARK   26  A    between atoms: C_33  and  O_35
REMARK   27  A    between atoms: C_36  and  O_38
REMARK   28  A    between atoms: C_39  and  O_41
REMARK   29  A    between atoms: C_42  and  O_44
REMARK   30  A    between atoms: O_45  and  C_46
REMARK   31  A    between atoms: C_46  and  C_48
REMARK   32  A    between atoms: C_48  and  C_49
REMARK   33  A    between atoms: C_49  and  C_50
REMARK   34  A    between atoms: C_50  and  C_51
REMARK   35  A    between atoms: C_51  and  C_52
REMARK   36  A    between atoms: C_52  and  C_53
REMARK   37  A    between atoms: C_53  and  C_54
REMARK   38  A    between atoms: C_54  and  C_55
REMARK   39  A    between atoms: C_56  and  C_57
REMARK   40  A    between atoms: C_57  and  C_58
REMARK   41  A    between atoms: C_58  and  C_59
REMARK   42  A    between atoms: C_59  and  C_60
REMARK   43  A    between atoms: C_60  and  C_61
REMARK   44  A    between atoms: C_61  and  C_62
REMARK   45  A    between atoms: C_62  and  C_63
REMARK   46  A    between atoms: C_63  and  C_64
REMARK                            x       y       z     vdW  Elec       q    Type
REMARK                         _______ _______ _______ _____ _____    ______ ____
ROOT
ATOM      1  C   UNL     1       8.862  -1.450  22.868  0.00  0.00    +0.240 C 
ENDROOT
BRANCH   1   2
ATOM      2  C   UNL     1       8.240  -2.556  21.982  0.00  0.00    +0.216 C 
BRANCH   2   3
ATOM      3  O   UNL     1       7.714  -3.736  22.605  0.00  0.00    -0.324 OA
BRANCH   3   4
ATOM      4  P   UNL     1       6.304  -4.434  22.203  0.00  0.00    +0.213 P 
ATOM      5  O   UNL     1       6.522  -5.914  22.080  0.00  0.00    -0.437 OA
ATOM      6  O   UNL     1       5.585  -3.554  21.228  0.00  0.00    -0.517 OA
BRANCH   4   7
ATOM      7  O   UNL     1       5.506  -4.298  23.613  0.00  0.00    -0.319 OA
BRANCH   7   8
ATOM      8  C   UNL     1       5.684  -5.360  24.550  0.00  0.00    +0.188 C 
ATOM      9  C   UNL     1       6.267  -4.723  25.804  0.00  0.00    +0.177 C 
ATOM     10  C   UNL     1       6.343  -5.709  26.950  0.00  0.00    +0.177 C 
ATOM     11  C   UNL     1       5.047  -6.490  27.168  0.00  0.00    +0.176 C 
ATOM     12  C   UNL     1       4.580  -7.164  25.875  0.00  0.00    +0.177 C 
ATOM     13  C   UNL     1       4.369  -6.125  24.765  0.00  0.00    +0.177 C 
BRANCH  13  14
ATOM     14  O   UNL     1       3.954  -6.858  23.595  0.00  0.00    -0.386 OA
ATOM     15  H   UNL     1       3.059  -6.527  23.357  0.00  0.00    +0.210 HD
ENDBRANCH  13  14
BRANCH   9  16
ATOM     16  O   UNL     1       7.624  -4.293  25.561  0.00  0.00    -0.386 OA
ATOM     17  H   UNL     1       7.952  -4.787  24.783  0.00  0.00    +0.210 HD
ENDBRANCH   9  16
BRANCH  10  18
ATOM     18  O   UNL     1       6.652  -4.979  28.146  0.00  0.00    -0.386 OA
ATOM     19  H   UNL     1       7.307  -5.536  28.596  0.00  0.00    +0.210 HD
ENDBRANCH  10  18
BRANCH  11  20
ATOM     20  O   UNL     1       5.320  -7.464  28.195  0.00  0.00    -0.386 OA
ATOM     21  H   UNL     1       4.961  -7.095  29.023  0.00  0.00    +0.210 HD
ENDBRANCH  11  20
BRANCH  12  22
ATOM     22  O   UNL     1       3.373  -7.901  26.117  0.00  0.00    -0.386 OA
ATOM     23  H   UNL     1       3.562  -8.795  25.758  0.00  0.00    +0.210 HD
ENDBRANCH  12  22
ENDBRANCH   7   8
ENDBRANCH   4   7
ENDBRANCH   3   4
ENDBRANCH   2   3
ENDBRANCH   1   2
BRANCH   1  24
ATOM     24  C   UNL     1      10.121  -0.841  22.222  0.00  0.00    +0.279 C 
BRANCH  24  25
ATOM     25  O   UNL     1       9.741   0.298  21.434  0.00  0.00    -0.461 OA
BRANCH  25  26
ATOM     26  C   UNL     1       9.499   1.439  22.143  0.00  0.00    +0.307 C 
ATOM     27  O   UNL     1      10.291   1.976  22.905  0.00  0.00    -0.251 OA
BRANCH  26  28
ATOM     28  C   UNL     1       8.105   1.936  21.848  0.00  0.00    +0.120 C 
BRANCH  28  29
ATOM     29  C   UNL     1       7.745   3.163  22.674  0.00  0.00    +0.011 C 
BRANCH  29  30
ATOM     30  C   UNL     1       6.379   3.733  22.293  0.00  0.00    +0.001 C 
BRANCH  30  31
ATOM     31  C   UNL     1       6.307   5.226  22.605  0.00  0.00    +0.000 C 
BRANCH  31  32
ATOM     32  C   UNL     1       7.514   5.964  22.032  0.00  0.00    +0.000 C 
BRANCH  32  33
ATOM     33  C   UNL     1       8.164   6.842  23.097  0.00  0.00    +0.000 C 
BRANCH  33  34
ATOM     34  C   UNL     1       9.494   6.250  23.553  0.00  0.00    -0.000 C 
BRANCH  34  35
ATOM     35  C   UNL     1       9.727   6.515  25.038  0.00  0.00    -0.000 C 
BRANCH  35  36
ATOM     36  C   UNL     1       8.417   6.436  25.815  0.00  0.00    -0.000 C 
BRANCH  36  37
ATOM     37  C   UNL     1       7.998   4.985  26.037  0.00  0.00    -0.000 C 
BRANCH  37  38
ATOM     38  C   UNL     1       6.477   4.855  26.050  0.00  0.00    -0.000 C 
BRANCH  38  39
ATOM     39  C   UNL     1       5.815   6.196  26.357  0.00  0.00    -0.000 C 
BRANCH  39  40
ATOM     40  C   UNL     1       4.477   6.324  25.633  0.00  0.00    -0.000 C 
BRANCH  40  42
ATOM     41  C   UNL     1       3.410   6.276  27.910  0.00  0.00    +0.004 C 
ATOM     42  C   UNL     1       3.335   5.767  26.481  0.00  0.00    -0.003 C 
ENDBRANCH  40  42
ENDBRANCH  39  40
ENDBRANCH  38  39
ENDBRANCH  37  38
ENDBRANCH  36  37
ENDBRANCH  35  36
ENDBRANCH  34  35
ENDBRANCH  33  34
ENDBRANCH  32  33
ENDBRANCH  31  32
ENDBRANCH  30  31
ENDBRANCH  29  30
ENDBRANCH  28  29
ENDBRANCH  26  28
ENDBRANCH  25  26
ENDBRANCH  24  25
ENDBRANCH   1  24
BRANCH   1  43
ATOM     43  O   UNL     1       9.230  -1.882  24.190  0.00  0.00    -0.456 OA
BRANCH  43  44
ATOM     44  C   UNL     1       9.176  -0.877  25.112  0.00  0.00    +0.308 C 
ATOM     45  O   UNL     1      10.086  -0.165  25.492  0.00  0.00    -0.251 OA
BRANCH  44  46
ATOM     46  C   UNL     1       7.843  -0.787  25.771  0.00  0.00    +0.120 C 
BRANCH  46  47
ATOM     47  C   UNL     1       7.191   0.551  25.479  0.00  0.00    +0.011 C 
BRANCH  47  48
ATOM     48  C   UNL     1       7.177   1.440  26.717  0.00  0.00    +0.001 C 
BRANCH  48  49
ATOM     49  C   UNL     1       7.343   0.595  27.978  0.00  0.00    +0.000 C 
BRANCH  49  50
ATOM     50  C   UNL     1       6.683   1.275  29.173  0.00  0.00    +0.000 C 
BRANCH  50  51
ATOM     51  C   UNL     1       6.664   2.781  28.982  0.00  0.00    +0.004 C 
BRANCH  51  52
ATOM     52  C   UNL     1       5.272   3.341  29.248  0.00  0.00    +0.027 C 
BRANCH  52  53
ATOM     53  C   UNL     1       4.202   2.393  28.818  0.00  0.00    -0.031 C 
ATOM     54  C   UNL     1       3.762   2.285  27.561  0.00  0.00    -0.031 C 
BRANCH  54  55
ATOM     55  C   UNL     1       2.679   1.337  27.145  0.00  0.00    +0.027 C 
BRANCH  55  56
ATOM     56  C   UNL     1       2.957  -0.066  27.680  0.00  0.00    +0.004 C 
BRANCH  56  57
ATOM     57  C   UNL     1       4.048  -0.755  26.861  0.00  0.00    +0.000 C 
BRANCH  57  58
ATOM     58  C   UNL     1       4.748  -1.838  27.680  0.00  0.00    +0.000 C 
BRANCH  58  59
ATOM     59  C   UNL     1       3.950  -2.177  28.939  0.00  0.00    -0.000 C 
BRANCH  59  60
ATOM     60  C   UNL     1       3.432  -3.613  28.890  0.00  0.00    -0.000 C 
BRANCH  60  61
ATOM     61  C   UNL     1       1.992  -3.667  28.382  0.00  0.00    -0.003 C 
ATOM     62  C   UNL     1       1.901  -4.396  27.051  0.00  0.00    +0.004 C 
ENDBRANCH  60  61
ENDBRANCH  59  60
ENDBRANCH  58  59
ENDBRANCH  57  58
ENDBRANCH  56  57
ENDBRANCH  55  56
ENDBRANCH  54  55
ENDBRANCH  52  53
ENDBRANCH  51  52
ENDBRANCH  50  51
ENDBRANCH  49  50
ENDBRANCH  48  49
ENDBRANCH  47  48
ENDBRANCH  46  47
ENDBRANCH  44  46
ENDBRANCH  43  44
ENDBRANCH   1  43
TORSDOF 44
ENDMDL
MODEL 6
REMARK VINA RESULT:      -4.7      2.721      7.552
REMARK  Name = 
REMARK  46 active torsions:
REMARK  status: ('A' for Active; 'I' for Inactive)
REMARK    1  A    between atoms: C_1  and  C_2
REMARK    2  A    between atoms: C_2  and  C_3
REMARK    3  A    between atoms: C_3  and  C_4
REMARK    4  A    between atoms: C_4  and  C_5
REMARK    5  A    between atoms: C_5  and  C_6
REMARK    6  A    between atoms: C_6  and  C_7
REMARK    7  A    between atoms: C_7  and  C_8
REMARK    8  A    between atoms: C_8  and  C_9
REMARK    9  A    between atoms: C_9  and  C_10
REMARK   10  A    between atoms: C_10  and  C_11
REMARK   11  A    between atoms: C_11  and  C_12
REMARK   12  A    between atoms: C_12  and  C_13
REMARK   13  A    between atoms: C_13  and  C_14
REMARK   14  A    between atoms: C_14  and  C_15
REMARK   15  A    between atoms: C_15  and  C_16
REMARK   16  A    between atoms: C_16  and  O_18
REMARK   17  A    between atoms: O_18  and  C_19
REMARK   18  A    between atoms: C_19  and  C_20
REMARK   19  A    between atoms: C_20  and  C_22
REMARK   20  A    between atoms: C_20  and  O_45
REMARK   21  A    between atoms: C_22  and  O_23
REMARK   22  A    between atoms: O_23  and  P_24
REMARK   23  A    between atoms: P_24  and  O_27
REMARK   24  A    between atoms: O_27  and  C_28
REMARK   25  A    between atoms: C_30  and  O_32
REMARK   26  A    between atoms: C_33  and  O_35
REMARK   27  A    between atoms: C_36  and  O_38
REMARK   28  A    between atoms: C_39  and  O_41
REMARK   29  A    between atoms: C_42  and  O_44
REMARK   30  A    between atoms: O_45  and  C_46
REMARK   31  A    between atoms: C_46  and  C_48
REMARK   32  A    between atoms: C_48  and  C_49
REMARK   33  A    between atoms: C_49  and  C_50
REMARK   34  A    between atoms: C_50  and  C_51
REMARK   35  A    between atoms: C_51  and  C_52
REMARK   36  A    between atoms: C_52  and  C_53
REMARK   37  A    between atoms: C_53  and  C_54
REMARK   38  A    between atoms: C_54  and  C_55
REMARK   39  A    between atoms: C_56  and  C_57
REMARK   40  A    between atoms: C_57  and  C_58
REMARK   41  A    between atoms: C_58  and  C_59
REMARK   42  A    between atoms: C_59  and  C_60
REMARK   43  A    between atoms: C_60  and  C_61
REMARK   44  A    between atoms: C_61  and  C_62
REMARK   45  A    between atoms: C_62  and  C_63
REMARK   46  A    between atoms: C_63  and  C_64
REMARK                            x       y       z     vdW  Elec       q    Type
REMARK                         _______ _______ _______ _____ _____    ______ ____
ROOT
ATOM      1  C   UNL     1       7.357  -4.172  26.412  0.00  0.00    +0.240 C 
ENDROOT
BRANCH   1   2
ATOM      2  C   UNL     1       6.479  -3.081  27.071  0.00  0.00    +0.216 C 
BRANCH   2   3
ATOM      3  O   UNL     1       6.507  -1.748  26.542  0.00  0.00    -0.324 OA
BRANCH   3   4
ATOM      4  P   UNL     1       5.307  -1.079  25.676  0.00  0.00    +0.213 P 
ATOM      5  O   UNL     1       4.123  -2.001  25.710  0.00  0.00    -0.437 OA
ATOM      6  O   UNL     1       5.890  -0.419  24.465  0.00  0.00    -0.517 OA
BRANCH   4   7
ATOM      7  O   UNL     1       4.865   0.121  26.680  0.00  0.00    -0.319 OA
BRANCH   7   8
ATOM      8  C   UNL     1       5.578   1.351  26.554  0.00  0.00    +0.188 C 
ATOM      9  C   UNL     1       4.556   2.389  26.112  0.00  0.00    +0.177 C 
ATOM     10  C   UNL     1       5.139   3.786  26.110  0.00  0.00    +0.177 C 
ATOM     11  C   UNL     1       5.895   4.131  27.393  0.00  0.00    +0.176 C 
ATOM     12  C   UNL     1       6.959   3.077  27.712  0.00  0.00    +0.177 C 
ATOM     13  C   UNL     1       6.322   1.688  27.855  0.00  0.00    +0.177 C 
BRANCH  13  14
ATOM     14  O   UNL     1       7.400   0.773  28.134  0.00  0.00    -0.386 OA
ATOM     15  H   UNL     1       7.825   0.565  27.272  0.00  0.00    +0.210 HD
ENDBRANCH  13  14
BRANCH   9  16
ATOM     16  O   UNL     1       4.136   2.131  24.755  0.00  0.00    -0.386 OA
ATOM     17  H   UNL     1       4.078   2.994  24.298  0.00  0.00    +0.210 HD
ENDBRANCH   9  16
BRANCH  10  18
ATOM     18  O   UNL     1       4.061   4.718  25.939  0.00  0.00    -0.386 OA
ATOM     19  H   UNL     1       3.459   4.512  26.671  0.00  0.00    +0.210 HD
ENDBRANCH  10  18
BRANCH  11  20
ATOM     20  O   UNL     1       6.491   5.427  27.182  0.00  0.00    -0.386 OA
ATOM     21  H   UNL     1       6.398   5.619  26.230  0.00  0.00    +0.210 HD
ENDBRANCH  11  20
BRANCH  12  22
ATOM     22  O   UNL     1       7.660   3.440  28.911  0.00  0.00    -0.386 OA
ATOM     23  H   UNL     1       7.934   4.370  28.755  0.00  0.00    +0.210 HD
ENDBRANCH  12  22
ENDBRANCH   7   8
ENDBRANCH   4   7
ENDBRANCH   3   4
ENDBRANCH   2   3
ENDBRANCH   1   2
BRANCH   1  24
ATOM     24  C   UNL     1       7.216  -5.529  27.128  0.00  0.00    +0.279 C 
BRANCH  24  25
ATOM     25  O   UNL     1       6.470  -5.345  28.342  0.00  0.00    -0.461 OA
BRANCH  25  26
ATOM     26  C   UNL     1       5.531  -6.302  28.597  0.00  0.00    +0.307 C 
ATOM     27  O   UNL     1       5.750  -7.503  28.664  0.00  0.00    -0.251 OA
BRANCH  26  28
ATOM     28  C   UNL     1       4.180  -5.653  28.780  0.00  0.00    +0.120 C 
BRANCH  28  29
ATOM     29  C   UNL     1       3.436  -5.493  27.462  0.00  0.00    +0.011 C 
BRANCH  29  30
ATOM     30  C   UNL     1       2.696  -6.768  27.060  0.00  0.00    +0.001 C 
BRANCH  30  31
ATOM     31  C   UNL     1       1.207  -6.493  26.868  0.00  0.00    +0.000 C 
BRANCH  31  32
ATOM     32  C   UNL     1       0.788  -6.731  25.420  0.00  0.00    +0.000 C 
BRANCH  32  33
ATOM     33  C   UNL     1       0.444  -5.412  24.735  0.00  0.00    +0.000 C 
BRANCH  33  34
ATOM     34  C   UNL     1       1.272  -5.223  23.468  0.00  0.00    -0.000 C 
BRANCH  34  35
ATOM     35  C   UNL     1       2.046  -6.492  23.128  0.00  0.00    -0.000 C 
BRANCH  35  36
ATOM     36  C   UNL     1       3.550  -6.255  23.232  0.00  0.00    -0.000 C 
BRANCH  36  37
ATOM     37  C   UNL     1       3.849  -4.939  23.944  0.00  0.00    -0.000 C 
BRANCH  37  38
ATOM     38  C   UNL     1       5.277  -4.481  23.661  0.00  0.00    -0.000 C 
BRANCH  38  39
ATOM     39  C   UNL     1       5.315  -3.491  22.499  0.00  0.00    -0.000 C 
BRANCH  39  40
ATOM     40  C   UNL     1       6.408  -3.861  21.500  0.00  0.00    -0.000 C 
BRANCH  40  42
ATOM     41  C   UNL     1       7.441  -6.124  21.865  0.00  0.00    +0.004 C 
ATOM     42  C   UNL     1       6.353  -5.346  21.147  0.00  0.00    -0.003 C 
ENDBRANCH  40  42
ENDBRANCH  39  40
ENDBRANCH  38  39
ENDBRANCH  37  38
ENDBRANCH  36  37
ENDBRANCH  35  36
ENDBRANCH  34  35
ENDBRANCH  33  34
ENDBRANCH  32  33
ENDBRANCH  31  32
ENDBRANCH  30  31
ENDBRANCH  29  30
ENDBRANCH  28  29
ENDBRANCH  26  28
ENDBRANCH  25  26
ENDBRANCH  24  25
ENDBRANCH   1  24
BRANCH   1  43
ATOM     43  O   UNL     1       8.760  -3.859  26.367  0.00  0.00    -0.456 OA
BRANCH  43  44
ATOM     44  C   UNL     1       9.308  -4.051  25.132  0.00  0.00    +0.308 C 
ATOM     45  O   UNL     1      10.167  -4.850  24.813  0.00  0.00    -0.251 OA
BRANCH  44  46
ATOM     46  C   UNL     1       8.836  -3.042  24.143  0.00  0.00    +0.120 C 
BRANCH  46  47
ATOM     47  C   UNL     1       9.777  -1.854  24.098  0.00  0.00    +0.011 C 
BRANCH  47  48
ATOM     48  C   UNL     1       9.270  -0.714  24.973  0.00  0.00    +0.001 C 
BRANCH  48  49
ATOM     49  C   UNL     1       9.856   0.615  24.503  0.00  0.00    +0.000 C 
BRANCH  49  50
ATOM     50  C   UNL     1      10.591   0.441  23.178  0.00  0.00    +0.000 C 
BRANCH  50  51
ATOM     51  C   UNL     1      10.139   1.492  22.180  0.00  0.00    +0.004 C 
BRANCH  51  52
ATOM     52  C   UNL     1       8.665   1.313  21.840  0.00  0.00    +0.027 C 
BRANCH  52  53
ATOM     53  C   UNL     1       7.933   2.614  21.850  0.00  0.00    -0.031 C 
ATOM     54  C   UNL     1       7.005   2.942  22.754  0.00  0.00    -0.031 C 
BRANCH  54  55
ATOM     55  C   UNL     1       6.270   4.246  22.747  0.00  0.00    +0.027 C 
BRANCH  55  56
ATOM     56  C   UNL     1       7.211   5.393  22.383  0.00  0.00    +0.004 C 
BRANCH  56  57
ATOM     57  C   UNL     1       7.384   6.351  23.561  0.00  0.00    +0.000 C 
BRANCH  57  58
ATOM     58  C   UNL     1       8.831   6.826  23.674  0.00  0.00    +0.000 C 
BRANCH  58  59
ATOM     59  C   UNL     1       9.665   5.855  24.508  0.00  0.00    -0.000 C 
BRANCH  59  60
ATOM     60  C   UNL     1      10.740   5.182  23.656  0.00  0.00    -0.000 C 
BRANCH  60  61
ATOM     61  C   UNL     1      12.100   5.850  23.851  0.00  0.00    -0.003 C 
ATOM     62  C   UNL     1      12.131   6.686  25.120  0.00  0.00    +0.004 C 
ENDBRANCH  60  61
ENDBRANCH  59  60
ENDBRANCH  58  59
ENDBRANCH  57  58
ENDBRANCH  56  57
ENDBRANCH  55  56
ENDBRANCH  54  55
ENDBRANCH  52  53
ENDBRANCH  51  52
ENDBRANCH  50  51
ENDBRANCH  49  50
ENDBRANCH  48  49
ENDBRANCH  47  48
ENDBRANCH  46  47
ENDBRANCH  44  46
ENDBRANCH  43  44
ENDBRANCH   1  43
TORSDOF 44
ENDMDL
MODEL 7
REMARK VINA RESULT:      -4.6      2.237      5.734
REMARK  Name = 
REMARK  46 active torsions:
REMARK  status: ('A' for Active; 'I' for Inactive)
REMARK    1  A    between atoms: C_1  and  C_2
REMARK    2  A    between atoms: C_2  and  C_3
REMARK    3  A    between atoms: C_3  and  C_4
REMARK    4  A    between atoms: C_4  and  C_5
REMARK    5  A    between atoms: C_5  and  C_6
REMARK    6  A    between atoms: C_6  and  C_7
REMARK    7  A    between atoms: C_7  and  C_8
REMARK    8  A    between atoms: C_8  and  C_9
REMARK    9  A    between atoms: C_9  and  C_10
REMARK   10  A    between atoms: C_10  and  C_11
REMARK   11  A    between atoms: C_11  and  C_12
REMARK   12  A    between atoms: C_12  and  C_13
REMARK   13  A    between atoms: C_13  and  C_14
REMARK   14  A    between atoms: C_14  and  C_15
REMARK   15  A    between atoms: C_15  and  C_16
REMARK   16  A    between atoms: C_16  and  O_18
REMARK   17  A    between atoms: O_18  and  C_19
REMARK   18  A    between atoms: C_19  and  C_20
REMARK   19  A    between atoms: C_20  and  C_22
REMARK   20  A    between atoms: C_20  and  O_45
REMARK   21  A    between atoms: C_22  and  O_23
REMARK   22  A    between atoms: O_23  and  P_24
REMARK   23  A    between atoms: P_24  and  O_27
REMARK   24  A    between atoms: O_27  and  C_28
REMARK   25  A    between atoms: C_30  and  O_32
REMARK   26  A    between atoms: C_33  and  O_35
REMARK   27  A    between atoms: C_36  and  O_38
REMARK   28  A    between atoms: C_39  and  O_41
REMARK   29  A    between atoms: C_42  and  O_44
REMARK   30  A    between atoms: O_45  and  C_46
REMARK   31  A    between atoms: C_46  and  C_48
REMARK   32  A    between atoms: C_48  and  C_49
REMARK   33  A    between atoms: C_49  and  C_50
REMARK   34  A    between atoms: C_50  and  C_51
REMARK   35  A    between atoms: C_51  and  C_52
REMARK   36  A    between atoms: C_52  and  C_53
REMARK   37  A    between atoms: C_53  and  C_54
REMARK   38  A    between atoms: C_54  and  C_55
REMARK   39  A    between atoms: C_56  and  C_57
REMARK   40  A    between atoms: C_57  and  C_58
REMARK   41  A    between atoms: C_58  and  C_59
REMARK   42  A    between atoms: C_59  and  C_60
REMARK   43  A    between atoms: C_60  and  C_61
REMARK   44  A    between atoms: C_61  and  C_62
REMARK   45  A    between atoms: C_62  and  C_63
REMARK   46  A    between atoms: C_63  and  C_64
REMARK                            x       y       z     vdW  Elec       q    Type
REMARK                         _______ _______ _______ _____ _____    ______ ____
ROOT
ATOM      1  C   UNL     1       8.481  -3.143  25.087  0.00  0.00    +0.240 C 
ENDROOT
BRANCH   1   2
ATOM      2  C   UNL     1       8.765  -4.053  26.306  0.00  0.00    +0.216 C 
BRANCH   2   3
ATOM      3  O   UNL     1       8.042  -5.284  26.442  0.00  0.00    -0.324 OA
BRANCH   3   4
ATOM      4  P   UNL     1       6.734  -5.481  27.385  0.00  0.00    +0.213 P 
ATOM      5  O   UNL     1       5.956  -4.198  27.395  0.00  0.00    -0.437 OA
ATOM      6  O   UNL     1       7.113  -6.304  28.577  0.00  0.00    -0.517 OA
BRANCH   4   7
ATOM      7  O   UNL     1       5.837  -6.446  26.432  0.00  0.00    -0.319 OA
BRANCH   7   8
ATOM      8  C   UNL     1       4.858  -5.802  25.616  0.00  0.00    +0.188 C 
ATOM      9  C   UNL     1       5.214  -6.147  24.177  0.00  0.00    +0.177 C 
ATOM     10  C   UNL     1       4.151  -5.675  23.208  0.00  0.00    +0.177 C 
ATOM     11  C   UNL     1       2.732  -6.055  23.629  0.00  0.00    +0.176 C 
ATOM     12  C   UNL     1       2.434  -5.596  25.059  0.00  0.00    +0.177 C 
ATOM     13  C   UNL     1       3.439  -6.205  26.047  0.00  0.00    +0.177 C 
BRANCH  13  14
ATOM     14  O   UNL     1       3.087  -5.699  27.349  0.00  0.00    -0.386 OA
ATOM     15  H   UNL     1       3.292  -4.738  27.345  0.00  0.00    +0.210 HD
ENDBRANCH  13  14
BRANCH   9  16
ATOM     16  O   UNL     1       6.432  -5.474  23.789  0.00  0.00    -0.386 OA
ATOM     17  H   UNL     1       6.281  -5.085  22.905  0.00  0.00    +0.210 HD
ENDBRANCH   9  16
BRANCH  10  18
ATOM     18  O   UNL     1       4.428  -6.257  21.925  0.00  0.00    -0.386 OA
ATOM     19  H   UNL     1       3.610  -6.729  21.704  0.00  0.00    +0.210 HD
ENDBRANCH  10  18
BRANCH  11  20
ATOM     20  O   UNL     1       1.841  -5.430  22.684  0.00  0.00    -0.386 OA
ATOM     21  H   UNL     1       1.283  -4.817  23.199  0.00  0.00    +0.210 HD
ENDBRANCH  11  20
BRANCH  12  22
ATOM     22  O   UNL     1       1.091  -5.953  25.416  0.00  0.00    -0.386 OA
ATOM     23  H   UNL     1       0.540  -5.252  25.005  0.00  0.00    +0.210 HD
ENDBRANCH  12  22
ENDBRANCH   7   8
ENDBRANCH   4   7
ENDBRANCH   3   4
ENDBRANCH   2   3
ENDBRANCH   1   2
BRANCH   1  24
ATOM     24  C   UNL     1       9.782  -2.716  24.378  0.00  0.00    +0.279 C 
BRANCH  24  25
ATOM     25  O   UNL     1       9.573  -2.740  22.958  0.00  0.00    -0.461 OA
BRANCH  25  26
ATOM     26  C   UNL     1       9.618  -1.522  22.343  0.00  0.00    +0.307 C 
ATOM     27  O   UNL     1       9.100  -1.257  21.268  0.00  0.00    -0.251 OA
BRANCH  26  28
ATOM     28  C   UNL     1      10.406  -0.554  23.191  0.00  0.00    +0.120 C 
BRANCH  28  29
ATOM     29  C   UNL     1      10.190   0.891  22.765  0.00  0.00    +0.011 C 
BRANCH  29  30
ATOM     30  C   UNL     1      10.644   1.882  23.836  0.00  0.00    +0.001 C 
BRANCH  30  31
ATOM     31  C   UNL     1      10.370   3.318  23.399  0.00  0.00    +0.000 C 
BRANCH  31  32
ATOM     32  C   UNL     1      11.652   4.147  23.404  0.00  0.00    +0.000 C 
BRANCH  32  33
ATOM     33  C   UNL     1      11.342   5.616  23.673  0.00  0.00    +0.000 C 
BRANCH  33  34
ATOM     34  C   UNL     1       9.952   5.779  24.278  0.00  0.00    -0.000 C 
BRANCH  34  35
ATOM     35  C   UNL     1       9.010   6.474  23.299  0.00  0.00    -0.000 C 
BRANCH  35  36
ATOM     36  C   UNL     1       7.619   5.849  23.349  0.00  0.00    -0.000 C 
BRANCH  36  37
ATOM     37  C   UNL     1       7.356   4.997  22.110  0.00  0.00    -0.000 C 
BRANCH  37  38
ATOM     38  C   UNL     1       6.511   3.775  22.460  0.00  0.00    -0.000 C 
BRANCH  38  39
ATOM     39  C   UNL     1       5.348   4.157  23.373  0.00  0.00    -0.000 C 
BRANCH  39  40
ATOM     40  C   UNL     1       4.451   2.953  23.649  0.00  0.00    -0.000 C 
BRANCH  40  42
ATOM     41  C   UNL     1       2.833   4.097  22.101  0.00  0.00    +0.004 C 
ATOM     42  C   UNL     1       2.985   3.281  23.373  0.00  0.00    -0.003 C 
ENDBRANCH  40  42
ENDBRANCH  39  40
ENDBRANCH  38  39
ENDBRANCH  37  38
ENDBRANCH  36  37
ENDBRANCH  35  36
ENDBRANCH  34  35
ENDBRANCH  33  34
ENDBRANCH  32  33
ENDBRANCH  31  32
ENDBRANCH  30  31
ENDBRANCH  29  30
ENDBRANCH  28  29
ENDBRANCH  26  28
ENDBRANCH  25  26
ENDBRANCH  24  25
ENDBRANCH   1  24
BRANCH   1  43
ATOM     43  O   UNL     1       7.751  -1.944  25.395  0.00  0.00    -0.456 OA
BRANCH  43  44
ATOM     44  C   UNL     1       6.671  -1.755  24.583  0.00  0.00    +0.308 C 
ATOM     45  O   UNL     1       6.237  -2.509  23.733  0.00  0.00    -0.251 OA
BRANCH  44  46
ATOM     46  C   UNL     1       6.084  -0.394  24.730  0.00  0.00    +0.120 C 
BRANCH  46  47
ATOM     47  C   UNL     1       7.159   0.669  24.606  0.00  0.00    +0.011 C 
BRANCH  47  48
ATOM     48  C   UNL     1       7.467   1.303  25.958  0.00  0.00    +0.001 C 
BRANCH  48  49
ATOM     49  C   UNL     1       7.633   2.813  25.809  0.00  0.00    +0.000 C 
BRANCH  49  50
ATOM     50  C   UNL     1       6.963   3.545  26.967  0.00  0.00    +0.000 C 
BRANCH  50  51
ATOM     51  C   UNL     1       7.342   5.014  26.955  0.00  0.00    +0.004 C 
BRANCH  51  52
ATOM     52  C   UNL     1       6.134   5.881  26.620  0.00  0.00    +0.027 C 
BRANCH  52  53
ATOM     53  C   UNL     1       4.861   5.261  27.092  0.00  0.00    -0.031 C 
ATOM     54  C   UNL     1       3.703   5.335  26.429  0.00  0.00    -0.031 C 
BRANCH  54  55
ATOM     55  C   UNL     1       2.430   4.718  26.920  0.00  0.00    +0.027 C 
BRANCH  55  56
ATOM     56  C   UNL     1       2.669   3.952  28.219  0.00  0.00    +0.004 C 
BRANCH  56  57
ATOM     57  C   UNL     1       2.500   2.449  28.005  0.00  0.00    +0.000 C 
BRANCH  57  58
ATOM     58  C   UNL     1       3.495   1.658  28.852  0.00  0.00    +0.000 C 
BRANCH  58  59
ATOM     59  C   UNL     1       4.525   0.951  27.972  0.00  0.00    -0.000 C 
BRANCH  59  60
ATOM     60  C   UNL     1       4.365  -0.566  28.051  0.00  0.00    -0.000 C 
BRANCH  60  61
ATOM     61  C   UNL     1       3.087  -1.026  27.352  0.00  0.00    -0.003 C 
ATOM     62  C   UNL     1       3.343  -2.237  26.469  0.00  0.00    +0.004 C 
ENDBRANCH  60  61
ENDBRANCH  59  60
ENDBRANCH  58  59
ENDBRANCH  57  58
ENDBRANCH  56  57
ENDBRANCH  55  56
ENDBRANCH  54  55
ENDBRANCH  52  53
ENDBRANCH  51  52
ENDBRANCH  50  51
ENDBRANCH  49  50
ENDBRANCH  48  49
ENDBRANCH  47  48
ENDBRANCH  46  47
ENDBRANCH  44  46
ENDBRANCH  43  44
ENDBRANCH   1  43
TORSDOF 44
ENDMDL
MODEL 8
REMARK VINA RESULT:      -4.6      1.669      3.874
REMARK  Name = 
REMARK  46 active torsions:
REMARK  status: ('A' for Active; 'I' for Inactive)
REMARK    1  A    between atoms: C_1  and  C_2
REMARK    2  A    between atoms: C_2  and  C_3
REMARK    3  A    between atoms: C_3  and  C_4
REMARK    4  A    between atoms: C_4  and  C_5
REMARK    5  A    between atoms: C_5  and  C_6
REMARK    6  A    between atoms: C_6  and  C_7
REMARK    7  A    between atoms: C_7  and  C_8
REMARK    8  A    between atoms: C_8  and  C_9
REMARK    9  A    between atoms: C_9  and  C_10
REMARK   10  A    between atoms: C_10  and  C_11
REMARK   11  A    between atoms: C_11  and  C_12
REMARK   12  A    between atoms: C_12  and  C_13
REMARK   13  A    between atoms: C_13  and  C_14
REMARK   14  A    between atoms: C_14  and  C_15
REMARK   15  A    between atoms: C_15  and  C_16
REMARK   16  A    between atoms: C_16  and  O_18
REMARK   17  A    between atoms: O_18  and  C_19
REMARK   18  A    between atoms: C_19  and  C_20
REMARK   19  A    between atoms: C_20  and  C_22
REMARK   20  A    between atoms: C_20  and  O_45
REMARK   21  A    between atoms: C_22  and  O_23
REMARK   22  A    between atoms: O_23  and  P_24
REMARK   23  A    between atoms: P_24  and  O_27
REMARK   24  A    between atoms: O_27  and  C_28
REMARK   25  A    between atoms: C_30  and  O_32
REMARK   26  A    between atoms: C_33  and  O_35
REMARK   27  A    between atoms: C_36  and  O_38
REMARK   28  A    between atoms: C_39  and  O_41
REMARK   29  A    between atoms: C_42  and  O_44
REMARK   30  A    between atoms: O_45  and  C_46
REMARK   31  A    between atoms: C_46  and  C_48
REMARK   32  A    between atoms: C_48  and  C_49
REMARK   33  A    between atoms: C_49  and  C_50
REMARK   34  A    between atoms: C_50  and  C_51
REMARK   35  A    between atoms: C_51  and  C_52
REMARK   36  A    between atoms: C_52  and  C_53
REMARK   37  A    between atoms: C_53  and  C_54
REMARK   38  A    between atoms: C_54  and  C_55
REMARK   39  A    between atoms: C_56  and  C_57
REMARK   40  A    between atoms: C_57  and  C_58
REMARK   41  A    between atoms: C_58  and  C_59
REMARK   42  A    between atoms: C_59  and  C_60
REMARK   43  A    between atoms: C_60  and  C_61
REMARK   44  A    between atoms: C_61  and  C_62
REMARK   45  A    between atoms: C_62  and  C_63
REMARK   46  A    between atoms: C_63  and  C_64
REMARK                            x       y       z     vdW  Elec       q    Type
REMARK                         _______ _______ _______ _____ _____    ______ ____
ROOT
ATOM      1  C   UNL     1       7.089  -2.136  24.814  0.00  0.00    +0.240 C 
ENDROOT
BRANCH   1   2
ATOM      2  C   UNL     1       6.581  -2.934  23.590  0.00  0.00    +0.216 C 
BRANCH   2   3
ATOM      3  O   UNL     1       6.726  -4.361  23.578  0.00  0.00    -0.324 OA
BRANCH   3   4
ATOM      4  P   UNL     1       5.650  -5.387  22.925  0.00  0.00    +0.213 P 
ATOM      5  O   UNL     1       6.398  -6.508  22.265  0.00  0.00    -0.437 OA
ATOM      6  O   UNL     1       4.521  -4.598  22.334  0.00  0.00    -0.517 OA
BRANCH   4   7
ATOM      7  O   UNL     1       5.063  -6.081  24.273  0.00  0.00    -0.319 OA
BRANCH   7   8
ATOM      8  C   UNL     1       5.061  -5.278  25.453  0.00  0.00    +0.188 C 
ATOM      9  C   UNL     1       3.601  -5.121  25.855  0.00  0.00    +0.177 C 
ATOM     10  C   UNL     1       3.459  -4.437  27.197  0.00  0.00    +0.177 C 
ATOM     11  C   UNL     1       4.365  -5.025  28.279  0.00  0.00    +0.176 C 
ATOM     12  C   UNL     1       5.825  -5.067  27.819  0.00  0.00    +0.177 C 
ATOM     13  C   UNL     1       5.967  -5.891  26.531  0.00  0.00    +0.177 C 
BRANCH  13  14
ATOM     14  O   UNL     1       7.363  -5.851  26.175  0.00  0.00    -0.386 OA
ATOM     15  H   UNL     1       7.448  -5.212  25.433  0.00  0.00    +0.210 HD
ENDBRANCH  13  14
BRANCH   9  16
ATOM     16  O   UNL     1       2.909  -4.281  24.906  0.00  0.00    -0.386 OA
ATOM     17  H   UNL     1       3.396  -4.333  24.060  0.00  0.00    +0.210 HD
ENDBRANCH   9  16
BRANCH  10  18
ATOM     18  O   UNL     1       2.092  -4.560  27.618  0.00  0.00    -0.386 OA
ATOM     19  H   UNL     1       2.154  -4.997  28.482  0.00  0.00    +0.210 HD
ENDBRANCH  10  18
BRANCH  11  20
ATOM     20  O   UNL     1       4.208  -4.192  29.445  0.00  0.00    -0.386 OA
ATOM     21  H   UNL     1       3.363  -4.454  29.856  0.00  0.00    +0.210 HD
ENDBRANCH  11  20
BRANCH  12  22
ATOM     22  O   UNL     1       6.649  -5.608  28.862  0.00  0.00    -0.386 OA
ATOM     23  H   UNL     1       7.551  -5.288  28.643  0.00  0.00    +0.210 HD
ENDBRANCH  12  22
ENDBRANCH   7   8
ENDBRANCH   4   7
ENDBRANCH   3   4
ENDBRANCH   2   3
ENDBRANCH   1   2
BRANCH   1  24
ATOM     24  C   UNL     1       8.542  -2.502  25.172  0.00  0.00    +0.279 C 
BRANCH  24  25
ATOM     25  O   UNL     1       9.273  -2.760  23.963  0.00  0.00    -0.461 OA
BRANCH  25  26
ATOM     26  C   UNL     1      10.046  -1.725  23.520  0.00  0.00    +0.307 C 
ATOM     27  O   UNL     1      10.630  -1.692  22.447  0.00  0.00    -0.251 OA
BRANCH  26  28
ATOM     28  C   UNL     1      10.071  -0.629  24.558  0.00  0.00    +0.120 C 
BRANCH  28  29
ATOM     29  C   UNL     1      10.939   0.546  24.131  0.00  0.00    +0.011 C 
BRANCH  29  30
ATOM     30  C   UNL     1      10.105   1.758  23.718  0.00  0.00    +0.001 C 
BRANCH  30  31
ATOM     31  C   UNL     1      10.177   1.979  22.210  0.00  0.00    +0.000 C 
BRANCH  31  32
ATOM     32  C   UNL     1       9.018   1.286  21.498  0.00  0.00    +0.000 C 
BRANCH  32  33
ATOM     33  C   UNL     1       7.734   1.411  22.311  0.00  0.00    +0.000 C 
BRANCH  33  34
ATOM     34  C   UNL     1       6.936   2.639  21.886  0.00  0.00    -0.000 C 
BRANCH  34  35
ATOM     35  C   UNL     1       6.918   3.689  22.993  0.00  0.00    -0.000 C 
BRANCH  35  36
ATOM     36  C   UNL     1       7.604   4.972  22.535  0.00  0.00    -0.000 C 
BRANCH  36  37
ATOM     37  C   UNL     1       8.178   5.740  23.722  0.00  0.00    -0.000 C 
BRANCH  37  38
ATOM     38  C   UNL     1       9.580   5.242  24.064  0.00  0.00    -0.000 C 
BRANCH  38  39
ATOM     39  C   UNL     1      10.569   6.403  24.147  0.00  0.00    -0.000 C 
BRANCH  39  40
ATOM     40  C   UNL     1      12.002   5.893  24.273  0.00  0.00    -0.000 C 
BRANCH  40  42
ATOM     41  C   UNL     1      13.259   5.578  22.118  0.00  0.00    +0.004 C 
ATOM     42  C   UNL     1      12.345   4.927  23.142  0.00  0.00    -0.003 C 
ENDBRANCH  40  42
ENDBRANCH  39  40
ENDBRANCH  38  39
ENDBRANCH  37  38
ENDBRANCH  36  37
ENDBRANCH  35  36
ENDBRANCH  34  35
ENDBRANCH  33  34
ENDBRANCH  32  33
ENDBRANCH  31  32
ENDBRANCH  30  31
ENDBRANCH  29  30
ENDBRANCH  28  29
ENDBRANCH  26  28
ENDBRANCH  25  26
ENDBRANCH  24  25
ENDBRANCH   1  24
BRANCH   1  43
ATOM     43  O   UNL     1       6.301  -2.307  26.005  0.00  0.00    -0.456 OA
BRANCH  43  44
ATOM     44  C   UNL     1       5.274  -1.413  26.096  0.00  0.00    +0.308 C 
ATOM     45  O   UNL     1       4.158  -1.509  25.620  0.00  0.00    -0.251 OA
BRANCH  44  46
ATOM     46  C   UNL     1       5.684  -0.147  26.765  0.00  0.00    +0.120 C 
BRANCH  46  47
ATOM     47  C   UNL     1       5.714   0.998  25.772  0.00  0.00    +0.011 C 
BRANCH  47  48
ATOM     48  C   UNL     1       7.055   1.722  25.803  0.00  0.00    +0.001 C 
BRANCH  48  49
ATOM     49  C   UNL     1       7.201   2.510  27.102  0.00  0.00    +0.000 C 
BRANCH  49  50
ATOM     50  C   UNL     1       7.229   4.010  26.821  0.00  0.00    +0.000 C 
BRANCH  50  51
ATOM     51  C   UNL     1       6.327   4.747  27.794  0.00  0.00    +0.004 C 
BRANCH  51  52
ATOM     52  C   UNL     1       4.940   4.950  27.194  0.00  0.00    +0.027 C 
BRANCH  52  53
ATOM     53  C   UNL     1       5.009   5.280  25.740  0.00  0.00    -0.031 C 
ATOM     54  C   UNL     1       3.970   5.721  25.024  0.00  0.00    -0.031 C 
BRANCH  54  55
ATOM     55  C   UNL     1       4.049   6.038  23.563  0.00  0.00    +0.027 C 
BRANCH  55  56
ATOM     56  C   UNL     1       3.644   4.826  22.727  0.00  0.00    +0.004 C 
BRANCH  56  57
ATOM     57  C   UNL     1       2.328   4.234  23.228  0.00  0.00    +0.000 C 
BRANCH  57  58
ATOM     58  C   UNL     1       1.354   4.003  22.074  0.00  0.00    +0.000 C 
BRANCH  58  59
ATOM     59  C   UNL     1       2.030   3.252  20.927  0.00  0.00    -0.000 C 
BRANCH  59  60
ATOM     60  C   UNL     1       1.190   3.325  19.653  0.00  0.00    -0.000 C 
BRANCH  60  61
ATOM     61  C   UNL     1       1.931   4.069  18.543  0.00  0.00    -0.003 C 
ATOM     62  C   UNL     1       0.976   4.894  17.695  0.00  0.00    +0.004 C 
ENDBRANCH  60  61
ENDBRANCH  59  60
ENDBRANCH  58  59
ENDBRANCH  57  58
ENDBRANCH  56  57
ENDBRANCH  55  56
ENDBRANCH  54  55
ENDBRANCH  52  53
ENDBRANCH  51  52
ENDBRANCH  50  51
ENDBRANCH  49  50
ENDBRANCH  48  49
ENDBRANCH  47  48
ENDBRANCH  46  47
ENDBRANCH  44  46
ENDBRANCH  43  44
ENDBRANCH   1  43
TORSDOF 44
ENDMDL
MODEL 9
REMARK VINA RESULT:      -4.6      2.224      5.250
REMARK  Name = 
REMARK  46 active torsions:
REMARK  status: ('A' for Active; 'I' for Inactive)
REMARK    1  A    between atoms: C_1  and  C_2
REMARK    2  A    between atoms: C_2  and  C_3
REMARK    3  A    between atoms: C_3  and  C_4
REMARK    4  A    between atoms: C_4  and  C_5
REMARK    5  A    between atoms: C_5  and  C_6
REMARK    6  A    between atoms: C_6  and  C_7
REMARK    7  A    between atoms: C_7  and  C_8
REMARK    8  A    between atoms: C_8  and  C_9
REMARK    9  A    between atoms: C_9  and  C_10
REMARK   10  A    between atoms: C_10  and  C_11
REMARK   11  A    between atoms: C_11  and  C_12
REMARK   12  A    between atoms: C_12  and  C_13
REMARK   13  A    between atoms: C_13  and  C_14
REMARK   14  A    between atoms: C_14  and  C_15
REMARK   15  A    between atoms: C_15  and  C_16
REMARK   16  A    between atoms: C_16  and  O_18
REMARK   17  A    between atoms: O_18  and  C_19
REMARK   18  A    between atoms: C_19  and  C_20
REMARK   19  A    between atoms: C_20  and  C_22
REMARK   20  A    between atoms: C_20  and  O_45
REMARK   21  A    between atoms: C_22  and  O_23
REMARK   22  A    between atoms: O_23  and  P_24
REMARK   23  A    between atoms: P_24  and  O_27
REMARK   24  A    between atoms: O_27  and  C_28
REMARK   25  A    between atoms: C_30  and  O_32
REMARK   26  A    between atoms: C_33  and  O_35
REMARK   27  A    between atoms: C_36  and  O_38
REMARK   28  A    between atoms: C_39  and  O_41
REMARK   29  A    between atoms: C_42  and  O_44
REMARK   30  A    between atoms: O_45  and  C_46
REMARK   31  A    between atoms: C_46  and  C_48
REMARK   32  A    between atoms: C_48  and  C_49
REMARK   33  A    between atoms: C_49  and  C_50
REMARK   34  A    between atoms: C_50  and  C_51
REMARK   35  A    between atoms: C_51  and  C_52
REMARK   36  A    between atoms: C_52  and  C_53
REMARK   37  A    between atoms: C_53  and  C_54
REMARK   38  A    between atoms: C_54  and  C_55
REMARK   39  A    between atoms: C_56  and  C_57
REMARK   40  A    between atoms: C_57  and  C_58
REMARK   41  A    between atoms: C_58  and  C_59
REMARK   42  A    between atoms: C_59  and  C_60
REMARK   43  A    between atoms: C_60  and  C_61
REMARK   44  A    between atoms: C_61  and  C_62
REMARK   45  A    between atoms: C_62  and  C_63
REMARK   46  A    between atoms: C_63  and  C_64
REMARK                            x       y       z     vdW  Elec       q    Type
REMARK                         _______ _______ _______ _____ _____    ______ ____
ROOT
ATOM      1  C   UNL     1       6.563  -1.998  25.503  0.00  0.00    +0.240 C 
ENDROOT
BRANCH   1   2
ATOM      2  C   UNL     1       6.118  -2.767  24.236  0.00  0.00    +0.216 C 
BRANCH   2   3
ATOM      3  O   UNL     1       6.223  -4.197  24.214  0.00  0.00    -0.324 OA
BRANCH   3   4
ATOM      4  P   UNL     1       6.154  -5.101  22.867  0.00  0.00    +0.213 P 
ATOM      5  O   UNL     1       7.527  -5.633  22.578  0.00  0.00    -0.437 OA
ATOM      6  O   UNL     1       5.225  -4.449  21.890  0.00  0.00    -0.517 OA
BRANCH   4   7
ATOM      7  O   UNL     1       5.369  -6.406  23.439  0.00  0.00    -0.319 OA
BRANCH   7   8
ATOM      8  C   UNL     1       4.372  -6.165  24.431  0.00  0.00    +0.188 C 
ATOM      9  C   UNL     1       3.048  -6.590  23.811  0.00  0.00    +0.177 C 
ATOM     10  C   UNL     1       1.920  -6.556  24.820  0.00  0.00    +0.177 C 
ATOM     11  C   UNL     1       2.264  -7.244  26.141  0.00  0.00    +0.176 C 
ATOM     12  C   UNL     1       3.565  -6.694  26.732  0.00  0.00    +0.177 C 
ATOM     13  C   UNL     1       4.729  -6.873  25.746  0.00  0.00    +0.177 C 
BRANCH  13  14
ATOM     14  O   UNL     1       5.892  -6.311  26.385  0.00  0.00    -0.386 OA
ATOM     15  H   UNL     1       6.073  -5.453  25.940  0.00  0.00    +0.210 HD
ENDBRANCH  13  14
BRANCH   9  16
ATOM     16  O   UNL     1       2.670  -5.674  22.762  0.00  0.00    -0.386 OA
ATOM     17  H   UNL     1       3.033  -6.024  21.924  0.00  0.00    +0.210 HD
ENDBRANCH   9  16
BRANCH  10  18
ATOM     18  O   UNL     1       0.782  -7.208  24.238  0.00  0.00    -0.386 OA
ATOM     19  H   UNL     1       0.220  -6.474  23.943  0.00  0.00    +0.210 HD
ENDBRANCH  10  18
BRANCH  11  20
ATOM     20  O   UNL     1       1.151  -7.014  27.027  0.00  0.00    -0.386 OA
ATOM     21  H   UNL     1       1.140  -6.055  27.209  0.00  0.00    +0.210 HD
ENDBRANCH  11  20
BRANCH  12  22
ATOM     22  O   UNL     1       3.850  -7.348  27.977  0.00  0.00    -0.386 OA
ATOM     23  H   UNL     1       3.005  -7.293  28.475  0.00  0.00    +0.210 HD
ENDBRANCH  12  22
ENDBRANCH   7   8
ENDBRANCH   4   7
ENDBRANCH   3   4
ENDBRANCH   2   3
ENDBRANCH   1   2
BRANCH   1  24
ATOM     24  C   UNL     1       8.024  -1.519  25.397  0.00  0.00    +0.279 C 
BRANCH  24  25
ATOM     25  O   UNL     1       8.506  -1.771  24.067  0.00  0.00    -0.461 OA
BRANCH  25  26
ATOM     26  C   UNL     1       9.760  -1.301  23.805  0.00  0.00    +0.307 C 
ATOM     27  O   UNL     1      10.454  -1.637  22.856  0.00  0.00    -0.251 OA
BRANCH  26  28
ATOM     28  C   UNL     1      10.161  -0.305  24.866  0.00  0.00    +0.120 C 
BRANCH  28  29
ATOM     29  C   UNL     1      10.882   0.901  24.280  0.00  0.00    +0.011 C 
BRANCH  29  30
ATOM     30  C   UNL     1       9.908   1.935  23.716  0.00  0.00    +0.001 C 
BRANCH  30  31
ATOM     31  C   UNL     1      10.010   2.003  22.194  0.00  0.00    +0.000 C 
BRANCH  31  32
ATOM     32  C   UNL     1       8.720   1.522  21.537  0.00  0.00    +0.000 C 
BRANCH  32  33
ATOM     33  C   UNL     1       7.609   1.374  22.572  0.00  0.00    +0.000 C 
BRANCH  33  34
ATOM     34  C   UNL     1       6.450   2.318  22.267  0.00  0.00    -0.000 C 
BRANCH  34  35
ATOM     35  C   UNL     1       6.495   3.546  23.170  0.00  0.00    -0.000 C 
BRANCH  35  36
ATOM     36  C   UNL     1       6.183   4.813  22.379  0.00  0.00    -0.000 C 
BRANCH  36  37
ATOM     37  C   UNL     1       7.211   5.904  22.664  0.00  0.00    -0.000 C 
BRANCH  37  38
ATOM     38  C   UNL     1       8.473   5.313  23.286  0.00  0.00    -0.000 C 
BRANCH  38  39
ATOM     39  C   UNL     1       9.553   6.379  23.452  0.00  0.00    -0.000 C 
BRANCH  39  40
ATOM     40  C   UNL     1      10.582   5.957  24.499  0.00  0.00    -0.000 C 
BRANCH  40  42
ATOM     41  C   UNL     1      12.384   4.708  23.266  0.00  0.00    +0.004 C 
ATOM     42  C   UNL     1      12.000   6.017  23.935  0.00  0.00    -0.003 C 
ENDBRANCH  40  42
ENDBRANCH  39  40
ENDBRANCH  38  39
ENDBRANCH  37  38
ENDBRANCH  36  37
ENDBRANCH  35  36
ENDBRANCH  34  35
ENDBRANCH  33  34
ENDBRANCH  32  33
ENDBRANCH  31  32
ENDBRANCH  30  31
ENDBRANCH  29  30
ENDBRANCH  28  29
ENDBRANCH  26  28
ENDBRANCH  25  26
ENDBRANCH  24  25
ENDBRANCH   1  24
BRANCH   1  43
ATOM     43  O   UNL     1       6.449  -2.747  26.725  0.00  0.00    -0.456 OA
BRANCH  43  44
ATOM     44  C   UNL     1       5.171  -2.797  27.201  0.00  0.00    +0.308 C 
ATOM     45  O   UNL     1       4.532  -3.781  27.520  0.00  0.00    -0.251 OA
BRANCH  44  46
ATOM     46  C   UNL     1       4.509  -1.462  27.180  0.00  0.00    +0.120 C 
BRANCH  46  47
ATOM     47  C   UNL     1       4.591  -0.803  28.543  0.00  0.00    +0.011 C 
BRANCH  47  48
ATOM     48  C   UNL     1       3.414  -1.206  29.423  0.00  0.00    +0.001 C 
BRANCH  48  49
ATOM     49  C   UNL     1       2.608   0.026  29.827  0.00  0.00    +0.000 C 
BRANCH  49  50
ATOM     50  C   UNL     1       3.209   1.287  29.213  0.00  0.00    +0.000 C 
BRANCH  50  51
ATOM     51  C   UNL     1       2.226   1.925  28.249  0.00  0.00    +0.004 C 
BRANCH  51  52
ATOM     52  C   UNL     1       2.882   2.171  26.895  0.00  0.00    +0.027 C 
BRANCH  52  53
ATOM     53  C   UNL     1       3.294   3.596  26.730  0.00  0.00    -0.031 C 
ATOM     54  C   UNL     1       3.839   4.092  25.616  0.00  0.00    -0.031 C 
BRANCH  54  55
ATOM     55  C   UNL     1       4.258   5.522  25.467  0.00  0.00    +0.027 C 
BRANCH  55  56
ATOM     56  C   UNL     1       5.064   5.976  26.682  0.00  0.00    +0.004 C 
BRANCH  56  57
ATOM     57  C   UNL     1       6.357   6.668  26.252  0.00  0.00    +0.000 C 
BRANCH  57  58
ATOM     58  C   UNL     1       7.581   5.901  26.745  0.00  0.00    +0.000 C 
BRANCH  58  59
ATOM     59  C   UNL     1       7.192   4.514  27.256  0.00  0.00    -0.000 C 
BRANCH  59  60
ATOM     60  C   UNL     1       7.522   3.436  26.226  0.00  0.00    -0.000 C 
BRANCH  60  61
ATOM     61  C   UNL     1       7.168   2.044  26.746  0.00  0.00    -0.003 C 
ATOM     62  C   UNL     1       6.580   2.109  28.147  0.00  0.00    +0.004 C 
ENDBRANCH  60  61
ENDBRANCH  59  60
ENDBRANCH  58  59
ENDBRANCH  57  58
ENDBRANCH  56  57
ENDBRANCH  55  56
ENDBRANCH  54  55
ENDBRANCH  52  53
ENDBRANCH  51  52
ENDBRANCH  50  51
ENDBRANCH  49  50
ENDBRANCH  48  49
ENDBRANCH  47  48
ENDBRANCH  46  47
ENDBRANCH  44  46
ENDBRANCH  43  44
ENDBRANCH   1  43
TORSDOF 44
ENDMDL
