MODEL 1
REMARK VINA RESULT:      -6.2      0.000      0.000
REMARK  Name = 
REMARK  5 active torsions:
REMARK  status: ('A' for Active; 'I' for Inactive)
REMARK    1  A    between atoms: C_2  and  C_3
REMARK    2  A    between atoms: N_13  and  C_14
REMARK    3  A    between atoms: C_14  and  C_15
REMARK    4  A    between atoms: C_16  and  C_17
REMARK    5  A    between atoms: C_16  and  C_18
REMARK                            x       y       z     vdW  Elec       q    Type
REMARK                         _______ _______ _______ _____ _____    ______ ____
ROOT
ATOM      1  C   UNL     1       6.986  -4.705  22.731  0.00  0.00    +0.074 C 
ATOM      2  C   UNL     1       7.168  -5.723  21.599  0.00  0.00    +0.026 C 
ATOM      3  N   UNL     1       6.918  -3.349  22.119  0.00  0.00    -0.290 NA
ATOM      4  C   UNL     1       8.224  -2.658  22.058  0.00  0.00    +0.122 C 
ATOM      5  C   UNL     1       8.664  -2.000  23.335  0.00  0.00    -0.006 A 
ATOM      6  C   UNL     1       9.095  -0.663  23.362  0.00  0.00    +0.027 A 
ATOM      7  C   UNL     1       9.280   0.015  24.587  0.00  0.00    +0.043 A 
ATOM      8  C   UNL     1       9.036  -0.610  25.813  0.00  0.00    +0.047 A 
ATOM      9  C   UNL     1       8.659  -1.928  25.763  0.00  0.00    +0.067 A 
ATOM     10  N   UNL     1       8.287  -2.787  26.795  0.00  0.00    -0.334 N 
ATOM     11  H   UNL     1       8.222  -2.557  27.774  0.00  0.00    +0.168 HD
ATOM     12  C   UNL     1       7.936  -4.035  26.244  0.00  0.00    +0.159 A 
ATOM     13  S   UNL     1       7.394  -5.314  27.140  0.00  0.00    -0.013 S 
ATOM     14  N   UNL     1       8.119  -3.932  24.853  0.00  0.00    -0.318 N 
ATOM     15 CL   UNL     1       9.757   1.670  24.561  0.00  0.00    -0.083 Cl
ATOM     16  C   UNL     1       8.527  -2.621  24.561  0.00  0.00    +0.072 A 
ATOM     17  C   UNL     1       8.055  -4.959  23.826  0.00  0.00    +0.143 C 
ENDROOT
BRANCH   3  18
ATOM     18  C   UNL     1       5.827  -2.573  22.738  0.00  0.00    +0.112 C 
BRANCH  18  19
ATOM     19  C   UNL     1       4.912  -3.353  23.639  0.00  0.00    -0.013 C 
ATOM     20  C   UNL     1       4.552  -3.048  24.904  0.00  0.00    -0.078 C 
ATOM     21  C   UNL     1       3.704  -3.995  25.711  0.00  0.00    +0.038 C 
ATOM     22  C   UNL     1       4.961  -1.809  25.659  0.00  0.00    +0.038 C 
ENDBRANCH  18  19
ENDBRANCH   3  18
TORSDOF 2
ENDMDL
MODEL 2
REMARK VINA RESULT:      -6.0      1.994      3.124
REMARK  Name = 
REMARK  5 active torsions:
REMARK  status: ('A' for Active; 'I' for Inactive)
REMARK    1  A    between atoms: C_2  and  C_3
REMARK    2  A    between atoms: N_13  and  C_14
REMARK    3  A    between atoms: C_14  and  C_15
REMARK    4  A    between atoms: C_16  and  C_17
REMARK    5  A    between atoms: C_16  and  C_18
REMARK                            x       y       z     vdW  Elec       q    Type
REMARK                         _______ _______ _______ _____ _____    ______ ____
ROOT
ATOM      1  C   UNL     1       8.049  -4.053  25.351  0.00  0.00    +0.074 C 
ATOM      2  C   UNL     1       8.713  -5.289  25.970  0.00  0.00    +0.026 C 
ATOM      3  N   UNL     1       8.685  -3.806  24.027  0.00  0.00    -0.290 NA
ATOM      4  C   UNL     1       9.815  -2.854  24.078  0.00  0.00    +0.122 C 
ATOM      5  C   UNL     1       9.431  -1.401  24.103  0.00  0.00    -0.006 A 
ATOM      6  C   UNL     1      10.005  -0.475  23.216  0.00  0.00    +0.027 A 
ATOM      7  C   UNL     1       9.475   0.827  23.085  0.00  0.00    +0.043 A 
ATOM      8  C   UNL     1       8.362   1.242  23.821  0.00  0.00    +0.047 A 
ATOM      9  C   UNL     1       7.847   0.335  24.713  0.00  0.00    +0.067 A 
ATOM     10  N   UNL     1       6.720   0.429  25.527  0.00  0.00    -0.334 N 
ATOM     11  H   UNL     1       6.077   1.204  25.576  0.00  0.00    +0.168 HD
ATOM     12  C   UNL     1       6.568  -0.779  26.234  0.00  0.00    +0.159 A 
ATOM     13  S   UNL     1       5.319  -1.083  27.275  0.00  0.00    -0.013 S 
ATOM     14  N   UNL     1       7.636  -1.612  25.854  0.00  0.00    -0.318 N 
ATOM     15 CL   UNL     1      10.182   1.905  21.942  0.00  0.00    -0.083 Cl
ATOM     16  C   UNL     1       8.397  -0.933  24.889  0.00  0.00    +0.072 A 
ATOM     17  C   UNL     1       8.051  -2.898  26.388  0.00  0.00    +0.143 C 
ENDROOT
BRANCH   3  18
ATOM     18  C   UNL     1       7.650  -3.498  23.023  0.00  0.00    +0.112 C 
BRANCH  18  19
ATOM     19  C   UNL     1       6.301  -4.105  23.281  0.00  0.00    -0.013 C 
ATOM     20  C   UNL     1       5.737  -5.151  22.641  0.00  0.00    -0.078 C 
ATOM     21  C   UNL     1       4.325  -5.573  22.953  0.00  0.00    +0.038 C 
ATOM     22  C   UNL     1       6.386  -5.970  21.555  0.00  0.00    +0.038 C 
ENDBRANCH  18  19
ENDBRANCH   3  18
TORSDOF 2
ENDMDL
MODEL 3
REMARK VINA RESULT:      -5.8      3.104      5.033
REMARK  Name = 
REMARK  5 active torsions:
REMARK  status: ('A' for Active; 'I' for Inactive)
REMARK    1  A    between atoms: C_2  and  C_3
REMARK    2  A    between atoms: N_13  and  C_14
REMARK    3  A    between atoms: C_14  and  C_15
REMARK    4  A    between atoms: C_16  and  C_17
REMARK    5  A    between atoms: C_16  and  C_18
REMARK                            x       y       z     vdW  Elec       q    Type
REMARK                         _______ _______ _______ _____ _____    ______ ____
ROOT
ATOM      1  C   UNL     1       9.062   0.529  22.970  0.00  0.00    +0.074 C 
ATOM      2  C   UNL     1       9.739   1.504  21.999  0.00  0.00    +0.026 C 
ATOM      3  N   UNL     1       9.641  -0.823  22.737  0.00  0.00    -0.290 NA
ATOM      4  C   UNL     1       8.867  -1.644  21.782  0.00  0.00    +0.122 C 
ATOM      5  C   UNL     1       7.653  -2.322  22.352  0.00  0.00    -0.006 A 
ATOM      6  C   UNL     1       7.423  -3.695  22.165  0.00  0.00    +0.027 A 
ATOM      7  C   UNL     1       6.416  -4.367  22.892  0.00  0.00    +0.043 A 
ATOM      8  C   UNL     1       5.619  -3.700  23.827  0.00  0.00    +0.047 A 
ATOM      9  C   UNL     1       5.833  -2.351  23.960  0.00  0.00    +0.067 A 
ATOM     10  N   UNL     1       5.254  -1.441  24.841  0.00  0.00    -0.334 N 
ATOM     11  H   UNL     1       4.572  -1.647  25.555  0.00  0.00    +0.168 HD
ATOM     12  C   UNL     1       5.831  -0.174  24.632  0.00  0.00    +0.159 A 
ATOM     13  S   UNL     1       5.443   1.170  25.514  0.00  0.00    -0.013 S 
ATOM     14  N   UNL     1       6.764  -0.319  23.588  0.00  0.00    -0.318 N 
ATOM     15 CL   UNL     1       6.212  -6.063  22.665  0.00  0.00    -0.083 Cl
ATOM     16  C   UNL     1       6.787  -1.669  23.207  0.00  0.00    +0.072 A 
ATOM     17  C   UNL     1       7.523   0.692  22.870  0.00  0.00    +0.143 C 
ENDROOT
BRANCH   3  18
ATOM     18  C   UNL     1       9.933  -1.472  24.029  0.00  0.00    +0.112 C 
BRANCH  18  19
ATOM     19  C   UNL     1       9.521  -0.698  25.248  0.00  0.00    -0.013 C 
ATOM     20  C   UNL     1       8.824  -1.152  26.311  0.00  0.00    -0.078 C 
ATOM     21  C   UNL     1       8.401  -0.214  27.410  0.00  0.00    +0.038 C 
ATOM     22  C   UNL     1       8.360  -2.571  26.515  0.00  0.00    +0.038 C 
ENDBRANCH  18  19
ENDBRANCH   3  18
TORSDOF 2
ENDMDL
MODEL 4
REMARK VINA RESULT:      -5.8      4.549      7.267
REMARK  Name = 
REMARK  5 active torsions:
REMARK  status: ('A' for Active; 'I' for Inactive)
REMARK    1  A    between atoms: C_2  and  C_3
REMARK    2  A    between atoms: N_13  and  C_14
REMARK    3  A    between atoms: C_14  and  C_15
REMARK    4  A    between atoms: C_16  and  C_17
REMARK    5  A    between atoms: C_16  and  C_18
REMARK                            x       y       z     vdW  Elec       q    Type
REMARK                         _______ _______ _______ _____ _____    ______ ____
ROOT
ATOM      1  C   UNL     1       7.996   4.026  23.639  0.00  0.00    +0.074 C 
ATOM      2  C   UNL     1       7.370   4.948  22.586  0.00  0.00    +0.026 C 
ATOM      3  N   UNL     1       9.058   3.223  22.971  0.00  0.00    -0.290 NA
ATOM      4  C   UNL     1       8.589   1.911  22.477  0.00  0.00    +0.122 C 
ATOM      5  C   UNL     1       8.499   0.828  23.515  0.00  0.00    -0.006 A 
ATOM      6  C   UNL     1       9.081  -0.435  23.311  0.00  0.00    +0.027 A 
ATOM      7  C   UNL     1       9.198  -1.360  24.371  0.00  0.00    +0.043 A 
ATOM      8  C   UNL     1       8.750  -1.056  25.660  0.00  0.00    +0.047 A 
ATOM      9  C   UNL     1       8.146   0.165  25.825  0.00  0.00    +0.067 A 
ATOM     10  N   UNL     1       7.664   0.771  26.983  0.00  0.00    -0.334 N 
ATOM     11  H   UNL     1       7.702   0.395  27.918  0.00  0.00    +0.168 HD
ATOM     12  C   UNL     1       7.172   2.050  26.658  0.00  0.00    +0.159 A 
ATOM     13  S   UNL     1       6.555   3.107  27.769  0.00  0.00    -0.013 S 
ATOM     14  N   UNL     1       7.342   2.211  25.270  0.00  0.00    -0.318 N 
ATOM     15 CL   UNL     1       9.969  -2.872  24.079  0.00  0.00    -0.083 Cl
ATOM     16  C   UNL     1       7.976   1.062  24.771  0.00  0.00    +0.072 A 
ATOM     17  C   UNL     1       6.870   3.267  24.390  0.00  0.00    +0.143 C 
ENDROOT
BRANCH   3  18
ATOM     18  C   UNL     1      10.263   3.180  23.820  0.00  0.00    +0.112 C 
BRANCH  18  19
ATOM     19  C   UNL     1      11.501   3.775  23.214  0.00  0.00    -0.013 C 
ATOM     20  C   UNL     1      11.947   5.043  23.339  0.00  0.00    -0.078 C 
ATOM     21  C   UNL     1      13.159   5.510  22.577  0.00  0.00    +0.038 C 
ATOM     22  C   UNL     1      11.307   6.121  24.176  0.00  0.00    +0.038 C 
ENDBRANCH  18  19
ENDBRANCH   3  18
TORSDOF 2
ENDMDL
MODEL 5
REMARK VINA RESULT:      -5.6      2.306      3.605
REMARK  Name = 
REMARK  5 active torsions:
REMARK  status: ('A' for Active; 'I' for Inactive)
REMARK    1  A    between atoms: C_2  and  C_3
REMARK    2  A    between atoms: N_13  and  C_14
REMARK    3  A    between atoms: C_14  and  C_15
REMARK    4  A    between atoms: C_16  and  C_17
REMARK    5  A    between atoms: C_16  and  C_18
REMARK                            x       y       z     vdW  Elec       q    Type
REMARK                         _______ _______ _______ _____ _____    ______ ____
ROOT
ATOM      1  C   UNL     1       8.691  -1.865  22.778  0.00  0.00    +0.074 C 
ATOM      2  C   UNL     1       9.656  -1.010  21.948  0.00  0.00    +0.026 C 
ATOM      3  N   UNL     1       7.343  -1.234  22.704  0.00  0.00    -0.290 NA
ATOM      4  C   UNL     1       7.063  -0.300  23.816  0.00  0.00    +0.122 C 
ATOM      5  C   UNL     1       6.631  -0.944  25.103  0.00  0.00    -0.006 A 
ATOM      6  C   UNL     1       5.482  -0.516  25.789  0.00  0.00    +0.027 A 
ATOM      7  C   UNL     1       4.954  -1.269  26.860  0.00  0.00    +0.043 A 
ATOM      8  C   UNL     1       5.544  -2.467  27.273  0.00  0.00    +0.047 A 
ATOM      9  C   UNL     1       6.689  -2.842  26.617  0.00  0.00    +0.067 A 
ATOM     10  N   UNL     1       7.456  -3.997  26.754  0.00  0.00    -0.334 N 
ATOM     11  H   UNL     1       7.269  -4.773  27.371  0.00  0.00    +0.168 HD
ATOM     12  C   UNL     1       8.515  -3.954  25.827  0.00  0.00    +0.159 A 
ATOM     13  S   UNL     1       9.625  -5.165  25.643  0.00  0.00    -0.013 S 
ATOM     14  N   UNL     1       8.397  -2.737  25.130  0.00  0.00    -0.318 N 
ATOM     15 CL   UNL     1       3.512  -0.728  27.631  0.00  0.00    -0.083 Cl
ATOM     16  C   UNL     1       7.249  -2.077  25.596  0.00  0.00    +0.072 A 
ATOM     17  C   UNL     1       9.304  -2.115  24.180  0.00  0.00    +0.143 C 
ENDROOT
BRANCH   3  18
ATOM     18  C   UNL     1       6.317  -2.268  22.480  0.00  0.00    +0.112 C 
BRANCH  18  19
ATOM     19  C   UNL     1       6.836  -3.608  22.041  0.00  0.00    -0.013 C 
ATOM     20  C   UNL     1       6.576  -4.810  22.596  0.00  0.00    -0.078 C 
ATOM     21  C   UNL     1       7.263  -6.053  22.095  0.00  0.00    +0.038 C 
ATOM     22  C   UNL     1       5.650  -5.059  23.759  0.00  0.00    +0.038 C 
ENDBRANCH  18  19
ENDBRANCH   3  18
TORSDOF 2
ENDMDL
MODEL 6
REMARK VINA RESULT:      -5.6      2.946      5.163
REMARK  Name = 
REMARK  5 active torsions:
REMARK  status: ('A' for Active; 'I' for Inactive)
REMARK    1  A    between atoms: C_2  and  C_3
REMARK    2  A    between atoms: N_13  and  C_14
REMARK    3  A    between atoms: C_14  and  C_15
REMARK    4  A    between atoms: C_16  and  C_17
REMARK    5  A    between atoms: C_16  and  C_18
REMARK                            x       y       z     vdW  Elec       q    Type
REMARK                         _______ _______ _______ _____ _____    ______ ____
ROOT
ATOM      1  C   UNL     1       8.518  -2.483  23.318  0.00  0.00    +0.074 C 
ATOM      2  C   UNL     1      10.008  -2.377  23.662  0.00  0.00    +0.026 C 
ATOM      3  N   UNL     1       7.805  -1.388  24.032  0.00  0.00    -0.290 NA
ATOM      4  C   UNL     1       7.264  -1.791  25.348  0.00  0.00    +0.122 C 
ATOM      5  C   UNL     1       5.961  -2.539  25.307  0.00  0.00    -0.006 A 
ATOM      6  C   UNL     1       4.869  -2.156  26.104  0.00  0.00    +0.027 A 
ATOM      7  C   UNL     1       3.587  -2.708  25.891  0.00  0.00    +0.043 A 
ATOM      8  C   UNL     1       3.352  -3.645  24.880  0.00  0.00    +0.047 A 
ATOM      9  C   UNL     1       4.443  -4.036  24.145  0.00  0.00    +0.067 A 
ATOM     10  N   UNL     1       4.515  -4.890  23.046  0.00  0.00    -0.334 N 
ATOM     11  H   UNL     1       3.743  -5.357  22.597  0.00  0.00    +0.168 HD
ATOM     12  C   UNL     1       5.850  -4.945  22.600  0.00  0.00    +0.159 A 
ATOM     13  S   UNL     1       6.343  -5.817  21.284  0.00  0.00    -0.013 S 
ATOM     14  N   UNL     1       6.601  -4.123  23.460  0.00  0.00    -0.318 N 
ATOM     15 CL   UNL     1       2.271  -2.163  26.859  0.00  0.00    -0.083 Cl
ATOM     16  C   UNL     1       5.722  -3.538  24.384  0.00  0.00    +0.072 A 
ATOM     17  C   UNL     1       8.041  -3.940  23.552  0.00  0.00    +0.143 C 
ENDROOT
BRANCH   3  18
ATOM     18  C   UNL     1       6.835  -0.746  23.126  0.00  0.00    +0.112 C 
BRANCH  18  19
ATOM     19  C   UNL     1       6.999   0.736  22.951  0.00  0.00    -0.013 C 
ATOM     20  C   UNL     1       7.961   1.378  22.254  0.00  0.00    -0.078 C 
ATOM     21  C   UNL     1       8.044   2.882  22.264  0.00  0.00    +0.038 C 
ATOM     22  C   UNL     1       9.051   0.718  21.450  0.00  0.00    +0.038 C 
ENDBRANCH  18  19
ENDBRANCH   3  18
TORSDOF 2
ENDMDL
MODEL 7
REMARK VINA RESULT:      -5.5      3.441      5.314
REMARK  Name = 
REMARK  5 active torsions:
REMARK  status: ('A' for Active; 'I' for Inactive)
REMARK    1  A    between atoms: C_2  and  C_3
REMARK    2  A    between atoms: N_13  and  C_14
REMARK    3  A    between atoms: C_14  and  C_15
REMARK    4  A    between atoms: C_16  and  C_17
REMARK    5  A    between atoms: C_16  and  C_18
REMARK                            x       y       z     vdW  Elec       q    Type
REMARK                         _______ _______ _______ _____ _____    ______ ____
ROOT
ATOM      1  C   UNL     1       8.325  -3.129  24.085  0.00  0.00    +0.074 C 
ATOM      2  C   UNL     1       9.778  -2.642  24.041  0.00  0.00    +0.026 C 
ATOM      3  N   UNL     1       7.786  -2.835  25.442  0.00  0.00    -0.290 NA
ATOM      4  C   UNL     1       7.920  -3.961  26.391  0.00  0.00    +0.122 C 
ATOM      5  C   UNL     1       6.875  -5.034  26.268  0.00  0.00    -0.006 A 
ATOM      6  C   UNL     1       6.160  -5.495  27.387  0.00  0.00    +0.027 A 
ATOM      7  C   UNL     1       5.028  -6.324  27.232  0.00  0.00    +0.043 A 
ATOM      8  C   UNL     1       4.570  -6.710  25.969  0.00  0.00    +0.047 A 
ATOM      9  C   UNL     1       5.310  -6.284  24.895  0.00  0.00    +0.067 A 
ATOM     10  N   UNL     1       5.074  -6.448  23.532  0.00  0.00    -0.334 N 
ATOM     11  H   UNL     1       4.284  -6.910  23.110  0.00  0.00    +0.168 HD
ATOM     12  C   UNL     1       6.091  -5.790  22.812  0.00  0.00    +0.159 A 
ATOM     13  S   UNL     1       6.144  -5.712  21.161  0.00  0.00    -0.013 S 
ATOM     14  N   UNL     1       6.969  -5.236  23.762  0.00  0.00    -0.318 N 
ATOM     15 CL   UNL     1       4.156  -6.816  28.634  0.00  0.00    -0.083 Cl
ATOM     16  C   UNL     1       6.460  -5.512  25.041  0.00  0.00    +0.072 A 
ATOM     17  C   UNL     1       8.258  -4.592  23.574  0.00  0.00    +0.143 C 
ENDROOT
BRANCH   3  18
ATOM     18  C   UNL     1       6.430  -2.267  25.332  0.00  0.00    +0.112 C 
BRANCH  18  19
ATOM     19  C   UNL     1       6.285  -1.130  24.361  0.00  0.00    -0.013 C 
ATOM     20  C   UNL     1       6.778   0.120  24.483  0.00  0.00    -0.078 C 
ATOM     21  C   UNL     1       6.452   1.179  23.462  0.00  0.00    +0.038 C 
ATOM     22  C   UNL     1       7.638   0.619  25.616  0.00  0.00    +0.038 C 
ENDBRANCH  18  19
ENDBRANCH   3  18
TORSDOF 2
ENDMDL
MODEL 8
REMARK VINA RESULT:      -5.5      3.304      5.009
REMARK  Name = 
REMARK  5 active torsions:
REMARK  status: ('A' for Active; 'I' for Inactive)
REMARK    1  A    between atoms: C_2  and  C_3
REMARK    2  A    between atoms: N_13  and  C_14
REMARK    3  A    between atoms: C_14  and  C_15
REMARK    4  A    between atoms: C_16  and  C_17
REMARK    5  A    between atoms: C_16  and  C_18
REMARK                            x       y       z     vdW  Elec       q    Type
REMARK                         _______ _______ _______ _____ _____    ______ ____
ROOT
ATOM      1  C   UNL     1       6.282  -2.040  24.547  0.00  0.00    +0.074 C 
ATOM      2  C   UNL     1       6.492  -0.608  24.039  0.00  0.00    +0.026 C 
ATOM      3  N   UNL     1       4.899  -2.134  25.092  0.00  0.00    -0.290 NA
ATOM      4  C   UNL     1       4.816  -1.882  26.547  0.00  0.00    +0.122 C 
ATOM      5  C   UNL     1       5.181  -3.047  27.423  0.00  0.00    -0.006 A 
ATOM      6  C   UNL     1       4.344  -3.471  28.469  0.00  0.00    +0.027 A 
ATOM      7  C   UNL     1       4.575  -4.696  29.131  0.00  0.00    +0.043 A 
ATOM      8  C   UNL     1       5.633  -5.536  28.770  0.00  0.00    +0.047 A 
ATOM      9  C   UNL     1       6.462  -5.080  27.776  0.00  0.00    +0.067 A 
ATOM     10  N   UNL     1       7.544  -5.708  27.163  0.00  0.00    -0.334 N 
ATOM     11  H   UNL     1       7.886  -6.637  27.353  0.00  0.00    +0.168 HD
ATOM     12  C   UNL     1       8.054  -4.860  26.161  0.00  0.00    +0.159 A 
ATOM     13  S   UNL     1       9.316  -5.262  25.171  0.00  0.00    -0.013 S 
ATOM     14  N   UNL     1       7.276  -3.687  26.184  0.00  0.00    -0.318 N 
ATOM     15 CL   UNL     1       3.486  -5.194  30.369  0.00  0.00    -0.083 Cl
ATOM     16  C   UNL     1       6.275  -3.847  27.155  0.00  0.00    +0.072 A 
ATOM     17  C   UNL     1       7.461  -2.432  25.476  0.00  0.00    +0.143 C 
ENDROOT
BRANCH   3  18
ATOM     18  C   UNL     1       4.264  -3.383  24.634  0.00  0.00    +0.112 C 
BRANCH  18  19
ATOM     19  C   UNL     1       5.011  -4.135  23.570  0.00  0.00    -0.013 C 
ATOM     20  C   UNL     1       5.331  -5.446  23.564  0.00  0.00    -0.078 C 
ATOM     21  C   UNL     1       6.180  -6.025  22.462  0.00  0.00    +0.038 C 
ATOM     22  C   UNL     1       4.946  -6.449  24.620  0.00  0.00    +0.038 C 
ENDBRANCH  18  19
ENDBRANCH   3  18
TORSDOF 2
ENDMDL
MODEL 9
REMARK VINA RESULT:      -5.5      2.404      3.947
REMARK  Name = 
REMARK  5 active torsions:
REMARK  status: ('A' for Active; 'I' for Inactive)
REMARK    1  A    between atoms: C_2  and  C_3
REMARK    2  A    between atoms: N_13  and  C_14
REMARK    3  A    between atoms: C_14  and  C_15
REMARK    4  A    between atoms: C_16  and  C_17
REMARK    5  A    between atoms: C_16  and  C_18
REMARK                            x       y       z     vdW  Elec       q    Type
REMARK                         _______ _______ _______ _____ _____    ______ ____
ROOT
ATOM      1  C   UNL     1       5.083  -5.443  26.989  0.00  0.00    +0.074 C 
ATOM      2  C   UNL     1       4.996  -6.707  27.854  0.00  0.00    +0.026 C 
ATOM      3  N   UNL     1       5.832  -5.788  25.749  0.00  0.00    -0.290 NA
ATOM      4  C   UNL     1       7.282  -5.516  25.835  0.00  0.00    +0.122 C 
ATOM      5  C   UNL     1       7.682  -4.084  25.612  0.00  0.00    -0.006 A 
ATOM      6  C   UNL     1       8.695  -3.738  24.702  0.00  0.00    +0.027 A 
ATOM      7  C   UNL     1       8.902  -2.393  24.326  0.00  0.00    +0.043 A 
ATOM      8  C   UNL     1       8.109  -1.360  24.834  0.00  0.00    +0.047 A 
ATOM      9  C   UNL     1       7.156  -1.718  25.755  0.00  0.00    +0.067 A 
ATOM     10  N   UNL     1       6.186  -0.938  26.380  0.00  0.00    -0.334 N 
ATOM     11  H   UNL     1       6.020   0.046  26.233  0.00  0.00    +0.168 HD
ATOM     12  C   UNL     1       5.405  -1.763  27.211  0.00  0.00    +0.159 A 
ATOM     13  S   UNL     1       4.115  -1.222  28.093  0.00  0.00    -0.013 S 
ATOM     14  N   UNL     1       5.928  -3.065  27.101  0.00  0.00    -0.318 N 
ATOM     15 CL   UNL     1      10.121  -2.029  23.165  0.00  0.00    -0.083 Cl
ATOM     16  C   UNL     1       6.981  -3.035  26.173  0.00  0.00    +0.072 A 
ATOM     17  C   UNL     1       5.606  -4.266  27.854  0.00  0.00    +0.143 C 
ENDROOT
BRANCH   3  18
ATOM     18  C   UNL     1       5.153  -5.208  24.575  0.00  0.00    +0.112 C 
BRANCH  18  19
ATOM     19  C   UNL     1       5.598  -5.742  23.244  0.00  0.00    -0.013 C 
ATOM     20  C   UNL     1       5.938  -5.032  22.148  0.00  0.00    -0.078 C 
ATOM     21  C   UNL     1       6.263  -5.727  20.852  0.00  0.00    +0.038 C 
ATOM     22  C   UNL     1       5.995  -3.528  22.058  0.00  0.00    +0.038 C 
ENDBRANCH  18  19
ENDBRANCH   3  18
TORSDOF 2
ENDMDL
