MODEL 1
REMARK VINA RESULT:      -6.6      0.000      0.000
REMARK  Name = 
REMARK  5 active torsions:
REMARK  status: ('A' for Active; 'I' for Inactive)
REMARK    1  A    between atoms: N_10  and  C1*_11
REMARK    2  A    between atoms: C4*_14  and  C5*_16
REMARK    3  A    between atoms: C5*_16  and  O5*_17
REMARK    4  A    between atoms: C3*_18  and  O3*_20
REMARK    5  A    between atoms: C2*_21  and  O2*_23
REMARK                            x       y       z     vdW  Elec       q    Type
REMARK                         _______ _______ _______ _____ _____    ______ ____
ROOT
ATOM      1  N   UNL     1       9.747  -6.000  25.541  0.00  0.00    -0.341 N 
ATOM      2  H   UNL     1      10.684  -5.621  25.447  0.00  0.00    +0.144 HD
ATOM      3  H   UNL     1       9.546  -6.588  26.338  0.00  0.00    +0.144 HD
ATOM      4  C   UNL     1       8.759  -5.044  25.341  0.00  0.00    +0.144 A 
ATOM      5  C   UNL     1       8.988  -3.844  24.628  0.00  0.00    +0.128 A 
ATOM      6  N   UNL     1      10.154  -3.357  24.077  0.00  0.00    -0.232 NA
ATOM      7  C   UNL     1       9.822  -2.218  23.519  0.00  0.00    +0.202 A 
ATOM      8  N   UNL     1       8.480  -1.958  23.630  0.00  0.00    -0.301 N 
ATOM      9  C   UNL     1       7.935  -2.953  24.419  0.00  0.00    +0.076 A 
ATOM     10  C   UNL     1       6.667  -3.190  24.949  0.00  0.00    +0.048 A 
ATOM     11  C   UNL     1       6.544  -4.374  25.664  0.00  0.00    +0.115 A 
ATOM     12  N   UNL     1       7.531  -5.279  25.864  0.00  0.00    -0.238 NA
ENDROOT
BRANCH   8  13
ATOM     13  C1* UNL     1       7.804  -0.797  23.061  0.00  0.00    +0.252 C 
ATOM     14  C2* UNL     1       7.125   0.156  24.057  0.00  0.00    +0.195 C 
ATOM     15  C3* UNL     1       8.211   1.171  24.413  0.00  0.00    +0.178 C 
ATOM     16  C4* UNL     1       9.324   0.904  23.397  0.00  0.00    +0.177 C 
ATOM     17  O4* UNL     1       8.760   0.056  22.382  0.00  0.00    -0.346 OA
BRANCH  14  18
ATOM     18  O2* UNL     1       6.020   0.824  23.418  0.00  0.00    -0.385 OA
ATOM     19  H2* UNL     1       5.823   0.363  22.580  0.00  0.00    +0.210 HD
ENDBRANCH  14  18
BRANCH  15  20
ATOM     20  O3* UNL     1       8.686   0.941  25.737  0.00  0.00    -0.386 OA
ATOM     21  H3* UNL     1       8.983   0.012  25.774  0.00  0.00    +0.210 HD
ENDBRANCH  15  20
BRANCH  16  22
ATOM     22  C5* UNL     1       9.896   2.179  22.786  0.00  0.00    +0.190 C 
BRANCH  22  23
ATOM     23  O5* UNL     1       9.771   2.149  21.370  0.00  0.00    -0.392 OA
ATOM     24  H5* UNL     1       9.255   2.933  21.104  0.00  0.00    +0.210 HD
ENDBRANCH  22  23
ENDBRANCH  16  22
ENDBRANCH   8  13
TORSDOF 5
ENDMDL
MODEL 2
REMARK VINA RESULT:      -6.5      1.660      2.897
REMARK  Name = 
REMARK  5 active torsions:
REMARK  status: ('A' for Active; 'I' for Inactive)
REMARK    1  A    between atoms: N_10  and  C1*_11
REMARK    2  A    between atoms: C4*_14  and  C5*_16
REMARK    3  A    between atoms: C5*_16  and  O5*_17
REMARK    4  A    between atoms: C3*_18  and  O3*_20
REMARK    5  A    between atoms: C2*_21  and  O2*_23
REMARK                            x       y       z     vdW  Elec       q    Type
REMARK                         _______ _______ _______ _____ _____    ______ ____
ROOT
ATOM      1  N   UNL     1       5.389  -6.171  25.733  0.00  0.00    -0.341 N 
ATOM      2  H   UNL     1       4.962  -6.304  24.822  0.00  0.00    +0.144 HD
ATOM      3  H   UNL     1       5.434  -6.961  26.361  0.00  0.00    +0.144 HD
ATOM      4  C   UNL     1       6.600  -5.494  25.664  0.00  0.00    +0.144 A 
ATOM      5  C   UNL     1       6.958  -4.675  24.569  0.00  0.00    +0.128 A 
ATOM      6  N   UNL     1       6.280  -4.434  23.393  0.00  0.00    -0.232 NA
ATOM      7  C   UNL     1       7.036  -3.594  22.726  0.00  0.00    +0.202 A 
ATOM      8  N   UNL     1       8.154  -3.229  23.432  0.00  0.00    -0.301 N 
ATOM      9  C   UNL     1       8.169  -3.982  24.590  0.00  0.00    +0.076 A 
ATOM     10  C   UNL     1       9.068  -4.124  25.646  0.00  0.00    +0.048 A 
ATOM     11  C   UNL     1       8.650  -4.976  26.660  0.00  0.00    +0.115 A 
ATOM     12  N   UNL     1       7.471  -5.642  26.691  0.00  0.00    -0.238 NA
ENDROOT
BRANCH   8  13
ATOM     13  C1* UNL     1       9.152  -2.268  22.976  0.00  0.00    +0.252 C 
ATOM     14  C2* UNL     1       8.693  -1.256  21.914  0.00  0.00    +0.195 C 
ATOM     15  C3* UNL     1       8.164  -0.071  22.722  0.00  0.00    +0.178 C 
ATOM     16  C4* UNL     1       8.614  -0.361  24.156  0.00  0.00    +0.177 C 
ATOM     17  O4* UNL     1       9.577  -1.425  24.078  0.00  0.00    -0.346 OA
BRANCH  14  18
ATOM     18  O2* UNL     1       9.818  -0.841  21.116  0.00  0.00    -0.385 OA
ATOM     19  H2* UNL     1       9.510  -0.178  20.469  0.00  0.00    +0.210 HD
ENDBRANCH  14  18
BRANCH  15  20
ATOM     20  O3* UNL     1       6.741  -0.022  22.651  0.00  0.00    -0.386 OA
ATOM     21  H3* UNL     1       6.441   0.555  23.380  0.00  0.00    +0.210 HD
ENDBRANCH  15  20
BRANCH  16  22
ATOM     22  C5* UNL     1       9.204   0.858  24.857  0.00  0.00    +0.190 C 
BRANCH  22  23
ATOM     23  O5* UNL     1      10.552   0.608  25.235  0.00  0.00    -0.392 OA
ATOM     24  H5* UNL     1      10.537   0.205  26.124  0.00  0.00    +0.210 HD
ENDBRANCH  22  23
ENDBRANCH  16  22
ENDBRANCH   8  13
TORSDOF 5
ENDMDL
MODEL 3
REMARK VINA RESULT:      -6.4      1.844      2.945
REMARK  Name = 
REMARK  5 active torsions:
REMARK  status: ('A' for Active; 'I' for Inactive)
REMARK    1  A    between atoms: N_10  and  C1*_11
REMARK    2  A    between atoms: C4*_14  and  C5*_16
REMARK    3  A    between atoms: C5*_16  and  O5*_17
REMARK    4  A    between atoms: C3*_18  and  O3*_20
REMARK    5  A    between atoms: C2*_21  and  O2*_23
REMARK                            x       y       z     vdW  Elec       q    Type
REMARK                         _______ _______ _______ _____ _____    ______ ____
ROOT
ATOM      1  N   UNL     1       8.823  -4.805  24.378  0.00  0.00    -0.341 N 
ATOM      2  H   UNL     1       9.539  -4.943  23.673  0.00  0.00    +0.144 HD
ATOM      3  H   UNL     1       8.735  -5.493  25.113  0.00  0.00    +0.144 HD
ATOM      4  C   UNL     1       8.804  -3.509  24.877  0.00  0.00    +0.144 A 
ATOM      5  C   UNL     1       9.351  -2.410  24.176  0.00  0.00    +0.128 A 
ATOM      6  N   UNL     1      10.030  -2.383  22.976  0.00  0.00    -0.232 NA
ATOM      7  C   UNL     1      10.309  -1.118  22.767  0.00  0.00    +0.202 A 
ATOM      8  N   UNL     1       9.797  -0.306  23.747  0.00  0.00    -0.301 N 
ATOM      9  C   UNL     1       9.250  -1.127  24.713  0.00  0.00    +0.076 A 
ATOM     10  C   UNL     1       8.668  -0.906  25.961  0.00  0.00    +0.048 A 
ATOM     11  C   UNL     1       8.190  -2.047  26.594  0.00  0.00    +0.115 A 
ATOM     12  N   UNL     1       8.242  -3.304  26.093  0.00  0.00    -0.238 NA
ENDROOT
BRANCH   8  13
ATOM     13  C1* UNL     1       9.895   1.150  23.760  0.00  0.00    +0.252 C 
ATOM     14  C2* UNL     1      10.191   1.827  22.412  0.00  0.00    +0.195 C 
ATOM     15  C3* UNL     1       8.811   2.092  21.810  0.00  0.00    +0.178 C 
ATOM     16  C4* UNL     1       7.838   1.816  22.959  0.00  0.00    +0.177 C 
ATOM     17  O4* UNL     1       8.629   1.734  24.156  0.00  0.00    -0.346 OA
BRANCH  14  18
ATOM     18  O2* UNL     1      10.877   3.075  22.633  0.00  0.00    -0.385 OA
ATOM     19  H2* UNL     1      10.645   3.688  21.909  0.00  0.00    +0.210 HD
ENDBRANCH  14  18
BRANCH  15  20
ATOM     20  O3* UNL     1       8.566   1.197  20.728  0.00  0.00    -0.386 OA
ATOM     21  H3* UNL     1       9.408   0.739  20.543  0.00  0.00    +0.210 HD
ENDBRANCH  15  20
BRANCH  16  22
ATOM     22  C5* UNL     1       6.753   2.878  23.093  0.00  0.00    +0.190 C 
BRANCH  22  23
ATOM     23  O5* UNL     1       6.420   3.410  21.816  0.00  0.00    -0.392 OA
ATOM     24  H5* UNL     1       5.450   3.514  21.786  0.00  0.00    +0.210 HD
ENDBRANCH  22  23
ENDBRANCH  16  22
ENDBRANCH   8  13
TORSDOF 5
ENDMDL
MODEL 4
REMARK VINA RESULT:      -6.3      1.648      2.742
REMARK  Name = 
REMARK  5 active torsions:
REMARK  status: ('A' for Active; 'I' for Inactive)
REMARK    1  A    between atoms: N_10  and  C1*_11
REMARK    2  A    between atoms: C4*_14  and  C5*_16
REMARK    3  A    between atoms: C5*_16  and  O5*_17
REMARK    4  A    between atoms: C3*_18  and  O3*_20
REMARK    5  A    between atoms: C2*_21  and  O2*_23
REMARK                            x       y       z     vdW  Elec       q    Type
REMARK                         _______ _______ _______ _____ _____    ______ ____
ROOT
ATOM      1  N   UNL     1       5.508  -6.063  24.603  0.00  0.00    -0.341 N 
ATOM      2  H   UNL     1       5.259  -5.878  23.637  0.00  0.00    +0.144 HD
ATOM      3  H   UNL     1       5.667  -7.021  24.882  0.00  0.00    +0.144 HD
ATOM      4  C   UNL     1       6.506  -5.216  25.071  0.00  0.00    +0.144 A 
ATOM      5  C   UNL     1       6.790  -3.966  24.476  0.00  0.00    +0.128 A 
ATOM      6  N   UNL     1       6.242  -3.381  23.354  0.00  0.00    -0.232 NA
ATOM      7  C   UNL     1       6.843  -2.220  23.242  0.00  0.00    +0.202 A 
ATOM      8  N   UNL     1       7.723  -1.991  24.269  0.00  0.00    -0.301 N 
ATOM      9  C   UNL     1       7.770  -3.142  25.031  0.00  0.00    +0.076 A 
ATOM     10  C   UNL     1       8.521  -3.550  26.133  0.00  0.00    +0.048 A 
ATOM     11  C   UNL     1       8.198  -4.807  26.629  0.00  0.00    +0.115 A 
ATOM     12  N   UNL     1       7.235  -5.622  26.139  0.00  0.00    -0.238 NA
ENDROOT
BRANCH   8  13
ATOM     13  C1* UNL     1       8.497  -0.768  24.448  0.00  0.00    +0.252 C 
ATOM     14  C2* UNL     1       9.989  -0.842  24.086  0.00  0.00    +0.195 C 
ATOM     15  C3* UNL     1      10.040  -0.461  22.607  0.00  0.00    +0.178 C 
ATOM     16  C4* UNL     1       8.638   0.075  22.306  0.00  0.00    +0.177 C 
ATOM     17  O4* UNL     1       7.994   0.276  23.576  0.00  0.00    -0.346 OA
BRANCH  14  18
ATOM     18  O2* UNL     1      10.729   0.117  24.866  0.00  0.00    -0.385 OA
ATOM     19  H2* UNL     1      11.682  -0.036  24.719  0.00  0.00    +0.210 HD
ENDBRANCH  14  18
BRANCH  15  20
ATOM     20  O3* UNL     1      10.311  -1.611  21.810  0.00  0.00    -0.386 OA
ATOM     21  H3* UNL     1       9.547  -2.211  21.911  0.00  0.00    +0.210 HD
ENDBRANCH  15  20
BRANCH  16  22
ATOM     22  C5* UNL     1       8.651   1.364  21.491  0.00  0.00    +0.190 C 
BRANCH  22  23
ATOM     23  O5* UNL     1       9.936   1.972  21.547  0.00  0.00    -0.392 OA
ATOM     24  H5* UNL     1      10.190   2.205  20.634  0.00  0.00    +0.210 HD
ENDBRANCH  22  23
ENDBRANCH  16  22
ENDBRANCH   8  13
TORSDOF 5
ENDMDL
MODEL 5
REMARK VINA RESULT:      -6.3      3.225      5.680
REMARK  Name = 
REMARK  5 active torsions:
REMARK  status: ('A' for Active; 'I' for Inactive)
REMARK    1  A    between atoms: N_10  and  C1*_11
REMARK    2  A    between atoms: C4*_14  and  C5*_16
REMARK    3  A    between atoms: C5*_16  and  O5*_17
REMARK    4  A    between atoms: C3*_18  and  O3*_20
REMARK    5  A    between atoms: C2*_21  and  O2*_23
REMARK                            x       y       z     vdW  Elec       q    Type
REMARK                         _______ _______ _______ _____ _____    ______ ____
ROOT
ATOM      1  N   UNL     1      10.929   1.669  24.108  0.00  0.00    -0.341 N 
ATOM      2  H   UNL     1      11.505   1.220  23.404  0.00  0.00    +0.144 HD
ATOM      3  H   UNL     1      10.837   2.675  24.082  0.00  0.00    +0.144 HD
ATOM      4  C   UNL     1       9.701   1.041  24.276  0.00  0.00    +0.144 A 
ATOM      5  C   UNL     1       9.469  -0.301  23.897  0.00  0.00    +0.128 A 
ATOM      6  N   UNL     1      10.310  -1.195  23.268  0.00  0.00    -0.232 NA
ATOM      7  C   UNL     1       9.616  -2.303  23.161  0.00  0.00    +0.202 A 
ATOM      8  N   UNL     1       8.377  -2.197  23.739  0.00  0.00    -0.301 N 
ATOM      9  C   UNL     1       8.226  -0.885  24.144  0.00  0.00    +0.076 A 
ATOM     10  C   UNL     1       7.180  -0.154  24.707  0.00  0.00    +0.048 A 
ATOM     11  C   UNL     1       7.487   1.165  25.013  0.00  0.00    +0.115 A 
ATOM     12  N   UNL     1       8.688   1.759  24.818  0.00  0.00    -0.238 NA
ENDROOT
BRANCH   8  13
ATOM     13  C1* UNL     1       7.402  -3.278  23.827  0.00  0.00    +0.252 C 
ATOM     14  C2* UNL     1       7.918  -4.692  23.516  0.00  0.00    +0.195 C 
ATOM     15  C3* UNL     1       8.388  -5.230  24.868  0.00  0.00    +0.178 C 
ATOM     16  C4* UNL     1       7.853  -4.218  25.884  0.00  0.00    +0.177 C 
ATOM     17  O4* UNL     1       6.904  -3.396  25.184  0.00  0.00    -0.346 OA
BRANCH  14  18
ATOM     18  O2* UNL     1       6.841  -5.506  23.013  0.00  0.00    -0.385 OA
ATOM     19  H2* UNL     1       6.462  -6.012  23.757  0.00  0.00    +0.210 HD
ENDBRANCH  14  18
BRANCH  15  20
ATOM     20  O3* UNL     1       9.812  -5.270  24.914  0.00  0.00    -0.386 OA
ATOM     21  H3* UNL     1      10.055  -5.834  25.674  0.00  0.00    +0.210 HD
ENDBRANCH  15  20
BRANCH  16  22
ATOM     22  C5* UNL     1       7.213  -4.874  27.102  0.00  0.00    +0.190 C 
BRANCH  22  23
ATOM     23  O5* UNL     1       7.977  -5.999  27.518  0.00  0.00    -0.392 OA
ATOM     24  H5* UNL     1       8.910  -5.817  27.299  0.00  0.00    +0.210 HD
ENDBRANCH  22  23
ENDBRANCH  16  22
ENDBRANCH   8  13
TORSDOF 5
ENDMDL
MODEL 6
REMARK VINA RESULT:      -6.3      2.242      2.883
REMARK  Name = 
REMARK  5 active torsions:
REMARK  status: ('A' for Active; 'I' for Inactive)
REMARK    1  A    between atoms: N_10  and  C1*_11
REMARK    2  A    between atoms: C4*_14  and  C5*_16
REMARK    3  A    between atoms: C5*_16  and  O5*_17
REMARK    4  A    between atoms: C3*_18  and  O3*_20
REMARK    5  A    between atoms: C2*_21  and  O2*_23
REMARK                            x       y       z     vdW  Elec       q    Type
REMARK                         _______ _______ _______ _____ _____    ______ ____
ROOT
ATOM      1  N   UNL     1       6.324  -6.799  22.200  0.00  0.00    -0.341 N 
ATOM      2  H   UNL     1       7.183  -7.180  22.582  0.00  0.00    +0.144 HD
ATOM      3  H   UNL     1       5.513  -7.399  22.153  0.00  0.00    +0.144 HD
ATOM      4  C   UNL     1       6.013  -5.548  22.720  0.00  0.00    +0.144 A 
ATOM      5  C   UNL     1       6.980  -4.704  23.312  0.00  0.00    +0.128 A 
ATOM      6  N   UNL     1       8.319  -4.932  23.551  0.00  0.00    -0.232 NA
ATOM      7  C   UNL     1       8.763  -3.829  24.105  0.00  0.00    +0.202 A 
ATOM      8  N   UNL     1       7.791  -2.866  24.193  0.00  0.00    -0.301 N 
ATOM      9  C   UNL     1       6.608  -3.439  23.766  0.00  0.00    +0.076 A 
ATOM     10  C   UNL     1       5.285  -3.005  23.703  0.00  0.00    +0.048 A 
ATOM     11  C   UNL     1       4.398  -3.914  23.140  0.00  0.00    +0.115 A 
ATOM     12  N   UNL     1       4.724  -5.137  22.660  0.00  0.00    -0.238 NA
ENDROOT
BRANCH   8  13
ATOM     13  C1* UNL     1       7.996  -1.517  24.711  0.00  0.00    +0.252 C 
ATOM     14  C2* UNL     1       9.454  -1.043  24.824  0.00  0.00    +0.195 C 
ATOM     15  C3* UNL     1       9.747  -0.389  23.474  0.00  0.00    +0.178 C 
ATOM     16  C4* UNL     1       8.376  -0.280  22.802  0.00  0.00    +0.177 C 
ATOM     17  O4* UNL     1       7.396  -0.542  23.821  0.00  0.00    -0.346 OA
BRANCH  14  18
ATOM     18  O2* UNL     1       9.569  -0.066  25.877  0.00  0.00    -0.385 OA
ATOM     19  H2* UNL     1      10.392   0.441  25.740  0.00  0.00    +0.210 HD
ENDBRANCH  14  18
BRANCH  15  20
ATOM     20  O3* UNL     1      10.611  -1.219  22.702  0.00  0.00    -0.386 OA
ATOM     21  H3* UNL     1      10.050  -1.903  22.288  0.00  0.00    +0.210 HD
ENDBRANCH  15  20
BRANCH  16  22
ATOM     22  C5* UNL     1       8.135   1.076  22.149  0.00  0.00    +0.190 C 
BRANCH  22  23
ATOM     23  O5* UNL     1       9.163   1.362  21.208  0.00  0.00    -0.392 OA
ATOM     24  H5* UNL     1       9.914   1.743  21.702  0.00  0.00    +0.210 HD
ENDBRANCH  22  23
ENDBRANCH  16  22
ENDBRANCH   8  13
TORSDOF 5
ENDMDL
MODEL 7
REMARK VINA RESULT:      -6.3      3.333      5.850
REMARK  Name = 
REMARK  5 active torsions:
REMARK  status: ('A' for Active; 'I' for Inactive)
REMARK    1  A    between atoms: N_10  and  C1*_11
REMARK    2  A    between atoms: C4*_14  and  C5*_16
REMARK    3  A    between atoms: C5*_16  and  O5*_17
REMARK    4  A    between atoms: C3*_18  and  O3*_20
REMARK    5  A    between atoms: C2*_21  and  O2*_23
REMARK                            x       y       z     vdW  Elec       q    Type
REMARK                         _______ _______ _______ _____ _____    ______ ____
ROOT
ATOM      1  N   UNL     1       8.585   2.193  25.254  0.00  0.00    -0.341 N 
ATOM      2  H   UNL     1       8.490   2.026  26.251  0.00  0.00    +0.144 HD
ATOM      3  H   UNL     1       9.027   3.049  24.951  0.00  0.00    +0.144 HD
ATOM      4  C   UNL     1       9.074   1.086  24.570  0.00  0.00    +0.144 A 
ATOM      5  C   UNL     1       8.989  -0.229  25.081  0.00  0.00    +0.128 A 
ATOM      6  N   UNL     1       8.507  -0.671  26.295  0.00  0.00    -0.232 NA
ATOM      7  C   UNL     1       8.642  -1.976  26.264  0.00  0.00    +0.202 A 
ATOM      8  N   UNL     1       9.140  -2.417  25.065  0.00  0.00    -0.301 N 
ATOM      9  C   UNL     1       9.453  -1.299  24.316  0.00  0.00    +0.076 A 
ATOM     10  C   UNL     1      10.057  -1.097  23.076  0.00  0.00    +0.048 A 
ATOM     11  C   UNL     1      10.131   0.229  22.670  0.00  0.00    +0.115 A 
ATOM     12  N   UNL     1       9.665   1.292  23.368  0.00  0.00    -0.238 NA
ENDROOT
BRANCH   8  13
ATOM     13  C1* UNL     1       9.347  -3.818  24.711  0.00  0.00    +0.252 C 
ATOM     14  C2* UNL     1       8.902  -4.858  25.751  0.00  0.00    +0.195 C 
ATOM     15  C3* UNL     1       7.446  -5.156  25.392  0.00  0.00    +0.178 C 
ATOM     16  C4* UNL     1       7.252  -4.495  24.025  0.00  0.00    +0.177 C 
ATOM     17  O4* UNL     1       8.563  -4.161  23.540  0.00  0.00    -0.346 OA
BRANCH  14  18
ATOM     18  O2* UNL     1       9.694  -6.054  25.616  0.00  0.00    -0.385 OA
ATOM     19  H2* UNL     1      10.418  -5.875  24.985  0.00  0.00    +0.210 HD
ENDBRANCH  14  18
BRANCH  15  20
ATOM     20  O3* UNL     1       6.572  -4.570  26.353  0.00  0.00    -0.386 OA
ATOM     21  H3* UNL     1       7.003  -3.751  26.665  0.00  0.00    +0.210 HD
ENDBRANCH  15  20
BRANCH  16  22
ATOM     22  C5* UNL     1       6.512  -5.383  23.030  0.00  0.00    +0.190 C 
BRANCH  22  23
ATOM     23  O5* UNL     1       7.433  -6.007  22.144  0.00  0.00    -0.392 OA
ATOM     24  H5* UNL     1       8.022  -6.569  22.681  0.00  0.00    +0.210 HD
ENDBRANCH  22  23
ENDBRANCH  16  22
ENDBRANCH   8  13
TORSDOF 5
ENDMDL
MODEL 8
REMARK VINA RESULT:      -6.2      3.114      5.694
REMARK  Name = 
REMARK  5 active torsions:
REMARK  status: ('A' for Active; 'I' for Inactive)
REMARK    1  A    between atoms: N_10  and  C1*_11
REMARK    2  A    between atoms: C4*_14  and  C5*_16
REMARK    3  A    between atoms: C5*_16  and  O5*_17
REMARK    4  A    between atoms: C3*_18  and  O3*_20
REMARK    5  A    between atoms: C2*_21  and  O2*_23
REMARK                            x       y       z     vdW  Elec       q    Type
REMARK                         _______ _______ _______ _____ _____    ______ ____
ROOT
ATOM      1  N   UNL     1       9.488   1.963  21.465  0.00  0.00    -0.341 N 
ATOM      2  H   UNL     1       8.529   2.010  21.136  0.00  0.00    +0.144 HD
ATOM      3  H   UNL     1      10.044   2.806  21.445  0.00  0.00    +0.144 HD
ATOM      4  C   UNL     1       9.606   1.292  22.677  0.00  0.00    +0.144 A 
ATOM      5  C   UNL     1       8.632   0.382  23.146  0.00  0.00    +0.128 A 
ATOM      6  N   UNL     1       7.418   0.031  22.595  0.00  0.00    -0.232 NA
ATOM      7  C   UNL     1       6.911  -0.859  23.415  0.00  0.00    +0.202 A 
ATOM      8  N   UNL     1       7.760  -1.150  24.452  0.00  0.00    -0.301 N 
ATOM      9  C   UNL     1       8.841  -0.296  24.347  0.00  0.00    +0.076 A 
ATOM     10  C   UNL     1       9.969  -0.053  25.131  0.00  0.00    +0.048 A 
ATOM     11  C   UNL     1      10.853   0.883  24.610  0.00  0.00    +0.115 A 
ATOM     12  N   UNL     1      10.701   1.539  23.435  0.00  0.00    -0.238 NA
ENDROOT
BRANCH   8  13
ATOM     13  C1* UNL     1       7.499  -2.139  25.492  0.00  0.00    +0.252 C 
ATOM     14  C2* UNL     1       6.259  -3.026  25.296  0.00  0.00    +0.195 C 
ATOM     15  C3* UNL     1       6.775  -4.232  24.511  0.00  0.00    +0.178 C 
ATOM     16  C4* UNL     1       8.298  -4.092  24.563  0.00  0.00    +0.177 C 
ATOM     17  O4* UNL     1       8.587  -3.096  25.558  0.00  0.00    -0.346 OA
BRANCH  14  18
ATOM     18  O2* UNL     1       5.757  -3.453  26.577  0.00  0.00    -0.385 OA
ATOM     19  H2* UNL     1       6.395  -3.183  27.265  0.00  0.00    +0.210 HD
ENDBRANCH  14  18
BRANCH  15  20
ATOM     20  O3* UNL     1       6.319  -4.174  23.162  0.00  0.00    -0.386 OA
ATOM     21  H3* UNL     1       5.994  -3.265  23.012  0.00  0.00    +0.210 HD
ENDBRANCH  15  20
BRANCH  16  22
ATOM     22  C5* UNL     1       9.010  -5.403  24.880  0.00  0.00    +0.190 C 
BRANCH  22  23
ATOM     23  O5* UNL     1      10.401  -5.177  25.070  0.00  0.00    -0.392 OA
ATOM     24  H5* UNL     1      10.854  -6.035  24.967  0.00  0.00    +0.210 HD
ENDBRANCH  22  23
ENDBRANCH  16  22
ENDBRANCH   8  13
TORSDOF 5
ENDMDL
MODEL 9
REMARK VINA RESULT:      -6.1      3.055      5.773
REMARK  Name = 
REMARK  5 active torsions:
REMARK  status: ('A' for Active; 'I' for Inactive)
REMARK    1  A    between atoms: N_10  and  C1*_11
REMARK    2  A    between atoms: C4*_14  and  C5*_16
REMARK    3  A    between atoms: C5*_16  and  O5*_17
REMARK    4  A    between atoms: C3*_18  and  O3*_20
REMARK    5  A    between atoms: C2*_21  and  O2*_23
REMARK                            x       y       z     vdW  Elec       q    Type
REMARK                         _______ _______ _______ _____ _____    ______ ____
ROOT
ATOM      1  N   UNL     1      11.002   3.878  23.104  0.00  0.00    -0.341 N 
ATOM      2  H   UNL     1      11.324   3.596  22.183  0.00  0.00    +0.144 HD
ATOM      3  H   UNL     1      10.900   4.864  23.294  0.00  0.00    +0.144 HD
ATOM      4  C   UNL     1       9.898   3.150  23.532  0.00  0.00    +0.144 A 
ATOM      5  C   UNL     1       9.566   1.882  23.004  0.00  0.00    +0.128 A 
ATOM      6  N   UNL     1      10.165   1.167  21.989  0.00  0.00    -0.232 NA
ATOM      7  C   UNL     1       9.481   0.051  21.903  0.00  0.00    +0.202 A 
ATOM      8  N   UNL     1       8.493  -0.026  22.852  0.00  0.00    -0.301 N 
ATOM      9  C   UNL     1       8.473   1.184  23.519  0.00  0.00    +0.076 A 
ATOM     10  C   UNL     1       7.659   1.736  24.508  0.00  0.00    +0.048 A 
ATOM     11  C   UNL     1       8.039   3.000  24.939  0.00  0.00    +0.115 A 
ATOM     12  N   UNL     1       9.109   3.697  24.488  0.00  0.00    -0.238 NA
ENDROOT
BRANCH   8  13
ATOM     13  C1* UNL     1       7.606  -1.168  23.043  0.00  0.00    +0.252 C 
ATOM     14  C2* UNL     1       8.160  -2.541  22.631  0.00  0.00    +0.195 C 
ATOM     15  C3* UNL     1       8.840  -3.071  23.893  0.00  0.00    +0.178 C 
ATOM     16  C4* UNL     1       8.386  -2.112  24.997  0.00  0.00    +0.177 C 
ATOM     17  O4* UNL     1       7.304  -1.339  24.451  0.00  0.00    -0.346 OA
BRANCH  14  18
ATOM     18  O2* UNL     1       7.076  -3.413  22.255  0.00  0.00    -0.385 OA
ATOM     19  H2* UNL     1       7.243  -4.296  22.636  0.00  0.00    +0.210 HD
ENDBRANCH  14  18
BRANCH  15  20
ATOM     20  O3* UNL     1      10.257  -3.022  23.748  0.00  0.00    -0.386 OA
ATOM     21  H3* UNL     1      10.616  -2.686  24.591  0.00  0.00    +0.210 HD
ENDBRANCH  15  20
BRANCH  16  22
ATOM     22  C5* UNL     1       7.957  -2.827  26.273  0.00  0.00    +0.190 C 
BRANCH  22  23
ATOM     23  O5* UNL     1       8.876  -3.864  26.592  0.00  0.00    -0.392 OA
ATOM     24  H5* UNL     1       8.451  -4.438  27.257  0.00  0.00    +0.210 HD
ENDBRANCH  22  23
ENDBRANCH  16  22
ENDBRANCH   8  13
TORSDOF 5
ENDMDL
