MODEL 1
REMARK VINA RESULT:      -7.5      0.000      0.000
REMARK  Name = 
REMARK  9 active torsions:
REMARK  status: ('A' for Active; 'I' for Inactive)
REMARK    1  A    between atoms: N_14  and  C_15
REMARK    2  A    between atoms: N_14  and  C_16
REMARK    3  A    between atoms: C_25  and  O_26
REMARK    4  A    between atoms: O_26  and  C_27
REMARK    5  A    between atoms: N_32  and  C_33
REMARK    6  A    between atoms: C_36  and  O_37
REMARK    7  A    between atoms: C_41  and  O_42
REMARK    8  A    between atoms: O_42  and  C_43
REMARK    9  A    between atoms: C_44  and  O_45
REMARK                            x       y       z     vdW  Elec       q    Type
REMARK                         _______ _______ _______ _____ _____    ______ ____
ROOT
ATOM      1  C   UNL     1       9.131   0.044  22.294  0.00  0.00    +0.091 C 
ATOM      2  C   UNL     1       7.926   0.548  23.094  0.00  0.00    -0.023 A 
ATOM      3  C   UNL     1       6.989  -0.211  23.787  0.00  0.00    +0.055 A 
ATOM      4  C   UNL     1       6.119   0.428  24.677  0.00  0.00    +0.170 A 
ATOM      5  C   UNL     1       5.595   1.590  24.130  0.00  0.00    +0.162 A 
ATOM      6  C   UNL     1       6.506   2.461  23.556  0.00  0.00    +0.053 A 
ATOM      7  O   UNL     1       6.911   0.786  25.923  0.00  0.00    -0.449 OA
ATOM      8  C   UNL     1       6.339   0.392  27.123  0.00  0.00    +0.170 A 
ATOM      9  C   UNL     1       6.395   1.149  28.294  0.00  0.00    +0.159 A 
ATOM     10  C   UNL     1       5.608   0.817  29.409  0.00  0.00    +0.049 A 
ATOM     11  C   UNL     1       4.788  -0.312  29.355  0.00  0.00    +0.007 A 
ATOM     12  C   UNL     1       4.855  -1.148  28.241  0.00  0.00    -0.038 A 
ATOM     13  C   UNL     1       3.881  -2.277  28.009  0.00  0.00    +0.095 C 
ATOM     14  C   UNL     1       4.536  -3.678  27.911  0.00  0.00    +0.105 C 
ATOM     15  C   UNL     1       4.152  -4.283  26.548  0.00  0.00    +0.050 A 
ATOM     16  C   UNL     1       2.939  -4.976  26.424  0.00  0.00    -0.027 A 
ATOM     17  C   UNL     1       2.410  -5.235  25.150  0.00  0.00    +0.054 A 
ATOM     18  C   UNL     1       3.013  -4.683  24.016  0.00  0.00    +0.165 A 
ATOM     19  C   UNL     1       4.199  -3.980  24.171  0.00  0.00    +0.202 A 
ATOM     20  C   UNL     1       2.220  -5.533  27.611  0.00  0.00    +0.087 C 
ATOM     21  C   UNL     1       2.613  -4.948  28.955  0.00  0.00    +0.138 C 
ATOM     22  C   UNL     1       4.891  -3.967  25.384  0.00  0.00    +0.182 A 
ATOM     23  O   UNL     1       6.228  -3.734  25.607  0.00  0.00    -0.452 OA
ATOM     24  C   UNL     1       7.208  -3.703  24.640  0.00  0.00    +0.129 A 
ATOM     25  C   UNL     1       7.109  -4.104  23.315  0.00  0.00    +0.046 A 
ATOM     26  C   UNL     1       7.895  -3.458  22.356  0.00  0.00    +0.007 A 
ATOM     27  C   UNL     1       8.894  -2.573  22.770  0.00  0.00    -0.045 A 
ATOM     28  C   UNL     1       9.292  -2.621  24.096  0.00  0.00    +0.007 A 
ATOM     29  C   UNL     1       8.398  -3.101  25.052  0.00  0.00    +0.046 A 
ATOM     30  N   UNL     1       4.093  -4.601  29.098  0.00  0.00    +0.245 N 
ATOM     31  C   UNL     1       5.030  -5.816  29.073  0.00  0.00    +0.193 C 
ATOM     32  C   UNL     1       4.255  -3.958  30.482  0.00  0.00    +0.193 C 
ATOM     33  C   UNL     1       5.714  -0.834  27.188  0.00  0.00    +0.054 A 
ATOM     34  C   UNL     1       7.765   1.945  23.209  0.00  0.00    -0.038 A 
ATOM     35  C   UNL     1       8.977   2.831  23.181  0.00  0.00    +0.051 C 
ATOM     36  C   UNL     1      10.242   2.173  22.601  0.00  0.00    +0.089 C 
ATOM     37  N   UNL     1      10.375   0.712  22.783  0.00  0.00    -0.298 NA
ATOM     38  C   UNL     1      10.687   0.373  24.173  0.00  0.00    +0.105 C 
ATOM     39  C   UNL     1       9.373  -1.465  21.862  0.00  0.00    +0.058 C 
ENDROOT
BRANCH   5  40
ATOM     40  O   UNL     1       4.272   1.798  23.839  0.00  0.00    -0.491 OA
ATOM     41  C   UNL     1       3.888   3.171  23.725  0.00  0.00    +0.277 C 
ENDBRANCH   5  40
BRANCH   9  42
ATOM     42  O   UNL     1       7.222   2.236  28.385  0.00  0.00    -0.503 OA
ATOM     43  H   UNL     1       6.832   2.948  27.854  0.00  0.00    +0.292 HD
ENDBRANCH   9  42
BRANCH  18  44
ATOM     44  O   UNL     1       2.546  -4.792  22.740  0.00  0.00    -0.491 OA
ATOM     45  C   UNL     1       1.344  -5.529  22.542  0.00  0.00    +0.277 C 
ENDBRANCH  18  44
BRANCH  19  46
ATOM     46  O   UNL     1       4.609  -3.225  23.102  0.00  0.00    -0.501 OA
ATOM     47  H   UNL     1       5.417  -2.751  23.387  0.00  0.00    +0.292 HD
ENDBRANCH  19  46
TORSDOF 4
ENDMDL
MODEL 2
REMARK VINA RESULT:      -7.4      2.021      2.874
REMARK  Name = 
REMARK  9 active torsions:
REMARK  status: ('A' for Active; 'I' for Inactive)
REMARK    1  A    between atoms: N_14  and  C_15
REMARK    2  A    between atoms: N_14  and  C_16
REMARK    3  A    between atoms: C_25  and  O_26
REMARK    4  A    between atoms: O_26  and  C_27
REMARK    5  A    between atoms: N_32  and  C_33
REMARK    6  A    between atoms: C_36  and  O_37
REMARK    7  A    between atoms: C_41  and  O_42
REMARK    8  A    between atoms: O_42  and  C_43
REMARK    9  A    between atoms: C_44  and  O_45
REMARK                            x       y       z     vdW  Elec       q    Type
REMARK                         _______ _______ _______ _____ _____    ______ ____
ROOT
ATOM      1  C   UNL     1       8.583   3.474  22.892  0.00  0.00    +0.091 C 
ATOM      2  C   UNL     1       7.093   3.282  23.192  0.00  0.00    -0.023 A 
ATOM      3  C   UNL     1       6.450   2.116  23.589  0.00  0.00    +0.055 A 
ATOM      4  C   UNL     1       5.140   2.191  24.076  0.00  0.00    +0.170 A 
ATOM      5  C   UNL     1       4.352   3.017  23.288  0.00  0.00    +0.162 A 
ATOM      6  C   UNL     1       4.883   4.261  22.985  0.00  0.00    +0.053 A 
ATOM      7  O   UNL     1       5.201   2.764  25.481  0.00  0.00    -0.449 OA
ATOM      8  C   UNL     1       4.514   2.043  26.446  0.00  0.00    +0.170 A 
ATOM      9  C   UNL     1       3.811   2.630  27.499  0.00  0.00    +0.159 A 
ATOM     10  C   UNL     1       2.948   1.870  28.306  0.00  0.00    +0.049 A 
ATOM     11  C   UNL     1       2.826   0.498  28.073  0.00  0.00    +0.007 A 
ATOM     12  C   UNL     1       3.646  -0.106  27.121  0.00  0.00    -0.038 A 
ATOM     13  C   UNL     1       3.457  -1.533  26.669  0.00  0.00    +0.095 C 
ATOM     14  C   UNL     1       4.682  -2.450  26.916  0.00  0.00    +0.105 C 
ATOM     15  C   UNL     1       5.110  -3.039  25.559  0.00  0.00    +0.050 A 
ATOM     16  C   UNL     1       4.485  -4.205  25.091  0.00  0.00    -0.027 A 
ATOM     17  C   UNL     1       4.603  -4.566  23.740  0.00  0.00    +0.054 A 
ATOM     18  C   UNL     1       5.219  -3.696  22.835  0.00  0.00    +0.165 A 
ATOM     19  C   UNL     1       5.807  -2.538  23.322  0.00  0.00    +0.202 A 
ATOM     20  C   UNL     1       3.760  -5.137  26.008  0.00  0.00    +0.087 C 
ATOM     21  C   UNL     1       3.355  -4.560  27.351  0.00  0.00    +0.138 C 
ATOM     22  C   UNL     1       5.958  -2.312  24.692  0.00  0.00    +0.182 A 
ATOM     23  O   UNL     1       6.866  -1.503  25.334  0.00  0.00    -0.452 OA
ATOM     24  C   UNL     1       7.977  -0.931  24.756  0.00  0.00    +0.129 A 
ATOM     25  C   UNL     1       8.530  -1.210  23.514  0.00  0.00    +0.046 A 
ATOM     26  C   UNL     1       9.192  -0.189  22.826  0.00  0.00    +0.007 A 
ATOM     27  C   UNL     1       9.455   1.019  23.478  0.00  0.00    -0.045 A 
ATOM     28  C   UNL     1       9.356   1.044  24.860  0.00  0.00    +0.007 A 
ATOM     29  C   UNL     1       8.529   0.118  25.494  0.00  0.00    +0.046 A 
ATOM     30  N   UNL     1       4.353  -3.576  27.956  0.00  0.00    +0.245 N 
ATOM     31  C   UNL     1       5.695  -4.205  28.352  0.00  0.00    +0.193 C 
ATOM     32  C   UNL     1       3.718  -3.059  29.255  0.00  0.00    +0.193 C 
ATOM     33  C   UNL     1       4.556   0.667  26.398  0.00  0.00    +0.054 A 
ATOM     34  C   UNL     1       6.269   4.426  23.128  0.00  0.00    -0.038 A 
ATOM     35  C   UNL     1       6.854   5.774  23.437  0.00  0.00    +0.051 C 
ATOM     36  C   UNL     1       8.390   5.839  23.377  0.00  0.00    +0.089 C 
ATOM     37  N   UNL     1       9.122   4.599  23.716  0.00  0.00    -0.298 NA
ATOM     38  C   UNL     1       9.068   4.322  25.152  0.00  0.00    +0.105 C 
ATOM     39  C   UNL     1       9.632   2.299  22.696  0.00  0.00    +0.058 C 
ENDROOT
BRANCH   5  40
ATOM     40  O   UNL     1       3.272   2.608  22.551  0.00  0.00    -0.491 OA
ATOM     41  C   UNL     1       2.736   3.597  21.667  0.00  0.00    +0.277 C 
ENDBRANCH   5  40
BRANCH   9  42
ATOM     42  O   UNL     1       3.947   3.964  27.772  0.00  0.00    -0.503 OA
ATOM     43  H   UNL     1       3.459   4.148  28.590  0.00  0.00    +0.292 HD
ENDBRANCH   9  42
BRANCH  18  44
ATOM     44  O   UNL     1       5.318  -3.896  21.490  0.00  0.00    -0.491 OA
ATOM     45  C   UNL     1       6.068  -5.022  21.047  0.00  0.00    +0.277 C 
ENDBRANCH  18  44
BRANCH  19  46
ATOM     46  O   UNL     1       6.148  -1.587  22.396  0.00  0.00    -0.501 OA
ATOM     47  H   UNL     1       6.846  -1.979  21.833  0.00  0.00    +0.292 HD
ENDBRANCH  19  46
TORSDOF 4
ENDMDL
MODEL 3
REMARK VINA RESULT:      -7.3      2.314      7.715
REMARK  Name = 
REMARK  9 active torsions:
REMARK  status: ('A' for Active; 'I' for Inactive)
REMARK    1  A    between atoms: N_14  and  C_15
REMARK    2  A    between atoms: N_14  and  C_16
REMARK    3  A    between atoms: C_25  and  O_26
REMARK    4  A    between atoms: O_26  and  C_27
REMARK    5  A    between atoms: N_32  and  C_33
REMARK    6  A    between atoms: C_36  and  O_37
REMARK    7  A    between atoms: C_41  and  O_42
REMARK    8  A    between atoms: O_42  and  C_43
REMARK    9  A    between atoms: C_44  and  O_45
REMARK                            x       y       z     vdW  Elec       q    Type
REMARK                         _______ _______ _______ _____ _____    ______ ____
ROOT
ATOM      1  C   UNL     1       2.659  -7.353  25.990  0.00  0.00    +0.091 C 
ATOM      2  C   UNL     1       3.276  -6.421  27.037  0.00  0.00    -0.023 A 
ATOM      3  C   UNL     1       4.180  -5.386  26.825  0.00  0.00    +0.055 A 
ATOM      4  C   UNL     1       4.426  -4.474  27.858  0.00  0.00    +0.170 A 
ATOM      5  C   UNL     1       4.597  -5.118  29.074  0.00  0.00    +0.162 A 
ATOM      6  C   UNL     1       3.636  -6.058  29.409  0.00  0.00    +0.053 A 
ATOM      7  O   UNL     1       3.224  -3.550  27.956  0.00  0.00    -0.449 OA
ATOM      8  C   UNL     1       3.517  -2.195  27.963  0.00  0.00    +0.170 A 
ATOM      9  C   UNL     1       2.825  -1.256  28.730  0.00  0.00    +0.159 A 
ATOM     10  C   UNL     1       3.308   0.055  28.877  0.00  0.00    +0.049 A 
ATOM     11  C   UNL     1       4.476   0.432  28.210  0.00  0.00    +0.007 A 
ATOM     12  C   UNL     1       5.074  -0.464  27.326  0.00  0.00    -0.038 A 
ATOM     13  C   UNL     1       6.430  -0.220  26.710  0.00  0.00    +0.095 C 
ATOM     14  C   UNL     1       6.430  -0.169  25.161  0.00  0.00    +0.105 C 
ATOM     15  C   UNL     1       7.406  -1.247  24.654  0.00  0.00    +0.050 A 
ATOM     16  C   UNL     1       8.770  -0.938  24.543  0.00  0.00    -0.027 A 
ATOM     17  C   UNL     1       9.712  -1.970  24.417  0.00  0.00    +0.054 A 
ATOM     18  C   UNL     1       9.310  -3.303  24.545  0.00  0.00    +0.165 A 
ATOM     19  C   UNL     1       7.958  -3.579  24.680  0.00  0.00    +0.202 A 
ATOM     20  C   UNL     1       9.257   0.474  24.465  0.00  0.00    +0.087 C 
ATOM     21  C   UNL     1       8.287   1.536  24.948  0.00  0.00    +0.138 C 
ATOM     22  C   UNL     1       6.986  -2.589  24.509  0.00  0.00    +0.182 A 
ATOM     23  O   UNL     1       5.663  -2.736  24.163  0.00  0.00    -0.452 OA
ATOM     24  C   UNL     1       5.085  -3.887  23.677  0.00  0.00    +0.129 A 
ATOM     25  C   UNL     1       5.722  -5.039  23.235  0.00  0.00    +0.046 A 
ATOM     26  C   UNL     1       5.073  -6.267  23.385  0.00  0.00    +0.007 A 
ATOM     27  C   UNL     1       3.736  -6.293  23.788  0.00  0.00    -0.045 A 
ATOM     28  C   UNL     1       3.011  -5.115  23.700  0.00  0.00    +0.007 A 
ATOM     29  C   UNL     1       3.691  -3.899  23.744  0.00  0.00    +0.046 A 
ATOM     30  N   UNL     1       6.819   1.256  24.636  0.00  0.00    +0.245 N 
ATOM     31  C   UNL     1       6.479   1.273  23.140  0.00  0.00    +0.193 C 
ATOM     32  C   UNL     1       6.015   2.397  25.275  0.00  0.00    +0.193 C 
ATOM     33  C   UNL     1       4.517  -1.730  27.138  0.00  0.00    +0.054 A 
ATOM     34  C   UNL     1       2.842  -6.570  28.371  0.00  0.00    -0.038 A 
ATOM     35  C   UNL     1       1.450  -7.064  28.642  0.00  0.00    +0.051 C 
ATOM     36  C   UNL     1       0.774  -7.769  27.452  0.00  0.00    +0.089 C 
ATOM     37  N   UNL     1       1.169  -7.317  26.100  0.00  0.00    -0.298 NA
ATOM     38  C   UNL     1       0.612  -5.998  25.794  0.00  0.00    +0.105 C 
ATOM     39  C   UNL     1       3.160  -7.499  24.491  0.00  0.00    +0.058 C 
ENDROOT
BRANCH   5  40
ATOM     40  O   UNL     1       5.757  -5.132  29.803  0.00  0.00    -0.491 OA
ATOM     41  C   UNL     1       6.036  -6.366  30.471  0.00  0.00    +0.277 C 
ENDBRANCH   5  40
BRANCH   9  42
ATOM     42  O   UNL     1       1.656  -1.591  29.358  0.00  0.00    -0.503 OA
ATOM     43  H   UNL     1       1.089  -0.804  29.364  0.00  0.00    +0.292 HD
ENDBRANCH   9  42
BRANCH  18  44
ATOM     44  O   UNL     1      10.141  -4.383  24.527  0.00  0.00    -0.491 OA
ATOM     45  C   UNL     1      10.250  -5.149  25.722  0.00  0.00    +0.277 C 
ENDBRANCH  18  44
BRANCH  19  46
ATOM     46  O   UNL     1       7.627  -4.848  25.080  0.00  0.00    -0.501 OA
ATOM     47  H   UNL     1       8.040  -4.983  25.957  0.00  0.00    +0.292 HD
ENDBRANCH  19  46
TORSDOF 4
ENDMDL
MODEL 4
REMARK VINA RESULT:      -6.5      3.325      7.736
REMARK  Name = 
REMARK  9 active torsions:
REMARK  status: ('A' for Active; 'I' for Inactive)
REMARK    1  A    between atoms: N_14  and  C_15
REMARK    2  A    between atoms: N_14  and  C_16
REMARK    3  A    between atoms: C_25  and  O_26
REMARK    4  A    between atoms: O_26  and  C_27
REMARK    5  A    between atoms: N_32  and  C_33
REMARK    6  A    between atoms: C_36  and  O_37
REMARK    7  A    between atoms: C_41  and  O_42
REMARK    8  A    between atoms: O_42  and  C_43
REMARK    9  A    between atoms: C_44  and  O_45
REMARK                            x       y       z     vdW  Elec       q    Type
REMARK                         _______ _______ _______ _____ _____    ______ ____
ROOT
ATOM      1  C   UNL     1       9.665  -2.262  23.898  0.00  0.00    +0.091 C 
ATOM      2  C   UNL     1       8.958  -1.596  25.083  0.00  0.00    -0.023 A 
ATOM      3  C   UNL     1       8.391  -0.328  25.131  0.00  0.00    +0.055 A 
ATOM      4  C   UNL     1       7.557   0.007  26.204  0.00  0.00    +0.170 A 
ATOM      5  C   UNL     1       8.095  -0.405  27.414  0.00  0.00    +0.162 A 
ATOM      6  C   UNL     1       8.540  -1.716  27.470  0.00  0.00    +0.053 A 
ATOM      7  O   UNL     1       6.228  -0.697  25.993  0.00  0.00    -0.449 OA
ATOM      8  C   UNL     1       5.105   0.111  26.094  0.00  0.00    +0.170 A 
ATOM      9  C   UNL     1       3.900  -0.303  26.662  0.00  0.00    +0.159 A 
ATOM     10  C   UNL     1       2.880   0.620  26.948  0.00  0.00    +0.049 A 
ATOM     11  C   UNL     1       3.064   1.965  26.619  0.00  0.00    +0.007 A 
ATOM     12  C   UNL     1       4.205   2.343  25.913  0.00  0.00    -0.038 A 
ATOM     13  C   UNL     1       4.579   3.786  25.681  0.00  0.00    +0.095 C 
ATOM     14  C   UNL     1       4.682   4.188  24.187  0.00  0.00    +0.105 C 
ATOM     15  C   UNL     1       6.102   4.731  23.942  0.00  0.00    +0.050 A 
ATOM     16  C   UNL     1       6.371   6.084  24.200  0.00  0.00    -0.027 A 
ATOM     17  C   UNL     1       7.699   6.522  24.314  0.00  0.00    +0.054 A 
ATOM     18  C   UNL     1       8.744   5.594  24.314  0.00  0.00    +0.165 A 
ATOM     19  C   UNL     1       8.447   4.259  24.083  0.00  0.00    +0.202 A 
ATOM     20  C   UNL     1       5.283   7.108  24.271  0.00  0.00    +0.087 C 
ATOM     21  C   UNL     1       3.882   6.569  24.494  0.00  0.00    +0.138 C 
ATOM     22  C   UNL     1       7.175   3.851  23.675  0.00  0.00    +0.182 A 
ATOM     23  O   UNL     1       6.818   2.713  22.989  0.00  0.00    -0.452 OA
ATOM     24  C   UNL     1       7.686   1.855  22.354  0.00  0.00    +0.129 A 
ATOM     25  C   UNL     1       9.033   2.054  22.080  0.00  0.00    +0.046 A 
ATOM     26  C   UNL     1       9.883   0.945  22.038  0.00  0.00    +0.007 A 
ATOM     27  C   UNL     1       9.337  -0.340  22.073  0.00  0.00    -0.045 A 
ATOM     28  C   UNL     1       7.982  -0.475  21.811  0.00  0.00    +0.007 A 
ATOM     29  C   UNL     1       7.137   0.607  22.050  0.00  0.00    +0.046 A 
ATOM     30  N   UNL     1       3.586   5.241  23.802  0.00  0.00    +0.245 N 
ATOM     31  C   UNL     1       3.580   5.318  22.269  0.00  0.00    +0.193 C 
ATOM     32  C   UNL     1       2.163   4.842  24.220  0.00  0.00    +0.193 C 
ATOM     33  C   UNL     1       5.157   1.383  25.568  0.00  0.00    +0.054 A 
ATOM     34  C   UNL     1       8.793  -2.368  26.253  0.00  0.00    -0.038 A 
ATOM     35  C   UNL     1       8.666  -3.860  26.140  0.00  0.00    +0.051 C 
ATOM     36  C   UNL     1       9.156  -4.448  24.805  0.00  0.00    +0.089 C 
ATOM     37  N   UNL     1       9.031  -3.584  23.611  0.00  0.00    -0.298 NA
ATOM     38  C   UNL     1       7.636  -3.460  23.186  0.00  0.00    +0.105 C 
ATOM     39  C   UNL     1      10.142  -1.511  22.583  0.00  0.00    +0.058 C 
ENDROOT
BRANCH   5  40
ATOM     40  O   UNL     1       8.498   0.429  28.423  0.00  0.00    -0.491 OA
ATOM     41  C   UNL     1       7.439   1.119  29.095  0.00  0.00    +0.277 C 
ENDBRANCH   5  40
BRANCH   9  42
ATOM     42  O   UNL     1       3.682  -1.622  26.955  0.00  0.00    -0.503 OA
ATOM     43  H   UNL     1       2.830  -1.873  26.565  0.00  0.00    +0.292 HD
ENDBRANCH   9  42
BRANCH  18  44
ATOM     44  O   UNL     1      10.062   5.889  24.503  0.00  0.00    -0.491 OA
ATOM     45  C   UNL     1      10.380   6.893  25.461  0.00  0.00    +0.277 C 
ENDBRANCH  18  44
BRANCH  19  46
ATOM     46  O   UNL     1       9.436   3.353  24.365  0.00  0.00    -0.501 OA
ATOM     47  H   UNL     1      10.247   3.674  23.921  0.00  0.00    +0.292 HD
ENDBRANCH  19  46
TORSDOF 4
ENDMDL
MODEL 5
REMARK VINA RESULT:      -6.2      3.255      7.657
REMARK  Name = 
REMARK  9 active torsions:
REMARK  status: ('A' for Active; 'I' for Inactive)
REMARK    1  A    between atoms: N_14  and  C_15
REMARK    2  A    between atoms: N_14  and  C_16
REMARK    3  A    between atoms: C_25  and  O_26
REMARK    4  A    between atoms: O_26  and  C_27
REMARK    5  A    between atoms: N_32  and  C_33
REMARK    6  A    between atoms: C_36  and  O_37
REMARK    7  A    between atoms: C_41  and  O_42
REMARK    8  A    between atoms: O_42  and  C_43
REMARK    9  A    between atoms: C_44  and  O_45
REMARK                            x       y       z     vdW  Elec       q    Type
REMARK                         _______ _______ _______ _____ _____    ______ ____
ROOT
ATOM      1  C   UNL     1       9.643  -0.425  23.571  0.00  0.00    +0.091 C 
ATOM      2  C   UNL     1       8.871  -0.331  24.891  0.00  0.00    -0.023 A 
ATOM      3  C   UNL     1       8.027   0.690  25.311  0.00  0.00    +0.055 A 
ATOM      4  C   UNL     1       7.203   0.481  26.422  0.00  0.00    +0.170 A 
ATOM      5  C   UNL     1       7.893  -0.128  27.459  0.00  0.00    +0.162 A 
ATOM      6  C   UNL     1       8.636  -1.249  27.125  0.00  0.00    +0.053 A 
ATOM      7  O   UNL     1       6.065  -0.428  25.989  0.00  0.00    -0.449 OA
ATOM      8  C   UNL     1       4.793   0.019  26.312  0.00  0.00    +0.170 A 
ATOM      9  C   UNL     1       3.754  -0.823  26.712  0.00  0.00    +0.159 A 
ATOM     10  C   UNL     1       2.565  -0.300  27.248  0.00  0.00    +0.049 A 
ATOM     11  C   UNL     1       2.409   1.084  27.342  0.00  0.00    +0.007 A 
ATOM     12  C   UNL     1       3.385   1.918  26.800  0.00  0.00    -0.038 A 
ATOM     13  C   UNL     1       3.397   3.411  27.018  0.00  0.00    +0.095 C 
ATOM     14  C   UNL     1       3.314   4.249  25.717  0.00  0.00    +0.105 C 
ATOM     15  C   UNL     1       4.550   5.166  25.669  0.00  0.00    +0.050 A 
ATOM     16  C   UNL     1       4.510   6.405  26.325  0.00  0.00    -0.027 A 
ATOM     17  C   UNL     1       5.703   7.097  26.586  0.00  0.00    +0.054 A 
ATOM     18  C   UNL     1       6.935   6.490  26.322  0.00  0.00    +0.165 A 
ATOM     19  C   UNL     1       6.945   5.254  25.695  0.00  0.00    +0.202 A 
ATOM     20  C   UNL     1       3.219   7.068  26.686  0.00  0.00    +0.087 C 
ATOM     21  C   UNL     1       1.999   6.166  26.716  0.00  0.00    +0.138 C 
ATOM     22  C   UNL     1       5.782   4.690  25.164  0.00  0.00    +0.182 A 
ATOM     23  O   UNL     1       5.662   3.755  24.162  0.00  0.00    -0.452 OA
ATOM     24  C   UNL     1       6.668   3.360  23.310  0.00  0.00    +0.129 A 
ATOM     25  C   UNL     1       7.912   3.949  23.129  0.00  0.00    +0.046 A 
ATOM     26  C   UNL     1       8.994   3.142  22.768  0.00  0.00    +0.007 A 
ATOM     27  C   UNL     1       8.767   1.812  22.406  0.00  0.00    -0.045 A 
ATOM     28  C   UNL     1       7.469   1.438  22.095  0.00  0.00    +0.007 A 
ATOM     29  C   UNL     1       6.410   2.164  22.636  0.00  0.00    +0.046 A 
ATOM     30  N   UNL     1       1.982   5.072  25.651  0.00  0.00    +0.245 N 
ATOM     31  C   UNL     1       1.867   5.595  24.213  0.00  0.00    +0.193 C 
ATOM     32  C   UNL     1       0.719   4.237  25.909  0.00  0.00    +0.193 C 
ATOM     33  C   UNL     1       4.514   1.363  26.196  0.00  0.00    +0.054 A 
ATOM     34  C   UNL     1       8.961  -1.430  25.771  0.00  0.00    -0.038 A 
ATOM     35  C   UNL     1       9.181  -2.807  25.212  0.00  0.00    +0.051 C 
ATOM     36  C   UNL     1       9.715  -2.837  23.769  0.00  0.00    +0.089 C 
ATOM     37  N   UNL     1       9.321  -1.715  22.890  0.00  0.00    -0.298 NA
ATOM     38  C   UNL     1       7.913  -1.811  22.501  0.00  0.00    +0.105 C 
ATOM     39  C   UNL     1       9.853   0.773  22.551  0.00  0.00    +0.058 C 
ENDROOT
BRANCH   5  40
ATOM     40  O   UNL     1       8.148   0.442  28.679  0.00  0.00    -0.491 OA
ATOM     41  C   UNL     1       7.167   1.385  29.121  0.00  0.00    +0.277 C 
ENDBRANCH   5  40
BRANCH   9  42
ATOM     42  O   UNL     1       3.868  -2.181  26.591  0.00  0.00    -0.503 OA
ATOM     43  H   UNL     1       3.002  -2.526  26.322  0.00  0.00    +0.292 HD
ENDBRANCH   9  42
BRANCH  18  44
ATOM     44  O   UNL     1       8.155   7.025  26.610  0.00  0.00    -0.491 OA
ATOM     45  C   UNL     1       8.530   7.108  27.981  0.00  0.00    +0.277 C 
ENDBRANCH  18  44
BRANCH  19  46
ATOM     46  O   UNL     1       8.134   4.571  25.705  0.00  0.00    -0.501 OA
ATOM     47  H   UNL     1       8.566   4.745  24.844  0.00  0.00    +0.292 HD
ENDBRANCH  19  46
TORSDOF 4
ENDMDL
MODEL 6
REMARK VINA RESULT:      -6.1      1.554      8.024
REMARK  Name = 
REMARK  9 active torsions:
REMARK  status: ('A' for Active; 'I' for Inactive)
REMARK    1  A    between atoms: N_14  and  C_15
REMARK    2  A    between atoms: N_14  and  C_16
REMARK    3  A    between atoms: C_25  and  O_26
REMARK    4  A    between atoms: O_26  and  C_27
REMARK    5  A    between atoms: N_32  and  C_33
REMARK    6  A    between atoms: C_36  and  O_37
REMARK    7  A    between atoms: C_41  and  O_42
REMARK    8  A    between atoms: O_42  and  C_43
REMARK    9  A    between atoms: C_44  and  O_45
REMARK                            x       y       z     vdW  Elec       q    Type
REMARK                         _______ _______ _______ _____ _____    ______ ____
ROOT
ATOM      1  C   UNL     1       2.477  -1.530  29.224  0.00  0.00    +0.091 C 
ATOM      2  C   UNL     1       2.825  -2.227  27.904  0.00  0.00    -0.023 A 
ATOM      3  C   UNL     1       3.662  -1.766  26.895  0.00  0.00    +0.055 A 
ATOM      4  C   UNL     1       4.071  -2.650  25.891  0.00  0.00    +0.170 A 
ATOM      5  C   UNL     1       3.011  -3.415  25.425  0.00  0.00    +0.162 A 
ATOM      6  C   UNL     1       2.227  -4.026  26.390  0.00  0.00    +0.053 A 
ATOM      7  O   UNL     1       5.118  -3.574  26.487  0.00  0.00    -0.449 OA
ATOM      8  C   UNL     1       6.292  -3.690  25.757  0.00  0.00    +0.170 A 
ATOM      9  C   UNL     1       7.009  -4.880  25.626  0.00  0.00    +0.159 A 
ATOM     10  C   UNL     1       8.054  -4.996  24.694  0.00  0.00    +0.049 A 
ATOM     11  C   UNL     1       8.402  -3.889  23.917  0.00  0.00    +0.007 A 
ATOM     12  C   UNL     1       7.784  -2.664  24.162  0.00  0.00    -0.038 A 
ATOM     13  C   UNL     1       7.956  -1.468  23.258  0.00  0.00    +0.095 C 
ATOM     14  C   UNL     1       8.561  -0.222  23.952  0.00  0.00    +0.105 C 
ATOM     15  C   UNL     1       7.566   0.941  23.783  0.00  0.00    +0.050 A 
ATOM     16  C   UNL     1       7.614   1.719  22.616  0.00  0.00    -0.027 A 
ATOM     17  C   UNL     1       6.529   2.545  22.283  0.00  0.00    +0.054 A 
ATOM     18  C   UNL     1       5.349   2.486  23.031  0.00  0.00    +0.165 A 
ATOM     19  C   UNL     1       5.321   1.690  24.166  0.00  0.00    +0.202 A 
ATOM     20  C   UNL     1       8.829   1.768  21.747  0.00  0.00    +0.087 C 
ATOM     21  C   UNL     1       9.817   0.631  21.929  0.00  0.00    +0.138 C 
ATOM     22  C   UNL     1       6.480   1.097  24.675  0.00  0.00    +0.182 A 
ATOM     23  O   UNL     1       6.737   0.680  25.960  0.00  0.00    -0.452 OA
ATOM     24  C   UNL     1       5.979   0.987  27.068  0.00  0.00    +0.129 A 
ATOM     25  C   UNL     1       4.962   1.926  27.171  0.00  0.00    +0.046 A 
ATOM     26  C   UNL     1       3.919   1.693  28.072  0.00  0.00    +0.007 A 
ATOM     27  C   UNL     1       4.020   0.636  28.980  0.00  0.00    -0.045 A 
ATOM     28  C   UNL     1       5.270   0.074  29.184  0.00  0.00    +0.007 A 
ATOM     29  C   UNL     1       6.225   0.168  28.173  0.00  0.00    +0.046 A 
ATOM     30  N   UNL     1       9.970   0.134  23.364  0.00  0.00    +0.245 N 
ATOM     31  C   UNL     1      10.593   1.158  24.322  0.00  0.00    +0.193 C 
ATOM     32  C   UNL     1      10.941  -1.055  23.309  0.00  0.00    +0.193 C 
ATOM     33  C   UNL     1       6.811  -2.564  25.157  0.00  0.00    +0.054 A 
ATOM     34  C   UNL     1       2.295  -3.518  27.697  0.00  0.00    -0.038 A 
ATOM     35  C   UNL     1       2.027  -4.403  28.880  0.00  0.00    +0.051 C 
ATOM     36  C   UNL     1       1.950  -3.669  30.230  0.00  0.00    +0.089 C 
ATOM     37  N   UNL     1       2.770  -2.445  30.368  0.00  0.00    -0.298 NA
ATOM     38  C   UNL     1       4.193  -2.766  30.484  0.00  0.00    +0.105 C 
ATOM     39  C   UNL     1       2.783  -0.009  29.560  0.00  0.00    +0.058 C 
ENDROOT
BRANCH   5  40
ATOM     40  O   UNL     1       2.503  -3.365  24.154  0.00  0.00    -0.491 OA
ATOM     41  C   UNL     1       1.864  -4.567  23.712  0.00  0.00    +0.277 C 
ENDBRANCH   5  40
BRANCH   9  42
ATOM     42  O   UNL     1       6.713  -5.965  26.406  0.00  0.00    -0.503 OA
ATOM     43  H   UNL     1       7.265  -5.915  27.202  0.00  0.00    +0.292 HD
ENDBRANCH   9  42
BRANCH  18  44
ATOM     44  O   UNL     1       4.205   3.174  22.756  0.00  0.00    -0.491 OA
ATOM     45  C   UNL     1       4.246   4.592  22.873  0.00  0.00    +0.277 C 
ENDBRANCH  18  44
BRANCH  19  46
ATOM     46  O   UNL     1       4.088   1.437  24.708  0.00  0.00    -0.501 OA
ATOM     47  H   UNL     1       3.429   1.632  24.011  0.00  0.00    +0.292 HD
ENDBRANCH  19  46
TORSDOF 4
ENDMDL
MODEL 7
REMARK VINA RESULT:      -5.8      2.177      8.525
REMARK  Name = 
REMARK  9 active torsions:
REMARK  status: ('A' for Active; 'I' for Inactive)
REMARK    1  A    between atoms: N_14  and  C_15
REMARK    2  A    between atoms: N_14  and  C_16
REMARK    3  A    between atoms: C_25  and  O_26
REMARK    4  A    between atoms: O_26  and  C_27
REMARK    5  A    between atoms: N_32  and  C_33
REMARK    6  A    between atoms: C_36  and  O_37
REMARK    7  A    between atoms: C_41  and  O_42
REMARK    8  A    between atoms: O_42  and  C_43
REMARK    9  A    between atoms: C_44  and  O_45
REMARK                            x       y       z     vdW  Elec       q    Type
REMARK                         _______ _______ _______ _____ _____    ______ ____
ROOT
ATOM      1  C   UNL     1       1.263  -5.819  29.261  0.00  0.00    +0.091 C 
ATOM      2  C   UNL     1       1.415  -5.554  27.760  0.00  0.00    -0.023 A 
ATOM      3  C   UNL     1       2.160  -4.553  27.146  0.00  0.00    +0.055 A 
ATOM      4  C   UNL     1       2.397  -4.628  25.769  0.00  0.00    +0.170 A 
ATOM      5  C   UNL     1       1.247  -4.969  25.073  0.00  0.00    +0.162 A 
ATOM      6  C   UNL     1       0.542  -6.060  25.554  0.00  0.00    +0.053 A 
ATOM      7  O   UNL     1       3.447  -5.701  25.538  0.00  0.00    -0.449 OA
ATOM      8  C   UNL     1       4.521  -5.320  24.748  0.00  0.00    +0.170 A 
ATOM      9  C   UNL     1       5.145  -6.164  23.829  0.00  0.00    +0.159 A 
ATOM     10  C   UNL     1       6.069  -5.662  22.896  0.00  0.00    +0.049 A 
ATOM     11  C   UNL     1       6.393  -4.304  22.919  0.00  0.00    +0.007 A 
ATOM     12  C   UNL     1       5.883  -3.500  23.937  0.00  0.00    -0.038 A 
ATOM     13  C   UNL     1       6.024  -1.997  23.937  0.00  0.00    +0.095 C 
ATOM     14  C   UNL     1       6.778  -1.425  25.165  0.00  0.00    +0.105 C 
ATOM     15  C   UNL     1       5.843  -0.424  25.868  0.00  0.00    +0.050 A 
ATOM     16  C   UNL     1       5.806   0.906  25.424  0.00  0.00    -0.027 A 
ATOM     17  C   UNL     1       4.743   1.739  25.805  0.00  0.00    +0.054 A 
ATOM     18  C   UNL     1       3.654   1.210  26.504  0.00  0.00    +0.165 A 
ATOM     19  C   UNL     1       3.706  -0.116  26.908  0.00  0.00    +0.202 A 
ATOM     20  C   UNL     1       6.916   1.504  24.620  0.00  0.00    +0.087 C 
ATOM     21  C   UNL     1       7.847   0.515  23.942  0.00  0.00    +0.138 C 
ATOM     22  C   UNL     1       4.877  -0.871  26.798  0.00  0.00    +0.182 A 
ATOM     23  O   UNL     1       5.252  -1.982  27.517  0.00  0.00    -0.452 OA
ATOM     24  C   UNL     1       4.645  -2.435  28.666  0.00  0.00    +0.129 A 
ATOM     25  C   UNL     1       3.705  -1.778  29.449  0.00  0.00    +0.046 A 
ATOM     26  C   UNL     1       2.759  -2.537  30.144  0.00  0.00    +0.007 A 
ATOM     27  C   UNL     1       2.897  -3.926  30.197  0.00  0.00    -0.045 A 
ATOM     28  C   UNL     1       4.126  -4.468  29.854  0.00  0.00    +0.007 A 
ATOM     29  C   UNL     1       4.964  -3.753  29.000  0.00  0.00    +0.046 A 
ATOM     30  N   UNL     1       8.130  -0.754  24.742  0.00  0.00    +0.245 N 
ATOM     31  C   UNL     1       8.919  -0.518  26.037  0.00  0.00    +0.193 C 
ATOM     32  C   UNL     1       9.015  -1.638  23.851  0.00  0.00    +0.193 C 
ATOM     33  C   UNL     1       5.037  -4.052  24.900  0.00  0.00    +0.054 A 
ATOM     34  C   UNL     1       0.788  -6.458  26.877  0.00  0.00    -0.038 A 
ATOM     35  C   UNL     1       0.602  -7.888  27.296  0.00  0.00    +0.051 C 
ATOM     36  C   UNL     1       0.724  -8.137  28.810  0.00  0.00    +0.089 C 
ATOM     37  N   UNL     1       1.627  -7.237  29.561  0.00  0.00    -0.298 NA
ATOM     38  C   UNL     1       3.032  -7.531  29.276  0.00  0.00    +0.105 C 
ATOM     39  C   UNL     1       1.697  -4.817  30.413  0.00  0.00    +0.058 C 
ENDROOT
BRANCH   5  40
ATOM     40  O   UNL     1       0.602  -4.162  24.173  0.00  0.00    -0.491 OA
ATOM     41  C   UNL     1       0.443  -4.722  22.866  0.00  0.00    +0.277 C 
ENDBRANCH   5  40
BRANCH   9  42
ATOM     42  O   UNL     1       4.874  -7.505  23.814  0.00  0.00    -0.503 OA
ATOM     43  H   UNL     1       3.914  -7.612  23.905  0.00  0.00    +0.292 HD
ENDBRANCH   9  42
BRANCH  18  44
ATOM     44  O   UNL     1       2.530   1.897  26.853  0.00  0.00    -0.491 OA
ATOM     45  C   UNL     1       2.294   3.143  26.206  0.00  0.00    +0.277 C 
ENDBRANCH  18  44
BRANCH  19  46
ATOM     46  O   UNL     1       2.529  -0.674  27.335  0.00  0.00    -0.501 OA
ATOM     47  H   UNL     1       2.341  -0.293  28.217  0.00  0.00    +0.292 HD
ENDBRANCH  19  46
TORSDOF 4
ENDMDL
MODEL 8
REMARK VINA RESULT:      -5.5      3.505      8.191
REMARK  Name = 
REMARK  9 active torsions:
REMARK  status: ('A' for Active; 'I' for Inactive)
REMARK    1  A    between atoms: N_14  and  C_15
REMARK    2  A    between atoms: N_14  and  C_16
REMARK    3  A    between atoms: C_25  and  O_26
REMARK    4  A    between atoms: O_26  and  C_27
REMARK    5  A    between atoms: N_32  and  C_33
REMARK    6  A    between atoms: C_36  and  O_37
REMARK    7  A    between atoms: C_41  and  O_42
REMARK    8  A    between atoms: O_42  and  C_43
REMARK    9  A    between atoms: C_44  and  O_45
REMARK                            x       y       z     vdW  Elec       q    Type
REMARK                         _______ _______ _______ _____ _____    ______ ____
ROOT
ATOM      1  C   UNL     1       2.803   5.242  28.630  0.00  0.00    +0.091 C 
ATOM      2  C   UNL     1       2.525   4.123  27.621  0.00  0.00    -0.023 A 
ATOM      3  C   UNL     1       3.419   3.541  26.731  0.00  0.00    +0.055 A 
ATOM      4  C   UNL     1       3.059   2.357  26.078  0.00  0.00    +0.170 A 
ATOM      5  C   UNL     1       1.760   2.416  25.598  0.00  0.00    +0.162 A 
ATOM      6  C   UNL     1       0.795   2.848  26.494  0.00  0.00    +0.053 A 
ATOM      7  O   UNL     1       3.159   1.225  27.086  0.00  0.00    -0.449 OA
ATOM      8  C   UNL     1       3.889   0.122  26.670  0.00  0.00    +0.170 A 
ATOM      9  C   UNL     1       3.551  -1.195  26.984  0.00  0.00    +0.159 A 
ATOM     10  C   UNL     1       4.186  -2.276  26.349  0.00  0.00    +0.049 A 
ATOM     11  C   UNL     1       5.197  -2.024  25.420  0.00  0.00    +0.007 A 
ATOM     12  C   UNL     1       5.633  -0.714  25.227  0.00  0.00    -0.038 A 
ATOM     13  C   UNL     1       6.580  -0.325  24.118  0.00  0.00    +0.095 C 
ATOM     14  C   UNL     1       7.905   0.317  24.603  0.00  0.00    +0.105 C 
ATOM     15  C   UNL     1       8.021   1.708  23.953  0.00  0.00    +0.050 A 
ATOM     16  C   UNL     1       8.578   1.819  22.670  0.00  0.00    -0.027 A 
ATOM     17  C   UNL     1       8.389   2.994  21.927  0.00  0.00    +0.054 A 
ATOM     18  C   UNL     1       7.532   3.992  22.401  0.00  0.00    +0.165 A 
ATOM     19  C   UNL     1       6.974   3.844  23.662  0.00  0.00    +0.202 A 
ATOM     20  C   UNL     1       9.452   0.753  22.091  0.00  0.00    +0.087 C 
ATOM     21  C   UNL     1       9.349  -0.612  22.745  0.00  0.00    +0.138 C 
ATOM     22  C   UNL     1       7.384   2.830  24.532  0.00  0.00    +0.182 A 
ATOM     23  O   UNL     1       7.300   2.790  25.904  0.00  0.00    -0.452 OA
ATOM     24  C   UNL     1       7.008   3.859  26.720  0.00  0.00    +0.129 A 
ATOM     25  C   UNL     1       6.956   5.203  26.377  0.00  0.00    +0.046 A 
ATOM     26  C   UNL     1       6.075   6.041  27.066  0.00  0.00    +0.007 A 
ATOM     27  C   UNL     1       5.419   5.561  28.203  0.00  0.00    -0.045 A 
ATOM     28  C   UNL     1       5.909   4.408  28.794  0.00  0.00    +0.007 A 
ATOM     29  C   UNL     1       6.627   3.502  28.015  0.00  0.00    +0.046 A 
ATOM     30  N   UNL     1       9.138  -0.587  24.257  0.00  0.00    +0.245 N 
ATOM     31  C   UNL     1      10.325  -0.022  25.049  0.00  0.00    +0.193 C 
ATOM     32  C   UNL     1       8.982  -2.050  24.696  0.00  0.00    +0.193 C 
ATOM     33  C   UNL     1       5.039   0.328  25.941  0.00  0.00    +0.054 A 
ATOM     34  C   UNL     1       1.233   3.557  27.624  0.00  0.00    -0.038 A 
ATOM     35  C   UNL     1       0.444   3.528  28.901  0.00  0.00    +0.051 C 
ATOM     36  C   UNL     1       0.940   4.499  29.987  0.00  0.00    +0.089 C 
ATOM     37  N   UNL     1       2.388   4.802  29.996  0.00  0.00    -0.298 NA
ATOM     38  C   UNL     1       3.169   3.664  30.484  0.00  0.00    +0.105 C 
ATOM     39  C   UNL     1       4.102   6.153  28.646  0.00  0.00    +0.058 C 
ENDROOT
BRANCH   5  40
ATOM     40  O   UNL     1       1.406   2.387  24.275  0.00  0.00    -0.491 OA
ATOM     41  C   UNL     1       0.988   3.643  23.733  0.00  0.00    +0.277 C 
ENDBRANCH   5  40
BRANCH   9  42
ATOM     42  O   UNL     1       2.592  -1.466  27.922  0.00  0.00    -0.503 OA
ATOM     43  H   UNL     1       2.748  -0.882  28.680  0.00  0.00    +0.292 HD
ENDBRANCH   9  42
BRANCH  18  44
ATOM     44  O   UNL     1       7.203   5.134  21.733  0.00  0.00    -0.491 OA
ATOM     45  C   UNL     1       7.830   6.342  22.151  0.00  0.00    +0.277 C 
ENDBRANCH  18  44
BRANCH  19  46
ATOM     46  O   UNL     1       5.937   4.683  23.977  0.00  0.00    -0.501 OA
ATOM     47  H   UNL     1       5.244   4.130  24.393  0.00  0.00    +0.292 HD
ENDBRANCH  19  46
TORSDOF 4
ENDMDL
MODEL 9
REMARK VINA RESULT:      -5.5      1.975      8.014
REMARK  Name = 
REMARK  9 active torsions:
REMARK  status: ('A' for Active; 'I' for Inactive)
REMARK    1  A    between atoms: N_14  and  C_15
REMARK    2  A    between atoms: N_14  and  C_16
REMARK    3  A    between atoms: C_25  and  O_26
REMARK    4  A    between atoms: O_26  and  C_27
REMARK    5  A    between atoms: N_32  and  C_33
REMARK    6  A    between atoms: C_36  and  O_37
REMARK    7  A    between atoms: C_41  and  O_42
REMARK    8  A    between atoms: O_42  and  C_43
REMARK    9  A    between atoms: C_44  and  O_45
REMARK                            x       y       z     vdW  Elec       q    Type
REMARK                         _______ _______ _______ _____ _____    ______ ____
ROOT
ATOM      1  C   UNL     1       4.027  -3.260  26.888  0.00  0.00    +0.091 C 
ATOM      2  C   UNL     1       4.763  -3.059  25.559  0.00  0.00    -0.023 A 
ATOM      3  C   UNL     1       5.183  -1.861  24.994  0.00  0.00    +0.055 A 
ATOM      4  C   UNL     1       6.071  -1.891  23.913  0.00  0.00    +0.170 A 
ATOM      5  C   UNL     1       5.700  -2.844  22.977  0.00  0.00    +0.162 A 
ATOM      6  C   UNL     1       5.415  -4.107  23.470  0.00  0.00    +0.053 A 
ATOM      7  O   UNL     1       7.446  -2.243  24.454  0.00  0.00    -0.449 OA
ATOM      8  C   UNL     1       8.474  -1.400  24.059  0.00  0.00    +0.170 A 
ATOM      9  C   UNL     1       9.766  -1.837  23.767  0.00  0.00    +0.159 A 
ATOM     10  C   UNL     1      10.697  -0.983  23.151  0.00  0.00    +0.049 A 
ATOM     11  C   UNL     1      10.331   0.334  22.866  0.00  0.00    +0.007 A 
ATOM     12  C   UNL     1       9.093   0.806  23.300  0.00  0.00    -0.038 A 
ATOM     13  C   UNL     1       8.537   2.144  22.878  0.00  0.00    +0.095 C 
ATOM     14  C   UNL     1       8.248   3.115  24.051  0.00  0.00    +0.105 C 
ATOM     15  C   UNL     1       6.759   3.501  23.987  0.00  0.00    +0.050 A 
ATOM     16  C   UNL     1       6.363   4.568  23.166  0.00  0.00    -0.027 A 
ATOM     17  C   UNL     1       5.010   4.723  22.826  0.00  0.00    +0.054 A 
ATOM     18  C   UNL     1       4.082   3.740  23.184  0.00  0.00    +0.165 A 
ATOM     19  C   UNL     1       4.506   2.683  23.975  0.00  0.00    +0.202 A 
ATOM     20  C   UNL     1       7.329   5.612  22.704  0.00  0.00    +0.087 C 
ATOM     21  C   UNL     1       8.797   5.236  22.785  0.00  0.00    +0.138 C 
ATOM     22  C   UNL     1       5.773   2.670  24.566  0.00  0.00    +0.182 A 
ATOM     23  O   UNL     1       6.191   1.989  25.685  0.00  0.00    -0.452 OA
ATOM     24  C   UNL     1       5.369   1.361  26.594  0.00  0.00    +0.129 A 
ATOM     25  C   UNL     1       3.989   1.461  26.706  0.00  0.00    +0.046 A 
ATOM     26  C   UNL     1       3.271   0.363  27.187  0.00  0.00    +0.007 A 
ATOM     27  C   UNL     1       3.960  -0.726  27.726  0.00  0.00    -0.045 A 
ATOM     28  C   UNL     1       5.290  -0.543  28.070  0.00  0.00    +0.007 A 
ATOM     29  C   UNL     1       6.025   0.449  27.423  0.00  0.00    +0.046 A 
ATOM     30  N   UNL     1       9.176   4.378  23.989  0.00  0.00    +0.245 N 
ATOM     31  C   UNL     1       9.028   5.090  25.341  0.00  0.00    +0.193 C 
ATOM     32  C   UNL     1      10.667   4.049  23.834  0.00  0.00    +0.193 C 
ATOM     33  C   UNL     1       8.228  -0.046  23.987  0.00  0.00    +0.054 A 
ATOM     34  C   UNL     1       5.124  -4.217  24.839  0.00  0.00    -0.038 A 
ATOM     35  C   UNL     1       5.409  -5.490  25.584  0.00  0.00    +0.051 C 
ATOM     36  C   UNL     1       4.865  -5.528  27.024  0.00  0.00    +0.089 C 
ATOM     37  N   UNL     1       4.778  -4.235  27.736  0.00  0.00    -0.298 NA
ATOM     38  C   UNL     1       6.103  -3.745  28.119  0.00  0.00    +0.105 C 
ATOM     39  C   UNL     1       3.345  -2.105  27.737  0.00  0.00    +0.058 C 
ENDROOT
BRANCH   5  40
ATOM     40  O   UNL     1       5.302  -2.576  21.694  0.00  0.00    -0.491 OA
ATOM     41  C   UNL     1       5.688  -3.556  20.725  0.00  0.00    +0.277 C 
ENDBRANCH   5  40
BRANCH   9  42
ATOM     42  O   UNL     1      10.160  -3.111  24.075  0.00  0.00    -0.503 OA
ATOM     43  H   UNL     1      11.129  -3.137  24.034  0.00  0.00    +0.292 HD
ENDBRANCH   9  42
BRANCH  18  44
ATOM     44  O   UNL     1       2.764   3.737  22.840  0.00  0.00    -0.491 OA
ATOM     45  C   UNL     1       2.447   3.658  21.454  0.00  0.00    +0.277 C 
ENDBRANCH  18  44
BRANCH  19  46
ATOM     46  O   UNL     1       3.659   1.610  24.072  0.00  0.00    -0.501 OA
ATOM     47  H   UNL     1       2.814   1.881  23.658  0.00  0.00    +0.292 HD
ENDBRANCH  19  46
TORSDOF 4
ENDMDL
