MODEL 1
REMARK VINA RESULT:      -5.7      0.000      0.000
REMARK  Name = 
REMARK  11 active torsions:
REMARK  status: ('A' for Active; 'I' for Inactive)
REMARK    1  A    between atoms: O_1  and  C_2
REMARK    2  A    between atoms: C_2  and  C_4
REMARK    3  A    between atoms: C_2  and  C_10
REMARK    4  A    between atoms: C_4  and  O_5
REMARK    5  A    between atoms: O_5  and  P_6
REMARK    6  A    between atoms: P_6  and  O_7
REMARK    7  A    between atoms: P_6  and  O_8
REMARK    8  A    between atoms: C_13  and  O_15
REMARK    9  A    between atoms: C_16  and  O_18
REMARK   10  A    between atoms: C_19  and  O_21
REMARK   11  A    between atoms: C_22  and  O_24
REMARK                            x       y       z     vdW  Elec       q    Type
REMARK                         _______ _______ _______ _____ _____    ______ ____
ROOT
ATOM      1  C   UNL     1       9.333  -1.594  22.977  0.00  0.00    +0.183 C 
ATOM      2  C   UNL     1       9.115  -0.440  21.981  0.00  0.00    +0.177 C 
ATOM      3  C   UNL     1      10.026   0.735  22.335  0.00  0.00    +0.179 C 
ATOM      4  C   UNL     1       9.927   1.125  23.806  0.00  0.00    +0.201 C 
ATOM      5  C   UNL     1      10.114  -0.134  24.672  0.00  0.00    +0.279 C 
ATOM      6  O   UNL     1       9.178  -1.140  24.336  0.00  0.00    -0.340 OA
ENDROOT
BRANCH   2   7
ATOM      7  O   UNL     1       9.436  -0.872  20.660  0.00  0.00    -0.386 OA
ATOM      8  H   UNL     1      10.081  -1.597  20.779  0.00  0.00    +0.210 HD
ENDBRANCH   2   7
BRANCH   3   9
ATOM      9  O   UNL     1       9.697   1.855  21.492  0.00  0.00    -0.386 OA
ATOM     10  H   UNL     1      10.539   2.347  21.382  0.00  0.00    +0.210 HD
ENDBRANCH   3   9
BRANCH   4  11
ATOM     11  O   UNL     1      10.928   2.138  24.025  0.00  0.00    -0.384 OA
ATOM     12  H   UNL     1      10.613   2.962  23.615  0.00  0.00    +0.210 HD
ENDBRANCH   4  11
BRANCH   5  13
ATOM     13  O   UNL     1       9.923   0.206  26.044  0.00  0.00    -0.365 OA
ATOM     14  H   UNL     1       8.981   0.330  26.154  0.00  0.00    +0.213 HD
ENDBRANCH   5  13
BRANCH   1  15
ATOM     15  C   UNL     1       8.343  -2.757  22.738  0.00  0.00    +0.172 C 
BRANCH  15  16
ATOM     16  O   UNL     1       7.200  -2.281  22.011  0.00  0.00    -0.387 OA
ATOM     17  H   UNL     1       7.537  -1.720  21.289  0.00  0.00    +0.210 HD
ENDBRANCH  15  16
BRANCH  15  18
ATOM     18  C   UNL     1       7.885  -3.346  24.076  0.00  0.00    +0.206 C 
BRANCH  18  19
ATOM     19  O   UNL     1       8.483  -4.626  24.311  0.00  0.00    -0.284 OA
BRANCH  19  20
ATOM     20  P   UNL     1       8.199  -5.134  25.941  0.00  0.00    +0.472 P 
ATOM     21  O   UNL     1       7.945  -5.589  27.398  0.00  0.00    -0.228 OA
BRANCH  20  22
ATOM     22  O   UNL     1       8.746  -3.636  26.321  0.00  0.00    -0.303 OA
ATOM     23  H   UNL     1       8.281  -2.956  25.794  0.00  0.00    +0.222 HD
ENDBRANCH  20  22
BRANCH  20  24
ATOM     24  O   UNL     1       9.688  -5.785  25.786  0.00  0.00    -0.303 OA
ATOM     25  H   UNL     1      10.072  -5.409  24.986  0.00  0.00    +0.222 HD
ENDBRANCH  20  24
ENDBRANCH  19  20
ENDBRANCH  18  19
ENDBRANCH  15  18
ENDBRANCH   1  15
TORSDOF 11
ENDMDL
MODEL 2
REMARK VINA RESULT:      -5.6      1.862      2.750
REMARK  Name = 
REMARK  11 active torsions:
REMARK  status: ('A' for Active; 'I' for Inactive)
REMARK    1  A    between atoms: O_1  and  C_2
REMARK    2  A    between atoms: C_2  and  C_4
REMARK    3  A    between atoms: C_2  and  C_10
REMARK    4  A    between atoms: C_4  and  O_5
REMARK    5  A    between atoms: O_5  and  P_6
REMARK    6  A    between atoms: P_6  and  O_7
REMARK    7  A    between atoms: P_6  and  O_8
REMARK    8  A    between atoms: C_13  and  O_15
REMARK    9  A    between atoms: C_16  and  O_18
REMARK   10  A    between atoms: C_19  and  O_21
REMARK   11  A    between atoms: C_22  and  O_24
REMARK                            x       y       z     vdW  Elec       q    Type
REMARK                         _______ _______ _______ _____ _____    ______ ____
ROOT
ATOM      1  C   UNL     1       8.461  -0.640  22.083  0.00  0.00    +0.183 C 
ATOM      2  C   UNL     1       7.447  -0.125  23.121  0.00  0.00    +0.177 C 
ATOM      3  C   UNL     1       7.130   1.346  22.858  0.00  0.00    +0.179 C 
ATOM      4  C   UNL     1       8.389   2.194  22.710  0.00  0.00    +0.201 C 
ATOM      5  C   UNL     1       9.322   1.531  21.682  0.00  0.00    +0.279 C 
ATOM      6  O   UNL     1       9.632   0.198  22.044  0.00  0.00    -0.340 OA
ENDROOT
BRANCH   2   7
ATOM      7  O   UNL     1       6.233  -0.868  23.024  0.00  0.00    -0.386 OA
ATOM      8  H   UNL     1       6.362  -1.642  23.608  0.00  0.00    +0.210 HD
ENDBRANCH   2   7
BRANCH   3   9
ATOM      9  O   UNL     1       6.306   1.849  23.927  0.00  0.00    -0.386 OA
ATOM     10  H   UNL     1       6.910   1.936  24.695  0.00  0.00    +0.210 HD
ENDBRANCH   3   9
BRANCH   4  11
ATOM     11  O   UNL     1       7.947   3.513  22.331  0.00  0.00    -0.384 OA
ATOM     12  H   UNL     1       8.731   4.024  22.066  0.00  0.00    +0.210 HD
ENDBRANCH   4  11
BRANCH   5  13
ATOM     13  O   UNL     1      10.544   2.264  21.612  0.00  0.00    -0.365 OA
ATOM     14  H   UNL     1      10.319   3.169  21.826  0.00  0.00    +0.213 HD
ENDBRANCH   5  13
BRANCH   1  15
ATOM     15  C   UNL     1       8.910  -2.088  22.384  0.00  0.00    +0.172 C 
BRANCH  15  16
ATOM     16  O   UNL     1       7.836  -2.998  22.104  0.00  0.00    -0.387 OA
ATOM     17  H   UNL     1       7.281  -3.037  22.904  0.00  0.00    +0.210 HD
ENDBRANCH  15  16
BRANCH  15  18
ATOM     18  C   UNL     1       9.317  -2.221  23.855  0.00  0.00    +0.206 C 
BRANCH  18  19
ATOM     19  O   UNL     1      10.012  -3.451  24.091  0.00  0.00    -0.284 OA
BRANCH  19  20
ATOM     20  P   UNL     1       9.144  -4.427  25.225  0.00  0.00    +0.472 P 
ATOM     21  O   UNL     1       8.367  -5.300  26.240  0.00  0.00    -0.228 OA
BRANCH  20  22
ATOM     22  O   UNL     1      10.523  -5.313  25.257  0.00  0.00    -0.303 OA
ATOM     23  H   UNL     1      10.770  -5.598  24.355  0.00  0.00    +0.222 HD
ENDBRANCH  20  22
BRANCH  20  24
ATOM     24  O   UNL     1       8.564  -5.131  23.872  0.00  0.00    -0.303 OA
ATOM     25  H   UNL     1       8.413  -6.059  24.085  0.00  0.00    +0.222 HD
ENDBRANCH  20  24
ENDBRANCH  19  20
ENDBRANCH  18  19
ENDBRANCH  15  18
ENDBRANCH   1  15
TORSDOF 11
ENDMDL
MODEL 3
REMARK VINA RESULT:      -5.6      2.557      6.246
REMARK  Name = 
REMARK  11 active torsions:
REMARK  status: ('A' for Active; 'I' for Inactive)
REMARK    1  A    between atoms: O_1  and  C_2
REMARK    2  A    between atoms: C_2  and  C_4
REMARK    3  A    between atoms: C_2  and  C_10
REMARK    4  A    between atoms: C_4  and  O_5
REMARK    5  A    between atoms: O_5  and  P_6
REMARK    6  A    between atoms: P_6  and  O_7
REMARK    7  A    between atoms: P_6  and  O_8
REMARK    8  A    between atoms: C_13  and  O_15
REMARK    9  A    between atoms: C_16  and  O_18
REMARK   10  A    between atoms: C_19  and  O_21
REMARK   11  A    between atoms: C_22  and  O_24
REMARK                            x       y       z     vdW  Elec       q    Type
REMARK                         _______ _______ _______ _____ _____    ______ ____
ROOT
ATOM      1  C   UNL     1       8.984  -2.617  24.415  0.00  0.00    +0.183 C 
ATOM      2  C   UNL     1       7.501  -3.028  24.361  0.00  0.00    +0.177 C 
ATOM      3  C   UNL     1       7.190  -4.011  25.488  0.00  0.00    +0.179 C 
ATOM      4  C   UNL     1       8.179  -5.171  25.538  0.00  0.00    +0.201 C 
ATOM      5  C   UNL     1       9.611  -4.607  25.538  0.00  0.00    +0.279 C 
ATOM      6  O   UNL     1       9.842  -3.775  24.417  0.00  0.00    -0.340 OA
ENDROOT
BRANCH   2   7
ATOM      7  O   UNL     1       6.672  -1.879  24.528  0.00  0.00    -0.386 OA
ATOM      8  H   UNL     1       5.841  -2.096  24.062  0.00  0.00    +0.210 HD
ENDBRANCH   2   7
BRANCH   3   9
ATOM      9  O   UNL     1       5.845  -4.502  25.326  0.00  0.00    -0.386 OA
ATOM     10  H   UNL     1       5.786  -4.778  24.387  0.00  0.00    +0.210 HD
ENDBRANCH   3   9
BRANCH   4  11
ATOM     11  O   UNL     1       7.853  -5.932  26.718  0.00  0.00    -0.384 OA
ATOM     12  H   UNL     1       7.854  -6.873  26.475  0.00  0.00    +0.210 HD
ENDBRANCH   4  11
BRANCH   5  13
ATOM     13  O   UNL     1      10.542  -5.687  25.484  0.00  0.00    -0.365 OA
ATOM     14  H   UNL     1      10.144  -6.402  25.979  0.00  0.00    +0.213 HD
ENDBRANCH   5  13
BRANCH   1  15
ATOM     15  C   UNL     1       9.379  -1.722  23.219  0.00  0.00    +0.172 C 
BRANCH  15  16
ATOM     16  O   UNL     1      10.509  -2.287  22.540  0.00  0.00    -0.387 OA
ATOM     17  H   UNL     1      10.760  -1.661  21.837  0.00  0.00    +0.210 HD
ENDBRANCH  15  16
BRANCH  15  18
ATOM     18  C   UNL     1       9.733  -0.313  23.706  0.00  0.00    +0.206 C 
BRANCH  18  19
ATOM     19  O   UNL     1      10.229   0.496  22.634  0.00  0.00    -0.284 OA
BRANCH  19  20
ATOM     20  P   UNL     1       9.105   1.757  22.258  0.00  0.00    +0.472 P 
ATOM     21  O   UNL     1       8.099   2.884  21.922  0.00  0.00    -0.228 OA
BRANCH  20  22
ATOM     22  O   UNL     1       8.891   0.916  20.867  0.00  0.00    -0.303 OA
ATOM     23  H   UNL     1       9.172  -0.014  20.980  0.00  0.00    +0.222 HD
ENDBRANCH  20  22
BRANCH  20  24
ATOM     24  O   UNL     1      10.447   2.529  21.743  0.00  0.00    -0.303 OA
ATOM     25  H   UNL     1      10.387   2.578  20.782  0.00  0.00    +0.222 HD
ENDBRANCH  20  24
ENDBRANCH  19  20
ENDBRANCH  18  19
ENDBRANCH  15  18
ENDBRANCH   1  15
TORSDOF 11
ENDMDL
MODEL 4
REMARK VINA RESULT:      -5.5      3.518      6.943
REMARK  Name = 
REMARK  11 active torsions:
REMARK  status: ('A' for Active; 'I' for Inactive)
REMARK    1  A    between atoms: O_1  and  C_2
REMARK    2  A    between atoms: C_2  and  C_4
REMARK    3  A    between atoms: C_2  and  C_10
REMARK    4  A    between atoms: C_4  and  O_5
REMARK    5  A    between atoms: O_5  and  P_6
REMARK    6  A    between atoms: P_6  and  O_7
REMARK    7  A    between atoms: P_6  and  O_8
REMARK    8  A    between atoms: C_13  and  O_15
REMARK    9  A    between atoms: C_16  and  O_18
REMARK   10  A    between atoms: C_19  and  O_21
REMARK   11  A    between atoms: C_22  and  O_24
REMARK                            x       y       z     vdW  Elec       q    Type
REMARK                         _______ _______ _______ _____ _____    ______ ____
ROOT
ATOM      1  C   UNL     1       9.047   1.471  23.492  0.00  0.00    +0.183 C 
ATOM      2  C   UNL     1       9.748   0.701  22.356  0.00  0.00    +0.177 C 
ATOM      3  C   UNL     1       9.382  -0.781  22.426  0.00  0.00    +0.179 C 
ATOM      4  C   UNL     1       9.582  -1.365  23.821  0.00  0.00    +0.201 C 
ATOM      5  C   UNL     1       8.870  -0.465  24.847  0.00  0.00    +0.279 C 
ATOM      6  O   UNL     1       9.328   0.872  24.772  0.00  0.00    -0.340 OA
ENDROOT
BRANCH   2   7
ATOM      7  O   UNL     1       9.324   1.208  21.092  0.00  0.00    -0.386 OA
ATOM      8  H   UNL     1       9.501   2.169  21.132  0.00  0.00    +0.210 HD
ENDBRANCH   2   7
BRANCH   3   9
ATOM      9  O   UNL     1      10.166  -1.505  21.459  0.00  0.00    -0.386 OA
ATOM     10  H   UNL     1       9.523  -2.075  20.985  0.00  0.00    +0.210 HD
ENDBRANCH   3   9
BRANCH   4  11
ATOM     11  O   UNL     1       9.072  -2.711  23.773  0.00  0.00    -0.384 OA
ATOM     12  H   UNL     1       8.279  -2.710  23.209  0.00  0.00    +0.210 HD
ENDBRANCH   4  11
BRANCH   5  13
ATOM     13  O   UNL     1       9.136  -0.949  26.162  0.00  0.00    -0.365 OA
ATOM     14  H   UNL     1      10.078  -0.842  26.295  0.00  0.00    +0.213 HD
ENDBRANCH   5  13
BRANCH   1  15
ATOM     15  C   UNL     1       9.486   2.951  23.541  0.00  0.00    +0.172 C 
BRANCH  15  16
ATOM     16  O   UNL     1       8.900   3.670  22.445  0.00  0.00    -0.387 OA
ATOM     17  H   UNL     1       8.354   3.033  21.949  0.00  0.00    +0.210 HD
ENDBRANCH  15  16
BRANCH  15  18
ATOM     18  C   UNL     1      11.013   3.054  23.456  0.00  0.00    +0.206 C 
BRANCH  18  19
ATOM     19  O   UNL     1      11.486   4.261  24.065  0.00  0.00    -0.284 OA
BRANCH  19  20
ATOM     20  P   UNL     1      12.642   5.041  23.039  0.00  0.00    +0.472 P 
ATOM     21  O   UNL     1      13.675   5.738  22.122  0.00  0.00    -0.228 OA
BRANCH  20  22
ATOM     22  O   UNL     1      12.924   5.974  24.357  0.00  0.00    -0.303 OA
ATOM     23  H   UNL     1      12.083   6.303  24.733  0.00  0.00    +0.222 HD
ENDBRANCH  20  22
BRANCH  20  24
ATOM     24  O   UNL     1      11.337   5.891  22.551  0.00  0.00    -0.303 OA
ATOM     25  H   UNL     1      11.343   6.718  23.046  0.00  0.00    +0.222 HD
ENDBRANCH  20  24
ENDBRANCH  19  20
ENDBRANCH  18  19
ENDBRANCH  15  18
ENDBRANCH   1  15
TORSDOF 11
ENDMDL
MODEL 5
REMARK VINA RESULT:      -5.5      1.827      2.748
REMARK  Name = 
REMARK  11 active torsions:
REMARK  status: ('A' for Active; 'I' for Inactive)
REMARK    1  A    between atoms: O_1  and  C_2
REMARK    2  A    between atoms: C_2  and  C_4
REMARK    3  A    between atoms: C_2  and  C_10
REMARK    4  A    between atoms: C_4  and  O_5
REMARK    5  A    between atoms: O_5  and  P_6
REMARK    6  A    between atoms: P_6  and  O_7
REMARK    7  A    between atoms: P_6  and  O_8
REMARK    8  A    between atoms: C_13  and  O_15
REMARK    9  A    between atoms: C_16  and  O_18
REMARK   10  A    between atoms: C_19  and  O_21
REMARK   11  A    between atoms: C_22  and  O_24
REMARK                            x       y       z     vdW  Elec       q    Type
REMARK                         _______ _______ _______ _____ _____    ______ ____
ROOT
ATOM      1  C   UNL     1       9.369  -0.164  23.585  0.00  0.00    +0.183 C 
ATOM      2  C   UNL     1      10.306   1.028  23.317  0.00  0.00    +0.177 C 
ATOM      3  C   UNL     1       9.555   2.341  23.534  0.00  0.00    +0.179 C 
ATOM      4  C   UNL     1       8.227   2.383  22.785  0.00  0.00    +0.201 C 
ATOM      5  C   UNL     1       7.428   1.110  23.113  0.00  0.00    +0.279 C 
ATOM      6  O   UNL     1       8.163  -0.060  22.804  0.00  0.00    -0.340 OA
ENDROOT
BRANCH   2   7
ATOM      7  O   UNL     1      11.411   0.990  24.219  0.00  0.00    -0.386 OA
ATOM      8  H   UNL     1      11.150   0.353  24.913  0.00  0.00    +0.210 HD
ENDBRANCH   2   7
BRANCH   3   9
ATOM      9  O   UNL     1      10.398   3.437  23.129  0.00  0.00    -0.386 OA
ATOM     10  H   UNL     1      10.481   3.348  22.156  0.00  0.00    +0.210 HD
ENDBRANCH   3   9
BRANCH   4  11
ATOM     11  O   UNL     1       7.573   3.602  23.188  0.00  0.00    -0.384 OA
ATOM     12  H   UNL     1       8.221   4.324  23.119  0.00  0.00    +0.210 HD
ENDBRANCH   4  11
BRANCH   5  13
ATOM     13  O   UNL     1       6.230   1.094  22.339  0.00  0.00    -0.365 OA
ATOM     14  H   UNL     1       6.366   0.435  21.659  0.00  0.00    +0.213 HD
ENDBRANCH   5  13
BRANCH   1  15
ATOM     15  C   UNL     1      10.045  -1.514  23.256  0.00  0.00    +0.172 C 
BRANCH  15  16
ATOM     16  O   UNL     1      10.223  -1.636  21.837  0.00  0.00    -0.387 OA
ATOM     17  H   UNL     1      11.004  -1.102  21.602  0.00  0.00    +0.210 HD
ENDBRANCH  15  16
BRANCH  15  18
ATOM     18  C   UNL     1       9.183  -2.676  23.760  0.00  0.00    +0.206 C 
BRANCH  18  19
ATOM     19  O   UNL     1       9.993  -3.721  24.311  0.00  0.00    -0.284 OA
BRANCH  19  20
ATOM     20  P   UNL     1       9.034  -4.769  25.300  0.00  0.00    +0.472 P 
ATOM     21  O   UNL     1       8.176  -5.706  26.184  0.00  0.00    -0.228 OA
BRANCH  20  22
ATOM     22  O   UNL     1      10.435  -5.603  25.474  0.00  0.00    -0.303 OA
ATOM     23  H   UNL     1      10.756  -5.547  26.396  0.00  0.00    +0.222 HD
ENDBRANCH  20  22
BRANCH  20  24
ATOM     24  O   UNL     1       8.653  -5.446  23.864  0.00  0.00    -0.303 OA
ATOM     25  H   UNL     1       8.508  -6.385  24.031  0.00  0.00    +0.222 HD
ENDBRANCH  20  24
ENDBRANCH  19  20
ENDBRANCH  18  19
ENDBRANCH  15  18
ENDBRANCH   1  15
TORSDOF 11
ENDMDL
MODEL 6
REMARK VINA RESULT:      -5.5      2.774      6.024
REMARK  Name = 
REMARK  11 active torsions:
REMARK  status: ('A' for Active; 'I' for Inactive)
REMARK    1  A    between atoms: O_1  and  C_2
REMARK    2  A    between atoms: C_2  and  C_4
REMARK    3  A    between atoms: C_2  and  C_10
REMARK    4  A    between atoms: C_4  and  O_5
REMARK    5  A    between atoms: O_5  and  P_6
REMARK    6  A    between atoms: P_6  and  O_7
REMARK    7  A    between atoms: P_6  and  O_8
REMARK    8  A    between atoms: C_13  and  O_15
REMARK    9  A    between atoms: C_16  and  O_18
REMARK   10  A    between atoms: C_19  and  O_21
REMARK   11  A    between atoms: C_22  and  O_24
REMARK                            x       y       z     vdW  Elec       q    Type
REMARK                         _______ _______ _______ _____ _____    ______ ____
ROOT
ATOM      1  C   UNL     1       6.830  -4.937  24.265  0.00  0.00    +0.183 C 
ATOM      2  C   UNL     1       8.137  -4.583  24.999  0.00  0.00    +0.177 C 
ATOM      3  C   UNL     1       8.209  -5.332  26.329  0.00  0.00    +0.179 C 
ATOM      4  C   UNL     1       6.939  -5.169  27.158  0.00  0.00    +0.201 C 
ATOM      5  C   UNL     1       5.721  -5.508  26.280  0.00  0.00    +0.279 C 
ATOM      6  O   UNL     1       5.685  -4.711  25.111  0.00  0.00    -0.340 OA
ENDROOT
BRANCH   2   7
ATOM      7  O   UNL     1       9.259  -4.970  24.207  0.00  0.00    -0.386 OA
ATOM      8  H   UNL     1      10.041  -4.749  24.751  0.00  0.00    +0.210 HD
ENDBRANCH   2   7
BRANCH   3   9
ATOM      9  O   UNL     1       9.356  -4.871  27.068  0.00  0.00    -0.386 OA
ATOM     10  H   UNL     1      10.109  -5.395  26.722  0.00  0.00    +0.210 HD
ENDBRANCH   3   9
BRANCH   4  11
ATOM     11  O   UNL     1       7.089  -6.030  28.304  0.00  0.00    -0.384 OA
ATOM     12  H   UNL     1       6.778  -6.917  28.053  0.00  0.00    +0.210 HD
ENDBRANCH   4  11
BRANCH   5  13
ATOM     13  O   UNL     1       4.525  -5.261  27.018  0.00  0.00    -0.365 OA
ATOM     14  H   UNL     1       4.086  -4.539  26.571  0.00  0.00    +0.213 HD
ENDBRANCH   5  13
BRANCH   1  15
ATOM     15  C   UNL     1       6.651  -4.107  22.974  0.00  0.00    +0.172 C 
BRANCH  15  16
ATOM     16  O   UNL     1       7.269  -4.785  21.870  0.00  0.00    -0.387 OA
ATOM     17  H   UNL     1       6.650  -4.728  21.120  0.00  0.00    +0.210 HD
ENDBRANCH  15  16
BRANCH  15  18
ATOM     18  C   UNL     1       7.290  -2.724  23.141  0.00  0.00    +0.206 C 
BRANCH  18  19
ATOM     19  O   UNL     1       8.401  -2.556  22.254  0.00  0.00    -0.284 OA
BRANCH  19  20
ATOM     20  P   UNL     1       9.462  -1.322  22.843  0.00  0.00    +0.472 P 
ATOM     21  O   UNL     1      10.411  -0.219  23.370  0.00  0.00    -0.228 OA
BRANCH  20  22
ATOM     22  O   UNL     1       9.858  -1.148  21.261  0.00  0.00    -0.303 OA
ATOM     23  H   UNL     1      10.575  -1.767  21.015  0.00  0.00    +0.222 HD
ENDBRANCH  20  22
BRANCH  20  24
ATOM     24  O   UNL     1      10.466  -2.584  23.094  0.00  0.00    -0.303 OA
ATOM     25  H   UNL     1      10.447  -3.118  22.292  0.00  0.00    +0.222 HD
ENDBRANCH  20  24
ENDBRANCH  19  20
ENDBRANCH  18  19
ENDBRANCH  15  18
ENDBRANCH   1  15
TORSDOF 11
ENDMDL
MODEL 7
REMARK VINA RESULT:      -5.5      1.724      2.481
REMARK  Name = 
REMARK  11 active torsions:
REMARK  status: ('A' for Active; 'I' for Inactive)
REMARK    1  A    between atoms: O_1  and  C_2
REMARK    2  A    between atoms: C_2  and  C_4
REMARK    3  A    between atoms: C_2  and  C_10
REMARK    4  A    between atoms: C_4  and  O_5
REMARK    5  A    between atoms: O_5  and  P_6
REMARK    6  A    between atoms: P_6  and  O_7
REMARK    7  A    between atoms: P_6  and  O_8
REMARK    8  A    between atoms: C_13  and  O_15
REMARK    9  A    between atoms: C_16  and  O_18
REMARK   10  A    between atoms: C_19  and  O_21
REMARK   11  A    between atoms: C_22  and  O_24
REMARK                            x       y       z     vdW  Elec       q    Type
REMARK                         _______ _______ _______ _____ _____    ______ ____
ROOT
ATOM      1  C   UNL     1       9.644  -0.640  23.876  0.00  0.00    +0.183 C 
ATOM      2  C   UNL     1       9.189  -0.407  22.423  0.00  0.00    +0.177 C 
ATOM      3  C   UNL     1       9.387   1.060  22.042  0.00  0.00    +0.179 C 
ATOM      4  C   UNL     1       8.784   2.014  23.068  0.00  0.00    +0.201 C 
ATOM      5  C   UNL     1       9.290   1.627  24.469  0.00  0.00    +0.279 C 
ATOM      6  O   UNL     1       8.992   0.278  24.776  0.00  0.00    -0.340 OA
ENDROOT
BRANCH   2   7
ATOM      7  O   UNL     1       9.966  -1.209  21.536  0.00  0.00    -0.386 OA
ATOM      8  H   UNL     1       9.404  -1.330  20.745  0.00  0.00    +0.210 HD
ENDBRANCH   2   7
BRANCH   3   9
ATOM      9  O   UNL     1       8.813   1.289  20.741  0.00  0.00    -0.386 OA
ATOM     10  H   UNL     1       8.590   0.397  20.400  0.00  0.00    +0.210 HD
ENDBRANCH   3   9
BRANCH   4  11
ATOM     11  O   UNL     1       9.163   3.342  22.658  0.00  0.00    -0.384 OA
ATOM     12  H   UNL     1      10.010   3.556  23.087  0.00  0.00    +0.210 HD
ENDBRANCH   4  11
BRANCH   5  13
ATOM     13  O   UNL     1       8.653   2.451  25.444  0.00  0.00    -0.365 OA
ATOM     14  H   UNL     1       8.712   3.345  25.110  0.00  0.00    +0.213 HD
ENDBRANCH   5  13
BRANCH   1  15
ATOM     15  C   UNL     1       9.345  -2.080  24.350  0.00  0.00    +0.172 C 
BRANCH  15  16
ATOM     16  O   UNL     1      10.292  -2.989  23.771  0.00  0.00    -0.387 OA
ATOM     17  H   UNL     1       9.806  -3.806  23.555  0.00  0.00    +0.210 HD
ENDBRANCH  15  16
BRANCH  15  18
ATOM     18  C   UNL     1       7.929  -2.491  23.934  0.00  0.00    +0.206 C 
BRANCH  18  19
ATOM     19  O   UNL     1       7.519  -3.688  24.605  0.00  0.00    -0.284 OA
BRANCH  19  20
ATOM     20  P   UNL     1       7.119  -4.917  23.454  0.00  0.00    +0.472 P 
ATOM     21  O   UNL     1       6.760  -6.016  22.425  0.00  0.00    -0.228 OA
BRANCH  20  22
ATOM     22  O   UNL     1       8.625  -5.474  23.782  0.00  0.00    -0.303 OA
ATOM     23  H   UNL     1       8.941  -5.127  24.641  0.00  0.00    +0.222 HD
ENDBRANCH  20  22
BRANCH  20  24
ATOM     24  O   UNL     1       7.621  -3.796  22.380  0.00  0.00    -0.303 OA
ATOM     25  H   UNL     1       6.963  -3.772  21.676  0.00  0.00    +0.222 HD
ENDBRANCH  20  24
ENDBRANCH  19  20
ENDBRANCH  18  19
ENDBRANCH  15  18
ENDBRANCH   1  15
TORSDOF 11
ENDMDL
MODEL 8
REMARK VINA RESULT:      -5.4      2.562      6.301
REMARK  Name = 
REMARK  11 active torsions:
REMARK  status: ('A' for Active; 'I' for Inactive)
REMARK    1  A    between atoms: O_1  and  C_2
REMARK    2  A    between atoms: C_2  and  C_4
REMARK    3  A    between atoms: C_2  and  C_10
REMARK    4  A    between atoms: C_4  and  O_5
REMARK    5  A    between atoms: O_5  and  P_6
REMARK    6  A    between atoms: P_6  and  O_7
REMARK    7  A    between atoms: P_6  and  O_8
REMARK    8  A    between atoms: C_13  and  O_15
REMARK    9  A    between atoms: C_16  and  O_18
REMARK   10  A    between atoms: C_19  and  O_21
REMARK   11  A    between atoms: C_22  and  O_24
REMARK                            x       y       z     vdW  Elec       q    Type
REMARK                         _______ _______ _______ _____ _____    ______ ____
ROOT
ATOM      1  C   UNL     1       8.313  -2.634  22.307  0.00  0.00    +0.183 C 
ATOM      2  C   UNL     1       8.724  -2.926  23.762  0.00  0.00    +0.177 C 
ATOM      3  C   UNL     1       8.090  -4.235  24.232  0.00  0.00    +0.179 C 
ATOM      4  C   UNL     1       6.589  -4.284  23.963  0.00  0.00    +0.201 C 
ATOM      5  C   UNL     1       6.333  -3.924  22.488  0.00  0.00    +0.279 C 
ATOM      6  O   UNL     1       6.880  -2.661  22.159  0.00  0.00    -0.340 OA
ENDROOT
BRANCH   2   7
ATOM      7  O   UNL     1      10.141  -3.059  23.850  0.00  0.00    -0.386 OA
ATOM      8  H   UNL     1      10.402  -2.502  24.610  0.00  0.00    +0.210 HD
ENDBRANCH   2   7
BRANCH   3   9
ATOM      9  O   UNL     1       8.356  -4.409  25.637  0.00  0.00    -0.386 OA
ATOM     10  H   UNL     1       7.472  -4.438  26.062  0.00  0.00    +0.210 HD
ENDBRANCH   3   9
BRANCH   4  11
ATOM     11  O   UNL     1       6.156  -5.610  24.323  0.00  0.00    -0.384 OA
ATOM     12  H   UNL     1       6.880  -6.226  24.115  0.00  0.00    +0.210 HD
ENDBRANCH   4  11
BRANCH   5  13
ATOM     13  O   UNL     1       4.928  -3.870  22.254  0.00  0.00    -0.365 OA
ATOM     14  H   UNL     1       4.515  -4.140  23.074  0.00  0.00    +0.213 HD
ENDBRANCH   5  13
BRANCH   1  15
ATOM     15  C   UNL     1       8.826  -1.258  21.828  0.00  0.00    +0.172 C 
BRANCH  15  16
ATOM     16  O   UNL     1      10.236  -1.326  21.571  0.00  0.00    -0.387 OA
ATOM     17  H   UNL     1      10.357  -1.916  20.805  0.00  0.00    +0.210 HD
ENDBRANCH  15  16
BRANCH  15  18
ATOM     18  C   UNL     1       8.555  -0.192  22.895  0.00  0.00    +0.206 C 
BRANCH  18  19
ATOM     19  O   UNL     1       8.318   1.089  22.300  0.00  0.00    -0.284 OA
BRANCH  19  20
ATOM     20  P   UNL     1       9.445   2.254  22.905  0.00  0.00    +0.472 P 
ATOM     21  O   UNL     1      10.453   3.296  23.446  0.00  0.00    -0.228 OA
BRANCH  20  22
ATOM     22  O   UNL     1       8.421   3.341  22.228  0.00  0.00    -0.303 OA
ATOM     23  H   UNL     1       7.491   3.087  22.391  0.00  0.00    +0.222 HD
ENDBRANCH  20  22
BRANCH  20  24
ATOM     24  O   UNL     1      10.229   1.923  21.512  0.00  0.00    -0.303 OA
ATOM     25  H   UNL     1       9.655   2.214  20.795  0.00  0.00    +0.222 HD
ENDBRANCH  20  24
ENDBRANCH  19  20
ENDBRANCH  18  19
ENDBRANCH  15  18
ENDBRANCH   1  15
TORSDOF 11
ENDMDL
MODEL 9
REMARK VINA RESULT:      -5.4      1.763      2.912
REMARK  Name = 
REMARK  11 active torsions:
REMARK  status: ('A' for Active; 'I' for Inactive)
REMARK    1  A    between atoms: O_1  and  C_2
REMARK    2  A    between atoms: C_2  and  C_4
REMARK    3  A    between atoms: C_2  and  C_10
REMARK    4  A    between atoms: C_4  and  O_5
REMARK    5  A    between atoms: O_5  and  P_6
REMARK    6  A    between atoms: P_6  and  O_7
REMARK    7  A    between atoms: P_6  and  O_8
REMARK    8  A    between atoms: C_13  and  O_15
REMARK    9  A    between atoms: C_16  and  O_18
REMARK   10  A    between atoms: C_19  and  O_21
REMARK   11  A    between atoms: C_22  and  O_24
REMARK                            x       y       z     vdW  Elec       q    Type
REMARK                         _______ _______ _______ _____ _____    ______ ____
ROOT
ATOM      1  C   UNL     1       7.150  -2.716  22.245  0.00  0.00    +0.183 C 
ATOM      2  C   UNL     1       6.747  -2.006  23.552  0.00  0.00    +0.177 C 
ATOM      3  C   UNL     1       7.340  -0.598  23.585  0.00  0.00    +0.179 C 
ATOM      4  C   UNL     1       8.835  -0.589  23.281  0.00  0.00    +0.201 C 
ATOM      5  C   UNL     1       9.085  -1.374  21.981  0.00  0.00    +0.279 C 
ATOM      6  O   UNL     1       8.579  -2.694  22.064  0.00  0.00    -0.340 OA
ENDROOT
BRANCH   2   7
ATOM      7  O   UNL     1       5.327  -1.895  23.626  0.00  0.00    -0.386 OA
ATOM      8  H   UNL     1       5.077  -1.323  22.873  0.00  0.00    +0.210 HD
ENDBRANCH   2   7
BRANCH   3   9
ATOM      9  O   UNL     1       7.085  -0.011  24.876  0.00  0.00    -0.386 OA
ATOM     10  H   UNL     1       7.177   0.955  24.739  0.00  0.00    +0.210 HD
ENDBRANCH   3   9
BRANCH   4  11
ATOM     11  O   UNL     1       9.225   0.796  23.209  0.00  0.00    -0.384 OA
ATOM     12  H   UNL     1       8.832   1.175  22.404  0.00  0.00    +0.210 HD
ENDBRANCH   4  11
BRANCH   5  13
ATOM     13  O   UNL     1      10.489  -1.455  21.743  0.00  0.00    -0.365 OA
ATOM     14  H   UNL     1      10.613  -2.201  21.157  0.00  0.00    +0.213 HD
ENDBRANCH   5  13
BRANCH   1  15
ATOM     15  C   UNL     1       6.680  -4.188  22.221  0.00  0.00    +0.172 C 
BRANCH  15  16
ATOM     16  O   UNL     1       5.284  -4.248  21.893  0.00  0.00    -0.387 OA
ATOM     17  H   UNL     1       5.132  -5.107  21.458  0.00  0.00    +0.210 HD
ENDBRANCH  15  16
BRANCH  15  18
ATOM     18  C   UNL     1       6.908  -4.839  23.589  0.00  0.00    +0.206 C 
BRANCH  18  19
ATOM     19  O   UNL     1       8.267  -5.266  23.739  0.00  0.00    -0.284 OA
BRANCH  19  20
ATOM     20  P   UNL     1       8.875  -4.809  25.294  0.00  0.00    +0.472 P 
ATOM     21  O   UNL     1       9.418  -4.400  26.684  0.00  0.00    -0.228 OA
BRANCH  20  22
ATOM     22  O   UNL     1       9.864  -3.829  24.428  0.00  0.00    -0.303 OA
ATOM     23  H   UNL     1       9.344  -3.257  23.829  0.00  0.00    +0.222 HD
ENDBRANCH  20  22
BRANCH  20  24
ATOM     24  O   UNL     1       9.802  -6.138  25.101  0.00  0.00    -0.303 OA
ATOM     25  H   UNL     1      10.529  -6.063  25.730  0.00  0.00    +0.222 HD
ENDBRANCH  20  24
ENDBRANCH  19  20
ENDBRANCH  18  19
ENDBRANCH  15  18
ENDBRANCH   1  15
TORSDOF 11
ENDMDL
