MODEL 1
REMARK VINA RESULT:      -7.3      0.000      0.000
REMARK  Name = 
REMARK  20 active torsions:
REMARK  status: ('A' for Active; 'I' for Inactive)
REMARK    1  A    between atoms: N_1  and  C_2
REMARK    2  A    between atoms: C_2  and  C_4
REMARK    3  A    between atoms: N_8  and  C_10
REMARK    4  A    between atoms: C_13  and  C_15
REMARK    5  A    between atoms: C_15  and  O_16
REMARK    6  A    between atoms: O_16  and  P_17
REMARK    7  A    between atoms: P_17  and  O_20
REMARK    8  A    between atoms: O_20  and  P_21
REMARK    9  A    between atoms: P_21  and  O_22
REMARK   10  A    between atoms: P_21  and  O_24
REMARK   11  A    between atoms: O_24  and  C_25
REMARK   12  A    between atoms: C_25  and  C_26
REMARK   13  A    between atoms: C_29  and  N_41
REMARK   14  A    between atoms: C_31  and  O_33
REMARK   15  A    between atoms: O_33  and  P_34
REMARK   16  A    between atoms: P_34  and  O_35
REMARK   17  A    between atoms: P_34  and  O_36
REMARK   18  A    between atoms: C_38  and  O_40
REMARK   19  A    between atoms: C_51  and  O_53
REMARK   20  A    between atoms: C_54  and  O_56
REMARK                            x       y       z     vdW  Elec       q    Type
REMARK                         _______ _______ _______ _____ _____    ______ ____
ROOT
ATOM      1  P   UNL     1       4.931  -6.357  26.843  0.00  0.00    +0.480 P 
ATOM      2  O   UNL     1       4.338  -7.011  25.629  0.00  0.00    -0.227 OA
ENDROOT
BRANCH   1   3
ATOM      3  O   UNL     1       4.441  -6.983  28.238  0.00  0.00    -0.302 OA
ATOM      4  H   UNL     1       5.130  -7.614  28.609  0.00  0.00    +0.222 HD
ENDBRANCH   1   3
BRANCH   1   5
ATOM      5  O   UNL     1       6.551  -6.391  26.950  0.00  0.00    -0.284 OA
BRANCH   5   6
ATOM      6  C   UNL     1       7.207  -5.211  27.405  0.00  0.00    +0.206 C 
BRANCH   6   7
ATOM      7  C   UNL     1       8.286  -4.693  26.435  0.00  0.00    +0.178 C 
ATOM      8  C   UNL     1       8.333  -5.480  25.129  0.00  0.00    +0.179 C 
ATOM      9  C   UNL     1       7.593  -4.619  24.113  0.00  0.00    +0.211 C 
ATOM     10  C   UNL     1       7.245  -3.341  24.875  0.00  0.00    +0.254 C 
ATOM     11  O   UNL     1       8.066  -3.315  26.055  0.00  0.00    -0.346 OA
BRANCH  10  12
ATOM     12  N   UNL     1       7.417  -2.118  24.107  0.00  0.00    -0.285 N 
ATOM     13  C   UNL     1       8.533  -1.671  23.447  0.00  0.00    +0.167 A 
ATOM     14  N   UNL     1       9.780  -2.175  23.477  0.00  0.00    -0.216 NA
ATOM     15  C   UNL     1      10.588  -1.523  22.609  0.00  0.00    +0.225 A 
ATOM     16  N   UNL     1      10.281  -0.508  21.771  0.00  0.00    -0.219 NA
ATOM     17  C   UNL     1       9.019  -0.025  21.790  0.00  0.00    +0.147 A 
ATOM     18  N   UNL     1       8.693   0.992  20.896  0.00  0.00    -0.341 N 
ATOM     19  H   UNL     1       7.697   1.049  20.717  0.00  0.00    +0.144 HD
ATOM     20  H   UNL     1       9.308   0.995  20.092  0.00  0.00    +0.144 HD
ATOM     21  C   UNL     1       8.087  -0.615  22.661  0.00  0.00    +0.147 A 
ATOM     22  N   UNL     1       6.743  -0.392  22.857  0.00  0.00    -0.231 NA
ATOM     23  C   UNL     1       6.382  -1.305  23.726  0.00  0.00    +0.203 A 
ENDBRANCH  10  12
BRANCH   8  24
ATOM     24  O   UNL     1       9.695  -5.630  24.693  0.00  0.00    -0.386 OA
ATOM     25  H   UNL     1       9.818  -6.546  24.379  0.00  0.00    +0.210 HD
ENDBRANCH   8  24
BRANCH   9  26
ATOM     26  O   UNL     1       6.406  -5.232  23.641  0.00  0.00    -0.276 OA
BRANCH  26  27
ATOM     27  P   UNL     1       6.124  -5.195  22.069  0.00  0.00    +0.473 P 
ATOM     28  O   UNL     1       5.696  -3.890  21.500  0.00  0.00    -0.228 OA
BRANCH  27  29
ATOM     29  O   UNL     1       7.490  -5.757  21.466  0.00  0.00    -0.303 OA
ATOM     30  H   UNL     1       7.677  -5.351  20.602  0.00  0.00    +0.222 HD
ENDBRANCH  27  29
BRANCH  27  31
ATOM     31  O   UNL     1       5.098  -6.392  21.832  0.00  0.00    -0.303 OA
ATOM     32  H   UNL     1       4.222  -6.072  21.548  0.00  0.00    +0.222 HD
ENDBRANCH  27  31
ENDBRANCH  26  27
ENDBRANCH   9  26
ENDBRANCH   6   7
ENDBRANCH   5   6
ENDBRANCH   1   5
BRANCH   1  33
ATOM     33  O   UNL     1       4.623  -4.800  26.972  0.00  0.00    -0.229 OA
BRANCH  33  34
ATOM     34  P   UNL     1       3.742  -4.246  28.188  0.00  0.00    +0.222 P 
ATOM     35  O   UNL     1       2.322  -4.684  27.896  0.00  0.00    -0.437 OA
ATOM     36  O   UNL     1       4.424  -4.470  29.502  0.00  0.00    -0.517 OA
BRANCH  34  37
ATOM     37  O   UNL     1       3.775  -2.659  27.875  0.00  0.00    -0.324 OA
BRANCH  37  38
ATOM     38  C   UNL     1       4.277  -2.328  26.594  0.00  0.00    +0.202 C 
BRANCH  38  42
ATOM     39  C   UNL     1       6.154   0.591  27.668  0.00  0.00    +0.439 C 
ATOM     40  C   UNL     1       4.774   0.964  28.195  0.00  0.00    +0.244 C 
ATOM     41  C   UNL     1       3.826   0.044  27.422  0.00  0.00    +0.183 C 
ATOM     42  C   UNL     1       4.766  -0.897  26.653  0.00  0.00    +0.182 C 
ATOM     43  O   UNL     1       6.054  -0.786  27.279  0.00  0.00    -0.309 OA
BRANCH  39  46
ATOM     44  C   UNL     1       8.409   1.988  24.953  0.00  0.00    +0.067 A 
ATOM     45  C   UNL     1       7.946   1.158  25.983  0.00  0.00    +0.322 A 
ATOM     46  N   UNL     1       6.707   1.351  26.509  0.00  0.00    -0.173 N 
ATOM     47  C   UNL     1       5.922   2.358  26.048  0.00  0.00    +0.311 A 
ATOM     48  C   UNL     1       6.310   3.150  24.980  0.00  0.00    +0.071 A 
ATOM     49  C   UNL     1       7.557   2.953  24.414  0.00  0.00    +0.022 A 
BRANCH  44  50
ATOM     50  C   UNL     1       9.814   1.931  24.485  0.00  0.00    +0.083 C 
ATOM     51  S   UNL     1      10.538   3.049  23.487  0.00  0.00    -0.035 S 
BRANCH  50  52
ATOM     52  N   UNL     1      10.537   0.842  24.908  0.00  0.00    -0.352 N 
ATOM     53  H   UNL     1      10.205   0.152  25.572  0.00  0.00    +0.143 HD
ATOM     54  H   UNL     1      11.397   0.606  24.420  0.00  0.00    +0.143 HD
ENDBRANCH  50  52
ENDBRANCH  44  50
ENDBRANCH  39  46
BRANCH  41  55
ATOM     55  O   UNL     1       3.070   0.819  26.497  0.00  0.00    -0.386 OA
ATOM     56  H   UNL     1       2.119   0.582  26.631  0.00  0.00    +0.210 HD
ENDBRANCH  41  55
BRANCH  40  57
ATOM     57  O   UNL     1       4.727   0.691  29.610  0.00  0.00    -0.380 OA
ATOM     58  H   UNL     1       3.923   0.179  29.824  0.00  0.00    +0.210 HD
ENDBRANCH  40  57
ENDBRANCH  38  42
ENDBRANCH  37  38
ENDBRANCH  34  37
ENDBRANCH  33  34
ENDBRANCH   1  33
TORSDOF 20
ENDMDL
MODEL 2
REMARK VINA RESULT:      -7.2      2.257      5.513
REMARK  Name = 
REMARK  20 active torsions:
REMARK  status: ('A' for Active; 'I' for Inactive)
REMARK    1  A    between atoms: N_1  and  C_2
REMARK    2  A    between atoms: C_2  and  C_4
REMARK    3  A    between atoms: N_8  and  C_10
REMARK    4  A    between atoms: C_13  and  C_15
REMARK    5  A    between atoms: C_15  and  O_16
REMARK    6  A    between atoms: O_16  and  P_17
REMARK    7  A    between atoms: P_17  and  O_20
REMARK    8  A    between atoms: O_20  and  P_21
REMARK    9  A    between atoms: P_21  and  O_22
REMARK   10  A    between atoms: P_21  and  O_24
REMARK   11  A    between atoms: O_24  and  C_25
REMARK   12  A    between atoms: C_25  and  C_26
REMARK   13  A    between atoms: C_29  and  N_41
REMARK   14  A    between atoms: C_31  and  O_33
REMARK   15  A    between atoms: O_33  and  P_34
REMARK   16  A    between atoms: P_34  and  O_35
REMARK   17  A    between atoms: P_34  and  O_36
REMARK   18  A    between atoms: C_38  and  O_40
REMARK   19  A    between atoms: C_51  and  O_53
REMARK   20  A    between atoms: C_54  and  O_56
REMARK                            x       y       z     vdW  Elec       q    Type
REMARK                         _______ _______ _______ _____ _____    ______ ____
ROOT
ATOM      1  P   UNL     1       4.444  -5.981  23.767  0.00  0.00    +0.480 P 
ATOM      2  O   UNL     1       4.933  -7.262  24.378  0.00  0.00    -0.227 OA
ENDROOT
BRANCH   1   3
ATOM      3  O   UNL     1       3.748  -6.156  22.330  0.00  0.00    -0.302 OA
ATOM      4  H   UNL     1       4.367  -6.621  21.688  0.00  0.00    +0.222 HD
ENDBRANCH   1   3
BRANCH   1   5
ATOM      5  O   UNL     1       3.345  -5.155  24.632  0.00  0.00    -0.284 OA
BRANCH   5   6
ATOM      6  C   UNL     1       3.416  -3.733  24.600  0.00  0.00    +0.206 C 
BRANCH   6   7
ATOM      7  C   UNL     1       3.628  -3.096  25.987  0.00  0.00    +0.178 C 
ATOM      8  C   UNL     1       4.704  -3.803  26.803  0.00  0.00    +0.179 C 
ATOM      9  C   UNL     1       5.948  -2.935  26.670  0.00  0.00    +0.211 C 
ATOM     10  C   UNL     1       5.486  -1.725  25.859  0.00  0.00    +0.254 C 
ATOM     11  O   UNL     1       4.048  -1.714  25.897  0.00  0.00    -0.346 OA
BRANCH  10  12
ATOM     12  N   UNL     1       6.017  -0.452  26.320  0.00  0.00    -0.285 N 
ATOM     13  C   UNL     1       5.717   0.811  25.878  0.00  0.00    +0.167 A 
ATOM     14  N   UNL     1       4.979   1.171  24.811  0.00  0.00    -0.216 NA
ATOM     15  C   UNL     1       4.821   2.513  24.763  0.00  0.00    +0.225 A 
ATOM     16  N   UNL     1       5.281   3.449  25.622  0.00  0.00    -0.219 NA
ATOM     17  C   UNL     1       6.031   3.040  26.669  0.00  0.00    +0.147 A 
ATOM     18  N   UNL     1       6.469   4.000  27.577  0.00  0.00    -0.341 N 
ATOM     19  H   UNL     1       6.699   3.605  28.482  0.00  0.00    +0.144 HD
ATOM     20  H   UNL     1       5.877   4.821  27.569  0.00  0.00    +0.144 HD
ATOM     21  C   UNL     1       6.276   1.664  26.822  0.00  0.00    +0.147 A 
ATOM     22  N   UNL     1       6.934   0.951  27.798  0.00  0.00    -0.231 NA
ATOM     23  C   UNL     1       6.759  -0.304  27.462  0.00  0.00    +0.203 A 
ENDBRANCH  10  12
BRANCH   8  24
ATOM     24  O   UNL     1       4.324  -3.844  28.189  0.00  0.00    -0.386 OA
ATOM     25  H   UNL     1       4.382  -4.769  28.497  0.00  0.00    +0.210 HD
ENDBRANCH   8  24
BRANCH   9  26
ATOM     26  O   UNL     1       7.003  -3.592  25.989  0.00  0.00    -0.276 OA
BRANCH  26  27
ATOM     27  P   UNL     1       7.744  -4.790  26.741  0.00  0.00    +0.473 P 
ATOM     28  O   UNL     1       7.094  -5.303  27.976  0.00  0.00    -0.228 OA
BRANCH  27  29
ATOM     29  O   UNL     1       7.896  -5.875  25.582  0.00  0.00    -0.303 OA
ATOM     30  H   UNL     1       7.217  -6.567  25.666  0.00  0.00    +0.222 HD
ENDBRANCH  27  29
BRANCH  27  31
ATOM     31  O   UNL     1       9.232  -4.257  26.945  0.00  0.00    -0.303 OA
ATOM     32  H   UNL     1       9.251  -3.370  27.347  0.00  0.00    +0.222 HD
ENDBRANCH  27  31
ENDBRANCH  26  27
ENDBRANCH   9  26
ENDBRANCH   6   7
ENDBRANCH   5   6
ENDBRANCH   1   5
BRANCH   1  33
ATOM     33  O   UNL     1       5.575  -4.885  23.534  0.00  0.00    -0.229 OA
BRANCH  33  34
ATOM     34  P   UNL     1       6.548  -4.981  22.267  0.00  0.00    +0.222 P 
ATOM     35  O   UNL     1       7.451  -6.167  22.533  0.00  0.00    -0.437 OA
ATOM     36  O   UNL     1       5.796  -4.784  20.987  0.00  0.00    -0.517 OA
BRANCH  34  37
ATOM     37  O   UNL     1       7.472  -3.674  22.507  0.00  0.00    -0.324 OA
BRANCH  37  38
ATOM     38  C   UNL     1       6.748  -2.468  22.654  0.00  0.00    +0.202 C 
BRANCH  38  42
ATOM     39  C   UNL     1       9.372  -0.009  22.148  0.00  0.00    +0.439 C 
ATOM     40  C   UNL     1      10.140  -1.038  22.967  0.00  0.00    +0.244 C 
ATOM     41  C   UNL     1       9.040  -1.885  23.613  0.00  0.00    +0.183 C 
ATOM     42  C   UNL     1       7.747  -1.373  22.961  0.00  0.00    +0.182 C 
ATOM     43  O   UNL     1       8.141  -0.649  21.785  0.00  0.00    -0.309 OA
BRANCH  39  46
ATOM     44  C   UNL     1       7.907   3.406  22.924  0.00  0.00    +0.067 A 
ATOM     45  C   UNL     1       8.085   2.156  22.314  0.00  0.00    +0.322 A 
ATOM     46  N   UNL     1       9.035   1.301  22.778  0.00  0.00    -0.173 N 
ATOM     47  C   UNL     1       9.823   1.661  23.823  0.00  0.00    +0.311 A 
ATOM     48  C   UNL     1       9.628   2.853  24.502  0.00  0.00    +0.071 A 
ATOM     49  C   UNL     1       8.649   3.726  24.061  0.00  0.00    +0.022 A 
BRANCH  44  50
ATOM     50  C   UNL     1       7.017   4.435  22.335  0.00  0.00    +0.083 C 
ATOM     51  S   UNL     1       7.375   6.056  22.216  0.00  0.00    -0.035 S 
BRANCH  50  52
ATOM     52  N   UNL     1       5.801   3.982  21.887  0.00  0.00    -0.352 N 
ATOM     53  H   UNL     1       5.021   4.580  21.636  0.00  0.00    +0.143 HD
ATOM     54  H   UNL     1       5.706   3.003  21.631  0.00  0.00    +0.143 HD
ENDBRANCH  50  52
ENDBRANCH  44  50
ENDBRANCH  39  46
BRANCH  41  55
ATOM     55  O   UNL     1       9.004  -1.618  25.011  0.00  0.00    -0.386 OA
ATOM     56  H   UNL     1       9.128  -0.643  25.122  0.00  0.00    +0.210 HD
ENDBRANCH  41  55
BRANCH  40  57
ATOM     57  O   UNL     1      10.952  -1.830  22.077  0.00  0.00    -0.380 OA
ATOM     58  H   UNL     1      11.140  -1.328  21.260  0.00  0.00    +0.210 HD
ENDBRANCH  40  57
ENDBRANCH  38  42
ENDBRANCH  37  38
ENDBRANCH  34  37
ENDBRANCH  33  34
ENDBRANCH   1  33
TORSDOF 20
ENDMDL
MODEL 3
REMARK VINA RESULT:      -7.0      1.435      2.217
REMARK  Name = 
REMARK  20 active torsions:
REMARK  status: ('A' for Active; 'I' for Inactive)
REMARK    1  A    between atoms: N_1  and  C_2
REMARK    2  A    between atoms: C_2  and  C_4
REMARK    3  A    between atoms: N_8  and  C_10
REMARK    4  A    between atoms: C_13  and  C_15
REMARK    5  A    between atoms: C_15  and  O_16
REMARK    6  A    between atoms: O_16  and  P_17
REMARK    7  A    between atoms: P_17  and  O_20
REMARK    8  A    between atoms: O_20  and  P_21
REMARK    9  A    between atoms: P_21  and  O_22
REMARK   10  A    between atoms: P_21  and  O_24
REMARK   11  A    between atoms: O_24  and  C_25
REMARK   12  A    between atoms: C_25  and  C_26
REMARK   13  A    between atoms: C_29  and  N_41
REMARK   14  A    between atoms: C_31  and  O_33
REMARK   15  A    between atoms: O_33  and  P_34
REMARK   16  A    between atoms: P_34  and  O_35
REMARK   17  A    between atoms: P_34  and  O_36
REMARK   18  A    between atoms: C_38  and  O_40
REMARK   19  A    between atoms: C_51  and  O_53
REMARK   20  A    between atoms: C_54  and  O_56
REMARK                            x       y       z     vdW  Elec       q    Type
REMARK                         _______ _______ _______ _____ _____    ______ ____
ROOT
ATOM      1  P   UNL     1       5.297  -5.711  26.648  0.00  0.00    +0.480 P 
ATOM      2  O   UNL     1       4.967  -6.804  25.672  0.00  0.00    -0.227 OA
ENDROOT
BRANCH   1   3
ATOM      3  O   UNL     1       4.436  -5.752  28.003  0.00  0.00    -0.302 OA
ATOM      4  H   UNL     1       5.012  -5.543  28.800  0.00  0.00    +0.222 HD
ENDBRANCH   1   3
BRANCH   1   5
ATOM      5  O   UNL     1       6.835  -5.662  27.166  0.00  0.00    -0.284 OA
BRANCH   5   6
ATOM      6  C   UNL     1       7.515  -4.412  27.092  0.00  0.00    +0.206 C 
BRANCH   6   7
ATOM      7  C   UNL     1       8.711  -4.419  26.119  0.00  0.00    +0.178 C 
ATOM      8  C   UNL     1       8.453  -5.257  24.872  0.00  0.00    +0.179 C 
ATOM      9  C   UNL     1       8.098  -4.256  23.780  0.00  0.00    +0.211 C 
ATOM     10  C   UNL     1       8.267  -2.890  24.443  0.00  0.00    +0.254 C 
ATOM     11  O   UNL     1       9.036  -3.093  25.642  0.00  0.00    -0.346 OA
BRANCH  10  12
ATOM     12  N   UNL     1       8.894  -1.884  23.600  0.00  0.00    -0.285 N 
ATOM     13  C   UNL     1       8.329  -0.772  23.028  0.00  0.00    +0.167 A 
ATOM     14  N   UNL     1       7.030  -0.426  22.980  0.00  0.00    -0.216 NA
ATOM     15  C   UNL     1       6.875   0.797  22.422  0.00  0.00    +0.225 A 
ATOM     16  N   UNL     1       7.825   1.641  21.963  0.00  0.00    -0.219 NA
ATOM     17  C   UNL     1       9.115   1.242  22.019  0.00  0.00    +0.147 A 
ATOM     18  N   UNL     1      10.096   2.129  21.584  0.00  0.00    -0.341 N 
ATOM     19  H   UNL     1      11.009   1.922  21.974  0.00  0.00    +0.144 HD
ATOM     20  H   UNL     1       9.780   3.089  21.634  0.00  0.00    +0.144 HD
ATOM     21  C   UNL     1       9.403  -0.019  22.569  0.00  0.00    +0.147 A 
ATOM     22  N   UNL     1      10.594  -0.664  22.814  0.00  0.00    -0.231 NA
ATOM     23  C   UNL     1      10.249  -1.770  23.427  0.00  0.00    +0.203 A 
ENDBRANCH  10  12
BRANCH   8  24
ATOM     24  O   UNL     1       9.653  -5.947  24.486  0.00  0.00    -0.386 OA
ATOM     25  H   UNL     1       9.671  -6.011  23.511  0.00  0.00    +0.210 HD
ENDBRANCH   8  24
BRANCH   9  26
ATOM     26  O   UNL     1       6.768  -4.401  23.316  0.00  0.00    -0.276 OA
BRANCH  26  27
ATOM     27  P   UNL     1       6.494  -5.467  22.159  0.00  0.00    +0.473 P 
ATOM     28  O   UNL     1       7.687  -6.005  21.454  0.00  0.00    -0.228 OA
BRANCH  27  29
ATOM     29  O   UNL     1       5.626  -6.572  22.914  0.00  0.00    -0.303 OA
ATOM     30  H   UNL     1       4.692  -6.519  22.645  0.00  0.00    +0.222 HD
ENDBRANCH  27  29
BRANCH  27  31
ATOM     31  O   UNL     1       5.432  -4.747  21.213  0.00  0.00    -0.303 OA
ATOM     32  H   UNL     1       4.515  -4.915  21.498  0.00  0.00    +0.222 HD
ENDBRANCH  27  31
ENDBRANCH  26  27
ENDBRANCH   9  26
ENDBRANCH   6   7
ENDBRANCH   5   6
ENDBRANCH   1   5
BRANCH   1  33
ATOM     33  O   UNL     1       5.088  -4.237  26.084  0.00  0.00    -0.229 OA
BRANCH  33  34
ATOM     34  P   UNL     1       3.686  -3.804  25.446  0.00  0.00    +0.222 P 
ATOM     35  O   UNL     1       3.723  -4.290  24.012  0.00  0.00    -0.437 OA
ATOM     36  O   UNL     1       2.552  -4.077  26.384  0.00  0.00    -0.517 OA
BRANCH  34  37
ATOM     37  O   UNL     1       3.886  -2.200  25.361  0.00  0.00    -0.324 OA
BRANCH  37  38
ATOM     38  C   UNL     1       5.172  -1.752  25.742  0.00  0.00    +0.202 C 
BRANCH  38  42
ATOM     39  C   UNL     1       5.954   1.482  27.198  0.00  0.00    +0.439 C 
ATOM     40  C   UNL     1       4.708   1.134  28.001  0.00  0.00    +0.244 C 
ATOM     41  C   UNL     1       4.041   0.028  27.179  0.00  0.00    +0.183 C 
ATOM     42  C   UNL     1       5.061  -0.279  26.073  0.00  0.00    +0.182 C 
ATOM     43  O   UNL     1       6.312   0.278  26.506  0.00  0.00    -0.309 OA
BRANCH  39  46
ATOM     44  C   UNL     1       6.732   4.013  24.478  0.00  0.00    +0.067 A 
ATOM     45  C   UNL     1       6.871   2.905  25.325  0.00  0.00    +0.322 A 
ATOM     46  N   UNL     1       5.873   2.579  26.189  0.00  0.00    -0.173 N 
ATOM     47  C   UNL     1       4.746   3.334  26.245  0.00  0.00    +0.311 A 
ATOM     48  C   UNL     1       4.537   4.390  25.372  0.00  0.00    +0.071 A 
ATOM     49  C   UNL     1       5.530   4.722  24.467  0.00  0.00    +0.022 A 
BRANCH  44  50
ATOM     50  C   UNL     1       7.865   4.510  23.661  0.00  0.00    +0.083 C 
ATOM     51  S   UNL     1       9.374   4.894  24.249  0.00  0.00    -0.035 S 
BRANCH  50  52
ATOM     52  N   UNL     1       7.604   4.677  22.323  0.00  0.00    -0.352 N 
ATOM     53  H   UNL     1       7.768   5.535  21.807  0.00  0.00    +0.143 HD
ATOM     54  H   UNL     1       7.383   3.860  21.761  0.00  0.00    +0.143 HD
ENDBRANCH  50  52
ENDBRANCH  44  50
ENDBRANCH  39  46
BRANCH  41  55
ATOM     55  O   UNL     1       2.845   0.534  26.594  0.00  0.00    -0.386 OA
ATOM     56  H   UNL     1       2.196  -0.212  26.574  0.00  0.00    +0.210 HD
ENDBRANCH  41  55
BRANCH  40  57
ATOM     57  O   UNL     1       5.110   0.649  29.298  0.00  0.00    -0.380 OA
ATOM     58  H   UNL     1       5.546   1.364  29.802  0.00  0.00    +0.210 HD
ENDBRANCH  40  57
ENDBRANCH  38  42
ENDBRANCH  37  38
ENDBRANCH  34  37
ENDBRANCH  33  34
ENDBRANCH   1  33
TORSDOF 20
ENDMDL
MODEL 4
REMARK VINA RESULT:      -6.9      3.149      6.117
REMARK  Name = 
REMARK  20 active torsions:
REMARK  status: ('A' for Active; 'I' for Inactive)
REMARK    1  A    between atoms: N_1  and  C_2
REMARK    2  A    between atoms: C_2  and  C_4
REMARK    3  A    between atoms: N_8  and  C_10
REMARK    4  A    between atoms: C_13  and  C_15
REMARK    5  A    between atoms: C_15  and  O_16
REMARK    6  A    between atoms: O_16  and  P_17
REMARK    7  A    between atoms: P_17  and  O_20
REMARK    8  A    between atoms: O_20  and  P_21
REMARK    9  A    between atoms: P_21  and  O_22
REMARK   10  A    between atoms: P_21  and  O_24
REMARK   11  A    between atoms: O_24  and  C_25
REMARK   12  A    between atoms: C_25  and  C_26
REMARK   13  A    between atoms: C_29  and  N_41
REMARK   14  A    between atoms: C_31  and  O_33
REMARK   15  A    between atoms: O_33  and  P_34
REMARK   16  A    between atoms: P_34  and  O_35
REMARK   17  A    between atoms: P_34  and  O_36
REMARK   18  A    between atoms: C_38  and  O_40
REMARK   19  A    between atoms: C_51  and  O_53
REMARK   20  A    between atoms: C_54  and  O_56
REMARK                            x       y       z     vdW  Elec       q    Type
REMARK                         _______ _______ _______ _____ _____    ______ ____
ROOT
ATOM      1  P   UNL     1       7.174  -3.355  22.951  0.00  0.00    +0.480 P 
ATOM      2  O   UNL     1       8.325  -2.945  22.079  0.00  0.00    -0.227 OA
ENDROOT
BRANCH   1   3
ATOM      3  O   UNL     1       5.805  -2.570  22.653  0.00  0.00    -0.302 OA
ATOM      4  H   UNL     1       5.698  -1.788  23.276  0.00  0.00    +0.222 HD
ENDBRANCH   1   3
BRANCH   1   5
ATOM      5  O   UNL     1       6.748  -4.921  22.876  0.00  0.00    -0.284 OA
BRANCH   5   6
ATOM      6  C   UNL     1       5.632  -5.261  22.059  0.00  0.00    +0.206 C 
BRANCH   6   7
ATOM      7  C   UNL     1       4.427  -5.797  22.856  0.00  0.00    +0.178 C 
ATOM      8  C   UNL     1       4.838  -6.709  24.007  0.00  0.00    +0.179 C 
ATOM      9  C   UNL     1       4.755  -5.843  25.257  0.00  0.00    +0.211 C 
ATOM     10  C   UNL     1       4.209  -4.505  24.762  0.00  0.00    +0.254 C 
ATOM     11  O   UNL     1       3.650  -4.734  23.456  0.00  0.00    -0.346 OA
BRANCH  10  12
ATOM     12  N   UNL     1       3.221  -3.896  25.638  0.00  0.00    -0.285 N 
ATOM     13  C   UNL     1       3.281  -2.688  26.287  0.00  0.00    +0.167 A 
ATOM     14  N   UNL     1       4.326  -1.847  26.394  0.00  0.00    -0.216 NA
ATOM     15  C   UNL     1       3.966  -0.705  27.022  0.00  0.00    +0.225 A 
ATOM     16  N   UNL     1       2.751  -0.349  27.496  0.00  0.00    -0.219 NA
ATOM     17  C   UNL     1       1.737  -1.234  27.379  0.00  0.00    +0.147 A 
ATOM     18  N   UNL     1       0.476  -0.851  27.831  0.00  0.00    -0.341 N 
ATOM     19  H   UNL     1      -0.271  -1.386  27.402  0.00  0.00    +0.144 HD
ATOM     20  H   UNL     1       0.374   0.156  27.844  0.00  0.00    +0.144 HD
ATOM     21  C   UNL     1       1.990  -2.466  26.753  0.00  0.00    +0.147 A 
ATOM     22  N   UNL     1       1.167  -3.523  26.436  0.00  0.00    -0.231 NA
ATOM     23  C   UNL     1       1.937  -4.353  25.775  0.00  0.00    +0.203 A 
ENDBRANCH  10  12
BRANCH   8  24
ATOM     24  O   UNL     1       3.898  -7.789  24.138  0.00  0.00    -0.386 OA
ATOM     25  H   UNL     1       3.344  -7.621  24.924  0.00  0.00    +0.210 HD
ENDBRANCH   8  24
BRANCH   9  26
ATOM     26  O   UNL     1       6.018  -5.646  25.869  0.00  0.00    -0.276 OA
BRANCH  26  27
ATOM     27  P   UNL     1       6.069  -5.563  27.463  0.00  0.00    +0.473 P 
ATOM     28  O   UNL     1       5.052  -6.356  28.204  0.00  0.00    -0.228 OA
BRANCH  27  29
ATOM     29  O   UNL     1       7.577  -5.977  27.776  0.00  0.00    -0.303 OA
ATOM     30  H   UNL     1       7.931  -5.454  28.516  0.00  0.00    +0.222 HD
ENDBRANCH  27  29
BRANCH  27  31
ATOM     31  O   UNL     1       6.045  -3.999  27.770  0.00  0.00    -0.303 OA
ATOM     32  H   UNL     1       5.469  -3.783  28.527  0.00  0.00    +0.222 HD
ENDBRANCH  27  31
ENDBRANCH  26  27
ENDBRANCH   9  26
ENDBRANCH   6   7
ENDBRANCH   5   6
ENDBRANCH   1   5
BRANCH   1  33
ATOM     33  O   UNL     1       7.421  -3.152  24.511  0.00  0.00    -0.229 OA
BRANCH  33  34
ATOM     34  P   UNL     1       8.884  -3.343  25.131  0.00  0.00    +0.222 P 
ATOM     35  O   UNL     1       8.707  -3.250  26.632  0.00  0.00    -0.437 OA
ATOM     36  O   UNL     1       9.624  -4.453  24.452  0.00  0.00    -0.517 OA
BRANCH  34  37
ATOM     37  O   UNL     1       9.572  -1.945  24.692  0.00  0.00    -0.324 OA
BRANCH  37  38
ATOM     38  C   UNL     1       9.099  -0.815  25.398  0.00  0.00    +0.202 C 
BRANCH  38  42
ATOM     39  C   UNL     1       7.775   0.771  22.411  0.00  0.00    +0.439 C 
ATOM     40  C   UNL     1       9.258   0.768  22.063  0.00  0.00    +0.244 C 
ATOM     41  C   UNL     1       9.949   0.544  23.412  0.00  0.00    +0.183 C 
ATOM     42  C   UNL     1       8.790   0.261  24.380  0.00  0.00    +0.182 C 
ATOM     43  O   UNL     1       7.652  -0.067  23.569  0.00  0.00    -0.309 OA
BRANCH  39  46
ATOM     44  C   UNL     1       6.956   4.460  22.776  0.00  0.00    +0.067 A 
ATOM     45  C   UNL     1       7.603   3.289  22.356  0.00  0.00    +0.322 A 
ATOM     46  N   UNL     1       7.115   2.073  22.720  0.00  0.00    -0.173 N 
ATOM     47  C   UNL     1       6.009   1.990  23.504  0.00  0.00    +0.311 A 
ATOM     48  C   UNL     1       5.297   3.119  23.875  0.00  0.00    +0.071 A 
ATOM     49  C   UNL     1       5.762   4.364  23.493  0.00  0.00    +0.022 A 
BRANCH  44  50
ATOM     50  C   UNL     1       7.558   5.797  22.560  0.00  0.00    +0.083 C 
ATOM     51  S   UNL     1       8.275   6.727  23.739  0.00  0.00    -0.035 S 
BRANCH  50  52
ATOM     52  N   UNL     1       7.476   6.285  21.279  0.00  0.00    -0.352 N 
ATOM     53  H   UNL     1       6.622   6.612  20.840  0.00  0.00    +0.143 HD
ATOM     54  H   UNL     1       8.336   6.490  20.776  0.00  0.00    +0.143 HD
ENDBRANCH  50  52
ENDBRANCH  44  50
ENDBRANCH  39  46
BRANCH  41  55
ATOM     55  O   UNL     1      10.612   1.742  23.803  0.00  0.00    -0.386 OA
ATOM     56  H   UNL     1      10.976   1.586  24.710  0.00  0.00    +0.210 HD
ENDBRANCH  41  55
BRANCH  40  57
ATOM     57  O   UNL     1       9.521  -0.322  21.157  0.00  0.00    -0.380 OA
ATOM     58  H   UNL     1       8.962  -0.236  20.360  0.00  0.00    +0.210 HD
ENDBRANCH  40  57
ENDBRANCH  38  42
ENDBRANCH  37  38
ENDBRANCH  34  37
ENDBRANCH  33  34
ENDBRANCH   1  33
TORSDOF 20
ENDMDL
MODEL 5
REMARK VINA RESULT:      -6.8      4.429      8.520
REMARK  Name = 
REMARK  20 active torsions:
REMARK  status: ('A' for Active; 'I' for Inactive)
REMARK    1  A    between atoms: N_1  and  C_2
REMARK    2  A    between atoms: C_2  and  C_4
REMARK    3  A    between atoms: N_8  and  C_10
REMARK    4  A    between atoms: C_13  and  C_15
REMARK    5  A    between atoms: C_15  and  O_16
REMARK    6  A    between atoms: O_16  and  P_17
REMARK    7  A    between atoms: P_17  and  O_20
REMARK    8  A    between atoms: O_20  and  P_21
REMARK    9  A    between atoms: P_21  and  O_22
REMARK   10  A    between atoms: P_21  and  O_24
REMARK   11  A    between atoms: O_24  and  C_25
REMARK   12  A    between atoms: C_25  and  C_26
REMARK   13  A    between atoms: C_29  and  N_41
REMARK   14  A    between atoms: C_31  and  O_33
REMARK   15  A    between atoms: O_33  and  P_34
REMARK   16  A    between atoms: P_34  and  O_35
REMARK   17  A    between atoms: P_34  and  O_36
REMARK   18  A    between atoms: C_38  and  O_40
REMARK   19  A    between atoms: C_51  and  O_53
REMARK   20  A    between atoms: C_54  and  O_56
REMARK                            x       y       z     vdW  Elec       q    Type
REMARK                         _______ _______ _______ _____ _____    ______ ____
ROOT
ATOM      1  P   UNL     1       8.658   2.105  22.379  0.00  0.00    +0.480 P 
ATOM      2  O   UNL     1       7.567   1.610  21.475  0.00  0.00    -0.227 OA
ENDROOT
BRANCH   1   3
ATOM      3  O   UNL     1      10.093   2.243  21.671  0.00  0.00    -0.302 OA
ATOM      4  H   UNL     1       9.994   2.548  20.718  0.00  0.00    +0.222 HD
ENDBRANCH   1   3
BRANCH   1   5
ATOM      5  O   UNL     1       8.416   3.563  23.053  0.00  0.00    -0.284 OA
BRANCH   5   6
ATOM      6  C   UNL     1       9.064   3.831  24.293  0.00  0.00    +0.206 C 
BRANCH   6   7
ATOM      7  C   UNL     1       8.125   4.422  25.363  0.00  0.00    +0.178 C 
ATOM      8  C   UNL     1       6.750   4.779  24.809  0.00  0.00    +0.179 C 
ATOM      9  C   UNL     1       5.836   3.636  25.230  0.00  0.00    +0.211 C 
ATOM     10  C   UNL     1       6.722   2.732  26.085  0.00  0.00    +0.254 C 
ATOM     11  O   UNL     1       7.883   3.499  26.450  0.00  0.00    -0.346 OA
BRANCH  10  12
ATOM     12  N   UNL     1       6.071   2.197  27.271  0.00  0.00    -0.285 N 
ATOM     13  C   UNL     1       5.194   1.147  27.366  0.00  0.00    +0.167 A 
ATOM     14  N   UNL     1       4.605   0.457  26.372  0.00  0.00    -0.216 NA
ATOM     15  C   UNL     1       3.886  -0.579  26.862  0.00  0.00    +0.225 A 
ATOM     16  N   UNL     1       3.730  -0.965  28.148  0.00  0.00    -0.219 NA
ATOM     17  C   UNL     1       4.329  -0.231  29.111  0.00  0.00    +0.147 A 
ATOM     18  N   UNL     1       4.203  -0.653  30.432  0.00  0.00    -0.341 N 
ATOM     19  H   UNL     1       4.938  -0.291  31.030  0.00  0.00    +0.144 HD
ATOM     20  H   UNL     1       4.008  -1.645  30.490  0.00  0.00    +0.144 HD
ATOM     21  C   UNL     1       5.098   0.881  28.727  0.00  0.00    +0.147 A 
ATOM     22  N   UNL     1       5.862   1.766  29.454  0.00  0.00    -0.231 NA
ATOM     23  C   UNL     1       6.424   2.533  28.551  0.00  0.00    +0.203 A 
ENDBRANCH  10  12
BRANCH   8  24
ATOM     24  O   UNL     1       6.273   5.992  25.418  0.00  0.00    -0.386 OA
ATOM     25  H   UNL     1       7.045   6.542  25.652  0.00  0.00    +0.210 HD
ENDBRANCH   8  24
BRANCH   9  26
ATOM     26  O   UNL     1       5.332   2.905  24.126  0.00  0.00    -0.276 OA
BRANCH  26  27
ATOM     27  P   UNL     1       4.504   3.704  23.018  0.00  0.00    +0.473 P 
ATOM     28  O   UNL     1       3.921   5.007  23.434  0.00  0.00    -0.228 OA
BRANCH  27  29
ATOM     29  O   UNL     1       5.554   3.809  21.822  0.00  0.00    -0.303 OA
ATOM     30  H   UNL     1       6.465   3.824  22.163  0.00  0.00    +0.222 HD
ENDBRANCH  27  29
BRANCH  27  31
ATOM     31  O   UNL     1       3.444   2.641  22.485  0.00  0.00    -0.303 OA
ATOM     32  H   UNL     1       2.531   2.880  22.729  0.00  0.00    +0.222 HD
ENDBRANCH  27  31
ENDBRANCH  26  27
ENDBRANCH   9  26
ENDBRANCH   6   7
ENDBRANCH   5   6
ENDBRANCH   1   5
BRANCH   1  33
ATOM     33  O   UNL     1       8.927   1.190  23.654  0.00  0.00    -0.229 OA
BRANCH  33  34
ATOM     34  P   UNL     1      10.266   0.320  23.760  0.00  0.00    +0.222 P 
ATOM     35  O   UNL     1      10.429  -0.346  22.410  0.00  0.00    -0.437 OA
ATOM     36  O   UNL     1      11.358   1.083  24.444  0.00  0.00    -0.517 OA
BRANCH  34  37
ATOM     37  O   UNL     1       9.775  -0.852  24.763  0.00  0.00    -0.324 OA
BRANCH  37  38
ATOM     38  C   UNL     1       9.737  -2.140  24.179  0.00  0.00    +0.202 C 
BRANCH  38  42
ATOM     39  C   UNL     1       6.422  -2.183  22.696  0.00  0.00    +0.439 C 
ATOM     40  C   UNL     1       6.118  -1.423  23.981  0.00  0.00    +0.244 C 
ATOM     41  C   UNL     1       7.317  -1.734  24.881  0.00  0.00    +0.183 C 
ATOM     42  C   UNL     1       8.283  -2.498  23.963  0.00  0.00    +0.182 C 
ATOM     43  O   UNL     1       7.853  -2.243  22.616  0.00  0.00    -0.309 OA
BRANCH  39  46
ATOM     44  C   UNL     1       4.574  -5.465  23.163  0.00  0.00    +0.067 A 
ATOM     45  C   UNL     1       4.931  -4.119  23.325  0.00  0.00    +0.322 A 
ATOM     46  N   UNL     1       5.900  -3.572  22.545  0.00  0.00    -0.173 N 
ATOM     47  C   UNL     1       6.536  -4.332  21.616  0.00  0.00    +0.311 A 
ATOM     48  C   UNL     1       6.161  -5.643  21.371  0.00  0.00    +0.071 A 
ATOM     49  C   UNL     1       5.159  -6.210  22.138  0.00  0.00    +0.022 A 
BRANCH  44  50
ATOM     50  C   UNL     1       3.663  -6.145  24.113  0.00  0.00    +0.083 C 
ATOM     51  S   UNL     1       3.349  -5.640  25.669  0.00  0.00    -0.035 S 
BRANCH  50  52
ATOM     52  N   UNL     1       3.067  -7.291  23.649  0.00  0.00    -0.352 N 
ATOM     53  H   UNL     1       2.824  -7.463  22.679  0.00  0.00    +0.143 HD
ATOM     54  H   UNL     1       3.002  -8.095  24.268  0.00  0.00    +0.143 HD
ENDBRANCH  50  52
ENDBRANCH  44  50
ENDBRANCH  39  46
BRANCH  41  55
ATOM     55  O   UNL     1       6.898  -2.586  25.942  0.00  0.00    -0.386 OA
ATOM     56  H   UNL     1       6.000  -2.924  25.703  0.00  0.00    +0.210 HD
ENDBRANCH  41  55
BRANCH  40  57
ATOM     57  O   UNL     1       6.043  -0.014  23.683  0.00  0.00    -0.380 OA
ATOM     58  H   UNL     1       5.518   0.127  22.871  0.00  0.00    +0.210 HD
ENDBRANCH  40  57
ENDBRANCH  38  42
ENDBRANCH  37  38
ENDBRANCH  34  37
ENDBRANCH  33  34
ENDBRANCH   1  33
TORSDOF 20
ENDMDL
MODEL 6
REMARK VINA RESULT:      -6.8      2.747      6.072
REMARK  Name = 
REMARK  20 active torsions:
REMARK  status: ('A' for Active; 'I' for Inactive)
REMARK    1  A    between atoms: N_1  and  C_2
REMARK    2  A    between atoms: C_2  and  C_4
REMARK    3  A    between atoms: N_8  and  C_10
REMARK    4  A    between atoms: C_13  and  C_15
REMARK    5  A    between atoms: C_15  and  O_16
REMARK    6  A    between atoms: O_16  and  P_17
REMARK    7  A    between atoms: P_17  and  O_20
REMARK    8  A    between atoms: O_20  and  P_21
REMARK    9  A    between atoms: P_21  and  O_22
REMARK   10  A    between atoms: P_21  and  O_24
REMARK   11  A    between atoms: O_24  and  C_25
REMARK   12  A    between atoms: C_25  and  C_26
REMARK   13  A    between atoms: C_29  and  N_41
REMARK   14  A    between atoms: C_31  and  O_33
REMARK   15  A    between atoms: O_33  and  P_34
REMARK   16  A    between atoms: P_34  and  O_35
REMARK   17  A    between atoms: P_34  and  O_36
REMARK   18  A    between atoms: C_38  and  O_40
REMARK   19  A    between atoms: C_51  and  O_53
REMARK   20  A    between atoms: C_54  and  O_56
REMARK                            x       y       z     vdW  Elec       q    Type
REMARK                         _______ _______ _______ _____ _____    ______ ____
ROOT
ATOM      1  P   UNL     1       7.438  -4.768  23.190  0.00  0.00    +0.480 P 
ATOM      2  O   UNL     1       8.207  -6.027  22.911  0.00  0.00    -0.227 OA
ENDROOT
BRANCH   1   3
ATOM      3  O   UNL     1       7.862  -3.518  22.275  0.00  0.00    -0.302 OA
ATOM      4  H   UNL     1       8.688  -3.074  22.637  0.00  0.00    +0.222 HD
ENDBRANCH   1   3
BRANCH   1   5
ATOM      5  O   UNL     1       5.828  -4.862  22.999  0.00  0.00    -0.284 OA
BRANCH   5   6
ATOM      6  C   UNL     1       5.070  -3.673  23.207  0.00  0.00    +0.206 C 
BRANCH   6   7
ATOM      7  C   UNL     1       3.837  -3.880  24.108  0.00  0.00    +0.178 C 
ATOM      8  C   UNL     1       3.902  -5.175  24.911  0.00  0.00    +0.179 C 
ATOM      9  C   UNL     1       4.341  -4.760  26.309  0.00  0.00    +0.211 C 
ATOM     10  C   UNL     1       4.411  -3.235  26.253  0.00  0.00    +0.254 C 
ATOM     11  O   UNL     1       3.685  -2.821  25.081  0.00  0.00    -0.346 OA
BRANCH  10  12
ATOM     12  N   UNL     1       3.894  -2.564  27.435  0.00  0.00    -0.285 N 
ATOM     13  C   UNL     1       4.307  -1.383  27.998  0.00  0.00    +0.167 A 
ATOM     14  N   UNL     1       5.384  -0.639  27.686  0.00  0.00    -0.216 NA
ATOM     15  C   UNL     1       5.397   0.515  28.392  0.00  0.00    +0.225 A 
ATOM     16  N   UNL     1       4.495   0.963  29.293  0.00  0.00    -0.219 NA
ATOM     17  C   UNL     1       3.438   0.173  29.585  0.00  0.00    +0.147 A 
ATOM     18  N   UNL     1       2.487   0.653  30.482  0.00  0.00    -0.341 N 
ATOM     19  H   UNL     1       1.588   0.196  30.379  0.00  0.00    +0.144 HD
ATOM     20  H   UNL     1       2.489   1.664  30.522  0.00  0.00    +0.144 HD
ATOM     21  C   UNL     1       3.319  -1.061  28.922  0.00  0.00    +0.147 A 
ATOM     22  N   UNL     1       2.346  -2.034  28.957  0.00  0.00    -0.231 NA
ATOM     23  C   UNL     1       2.725  -2.911  28.060  0.00  0.00    +0.203 A 
ENDBRANCH  10  12
BRANCH   8  24
ATOM     24  O   UNL     1       2.594  -5.765  25.000  0.00  0.00    -0.386 OA
ATOM     25  H   UNL     1       2.010  -5.316  24.359  0.00  0.00    +0.210 HD
ENDBRANCH   8  24
BRANCH   9  26
ATOM     26  O   UNL     1       5.609  -5.284  26.661  0.00  0.00    -0.276 OA
BRANCH  26  27
ATOM     27  P   UNL     1       5.767  -5.950  28.104  0.00  0.00    +0.473 P 
ATOM     28  O   UNL     1       5.207  -5.190  29.253  0.00  0.00    -0.228 OA
BRANCH  27  29
ATOM     29  O   UNL     1       5.109  -7.387  27.887  0.00  0.00    -0.303 OA
ATOM     30  H   UNL     1       4.167  -7.304  27.657  0.00  0.00    +0.222 HD
ENDBRANCH  27  29
BRANCH  27  31
ATOM     31  O   UNL     1       7.324  -6.271  28.215  0.00  0.00    -0.303 OA
ATOM     32  H   UNL     1       7.850  -5.471  28.400  0.00  0.00    +0.222 HD
ENDBRANCH  27  31
ENDBRANCH  26  27
ENDBRANCH   9  26
ENDBRANCH   6   7
ENDBRANCH   5   6
ENDBRANCH   1   5
BRANCH   1  33
ATOM     33  O   UNL     1       7.565  -4.234  24.684  0.00  0.00    -0.229 OA
BRANCH  33  34
ATOM     34  P   UNL     1       9.005  -4.030  25.353  0.00  0.00    +0.222 P 
ATOM     35  O   UNL     1       8.981  -4.842  26.631  0.00  0.00    -0.437 OA
ATOM     36  O   UNL     1      10.097  -4.123  24.333  0.00  0.00    -0.517 OA
BRANCH  34  37
ATOM     37  O   UNL     1       8.894  -2.485  25.822  0.00  0.00    -0.324 OA
BRANCH  37  38
ATOM     38  C   UNL     1       7.779  -1.794  25.294  0.00  0.00    +0.202 C 
BRANCH  38  42
ATOM     39  C   UNL     1       8.512   0.091  22.277  0.00  0.00    +0.439 C 
ATOM     40  C   UNL     1       9.912  -0.403  22.618  0.00  0.00    +0.244 C 
ATOM     41  C   UNL     1       9.806  -0.820  24.087  0.00  0.00    +0.183 C 
ATOM     42  C   UNL     1       8.307  -0.692  24.401  0.00  0.00    +0.182 C 
ATOM     43  O   UNL     1       7.628  -0.643  23.136  0.00  0.00    -0.309 OA
BRANCH  39  46
ATOM     44  C   UNL     1       8.668   3.789  23.120  0.00  0.00    +0.067 A 
ATOM     45  C   UNL     1       9.083   2.465  22.916  0.00  0.00    +0.322 A 
ATOM     46  N   UNL     1       8.205   1.542  22.441  0.00  0.00    -0.173 N 
ATOM     47  C   UNL     1       6.921   1.895  22.178  0.00  0.00    +0.311 A 
ATOM     48  C   UNL     1       6.491   3.207  22.293  0.00  0.00    +0.071 A 
ATOM     49  C   UNL     1       7.377   4.167  22.750  0.00  0.00    +0.022 A 
BRANCH  44  50
ATOM     50  C   UNL     1       9.535   4.774  23.808  0.00  0.00    +0.083 C 
ATOM     51  S   UNL     1       9.021   5.867  24.954  0.00  0.00    -0.035 S 
BRANCH  50  52
ATOM     52  N   UNL     1      10.854   4.774  23.427  0.00  0.00    -0.352 N 
ATOM     53  H   UNL     1      11.575   4.200  23.848  0.00  0.00    +0.143 HD
ATOM     54  H   UNL     1      11.116   5.251  22.568  0.00  0.00    +0.143 HD
ENDBRANCH  50  52
ENDBRANCH  44  50
ENDBRANCH  39  46
BRANCH  41  55
ATOM     55  O   UNL     1      10.538   0.101  24.890  0.00  0.00    -0.386 OA
ATOM     56  H   UNL     1       9.920   0.840  25.117  0.00  0.00    +0.210 HD
ENDBRANCH  41  55
BRANCH  40  57
ATOM     57  O   UNL     1      10.225  -1.533  21.778  0.00  0.00    -0.380 OA
ATOM     58  H   UNL     1       9.517  -2.204  21.845  0.00  0.00    +0.210 HD
ENDBRANCH  40  57
ENDBRANCH  38  42
ENDBRANCH  37  38
ENDBRANCH  34  37
ENDBRANCH  33  34
ENDBRANCH   1  33
TORSDOF 20
ENDMDL
MODEL 7
REMARK VINA RESULT:      -6.8      1.419      2.019
REMARK  Name = 
REMARK  20 active torsions:
REMARK  status: ('A' for Active; 'I' for Inactive)
REMARK    1  A    between atoms: N_1  and  C_2
REMARK    2  A    between atoms: C_2  and  C_4
REMARK    3  A    between atoms: N_8  and  C_10
REMARK    4  A    between atoms: C_13  and  C_15
REMARK    5  A    between atoms: C_15  and  O_16
REMARK    6  A    between atoms: O_16  and  P_17
REMARK    7  A    between atoms: P_17  and  O_20
REMARK    8  A    between atoms: O_20  and  P_21
REMARK    9  A    between atoms: P_21  and  O_22
REMARK   10  A    between atoms: P_21  and  O_24
REMARK   11  A    between atoms: O_24  and  C_25
REMARK   12  A    between atoms: C_25  and  C_26
REMARK   13  A    between atoms: C_29  and  N_41
REMARK   14  A    between atoms: C_31  and  O_33
REMARK   15  A    between atoms: O_33  and  P_34
REMARK   16  A    between atoms: P_34  and  O_35
REMARK   17  A    between atoms: P_34  and  O_36
REMARK   18  A    between atoms: C_38  and  O_40
REMARK   19  A    between atoms: C_51  and  O_53
REMARK   20  A    between atoms: C_54  and  O_56
REMARK                            x       y       z     vdW  Elec       q    Type
REMARK                         _______ _______ _______ _____ _____    ______ ____
ROOT
ATOM      1  P   UNL     1       4.836  -6.040  26.684  0.00  0.00    +0.480 P 
ATOM      2  O   UNL     1       4.149  -6.702  25.524  0.00  0.00    -0.227 OA
ENDROOT
BRANCH   1   3
ATOM      3  O   UNL     1       4.253  -6.452  28.122  0.00  0.00    -0.302 OA
ATOM      4  H   UNL     1       4.544  -5.797  28.827  0.00  0.00    +0.222 HD
ENDBRANCH   1   3
BRANCH   1   5
ATOM      5  O   UNL     1       6.431  -6.316  26.817  0.00  0.00    -0.284 OA
BRANCH   5   6
ATOM      6  C   UNL     1       7.239  -5.267  27.342  0.00  0.00    +0.206 C 
BRANCH   6   7
ATOM      7  C   UNL     1       8.294  -4.746  26.346  0.00  0.00    +0.178 C 
ATOM      8  C   UNL     1       8.239  -5.461  25.000  0.00  0.00    +0.179 C 
ATOM      9  C   UNL     1       7.492  -4.513  24.071  0.00  0.00    +0.211 C 
ATOM     10  C   UNL     1       7.243  -3.264  24.915  0.00  0.00    +0.254 C 
ATOM     11  O   UNL     1       8.122  -3.340  26.052  0.00  0.00    -0.346 OA
BRANCH  10  12
ATOM     12  N   UNL     1       7.436  -2.009  24.206  0.00  0.00    -0.285 N 
ATOM     13  C   UNL     1       8.544  -1.572  23.524  0.00  0.00    +0.167 A 
ATOM     14  N   UNL     1       9.769  -2.127  23.477  0.00  0.00    -0.216 NA
ATOM     15  C   UNL     1      10.568  -1.461  22.612  0.00  0.00    +0.225 A 
ATOM     16  N   UNL     1      10.272  -0.392  21.841  0.00  0.00    -0.219 NA
ATOM     17  C   UNL     1       9.033   0.139  21.935  0.00  0.00    +0.147 A 
ATOM     18  N   UNL     1       8.714   1.215  21.110  0.00  0.00    -0.341 N 
ATOM     19  H   UNL     1       7.715   1.321  20.975  0.00  0.00    +0.144 HD
ATOM     20  H   UNL     1       9.297   1.236  20.283  0.00  0.00    +0.144 HD
ATOM     21  C   UNL     1       8.111  -0.459  22.812  0.00  0.00    +0.147 A 
ATOM     22  N   UNL     1       6.787  -0.194  23.076  0.00  0.00    -0.231 NA
ATOM     23  C   UNL     1       6.422  -1.137  23.910  0.00  0.00    +0.203 A 
ENDBRANCH  10  12
BRANCH   8  24
ATOM     24  O   UNL     1       9.569  -5.648  24.488  0.00  0.00    -0.386 OA
ATOM     25  H   UNL     1       9.719  -6.605  24.365  0.00  0.00    +0.210 HD
ENDBRANCH   8  24
BRANCH   9  26
ATOM     26  O   UNL     1       6.256  -5.044  23.628  0.00  0.00    -0.276 OA
BRANCH  26  27
ATOM     27  P   UNL     1       6.071  -5.297  22.062  0.00  0.00    +0.473 P 
ATOM     28  O   UNL     1       7.193  -5.975  21.360  0.00  0.00    -0.228 OA
BRANCH  27  29
ATOM     29  O   UNL     1       4.689  -6.092  22.007  0.00  0.00    -0.303 OA
ATOM     30  H   UNL     1       4.618  -6.710  22.755  0.00  0.00    +0.222 HD
ENDBRANCH  27  29
BRANCH  27  31
ATOM     31  O   UNL     1       5.694  -3.862  21.480  0.00  0.00    -0.303 OA
ATOM     32  H   UNL     1       6.347  -3.183  21.729  0.00  0.00    +0.222 HD
ENDBRANCH  27  31
ENDBRANCH  26  27
ENDBRANCH   9  26
ENDBRANCH   6   7
ENDBRANCH   5   6
ENDBRANCH   1   5
BRANCH   1  33
ATOM     33  O   UNL     1       4.775  -4.449  26.667  0.00  0.00    -0.229 OA
BRANCH  33  34
ATOM     34  P   UNL     1       3.375  -3.694  26.491  0.00  0.00    +0.222 P 
ATOM     35  O   UNL     1       3.364  -3.180  25.067  0.00  0.00    -0.437 OA
ATOM     36  O   UNL     1       2.253  -4.477  27.098  0.00  0.00    -0.517 OA
BRANCH  34  37
ATOM     37  O   UNL     1       3.627  -2.390  27.417  0.00  0.00    -0.324 OA
BRANCH  37  38
ATOM     38  C   UNL     1       4.978  -1.977  27.485  0.00  0.00    +0.202 C 
BRANCH  38  42
ATOM     39  C   UNL     1       5.745   1.564  27.750  0.00  0.00    +0.439 C 
ATOM     40  C   UNL     1       4.251   1.602  28.046  0.00  0.00    +0.244 C 
ATOM     41  C   UNL     1       3.741   0.255  27.525  0.00  0.00    +0.183 C 
ATOM     42  C   UNL     1       5.021  -0.503  27.142  0.00  0.00    +0.182 C 
ATOM     43  O   UNL     1       6.107   0.177  27.790  0.00  0.00    -0.309 OA
BRANCH  39  46
ATOM     44  C   UNL     1       5.979   3.053  24.266  0.00  0.00    +0.067 A 
ATOM     45  C   UNL     1       5.430   2.636  25.487  0.00  0.00    +0.322 A 
ATOM     46  N   UNL     1       6.233   2.124  26.456  0.00  0.00    -0.173 N 
ATOM     47  C   UNL     1       7.568   2.000  26.239  0.00  0.00    +0.311 A 
ATOM     48  C   UNL     1       8.161   2.472  25.079  0.00  0.00    +0.071 A 
ATOM     49  C   UNL     1       7.363   3.020  24.091  0.00  0.00    +0.022 A 
BRANCH  44  50
ATOM     50  C   UNL     1       5.120   3.439  23.122  0.00  0.00    +0.083 C 
ATOM     51  S   UNL     1       3.457   3.506  23.152  0.00  0.00    -0.035 S 
BRANCH  50  52
ATOM     52  N   UNL     1       5.781   3.733  21.955  0.00  0.00    -0.352 N 
ATOM     53  H   UNL     1       5.350   3.751  21.038  0.00  0.00    +0.143 HD
ATOM     54  H   UNL     1       6.722   4.114  22.008  0.00  0.00    +0.143 HD
ENDBRANCH  50  52
ENDBRANCH  44  50
ENDBRANCH  39  46
BRANCH  41  55
ATOM     55  O   UNL     1       2.951   0.471  26.360  0.00  0.00    -0.386 OA
ATOM     56  H   UNL     1       2.441   1.306  26.509  0.00  0.00    +0.210 HD
ENDBRANCH  41  55
BRANCH  40  57
ATOM     57  O   UNL     1       4.061   1.715  29.470  0.00  0.00    -0.380 OA
ATOM     58  H   UNL     1       4.564   1.016  29.931  0.00  0.00    +0.210 HD
ENDBRANCH  40  57
ENDBRANCH  38  42
ENDBRANCH  37  38
ENDBRANCH  34  37
ENDBRANCH  33  34
ENDBRANCH   1  33
TORSDOF 20
ENDMDL
MODEL 8
REMARK VINA RESULT:      -6.8      2.448      3.567
REMARK  Name = 
REMARK  20 active torsions:
REMARK  status: ('A' for Active; 'I' for Inactive)
REMARK    1  A    between atoms: N_1  and  C_2
REMARK    2  A    between atoms: C_2  and  C_4
REMARK    3  A    between atoms: N_8  and  C_10
REMARK    4  A    between atoms: C_13  and  C_15
REMARK    5  A    between atoms: C_15  and  O_16
REMARK    6  A    between atoms: O_16  and  P_17
REMARK    7  A    between atoms: P_17  and  O_20
REMARK    8  A    between atoms: O_20  and  P_21
REMARK    9  A    between atoms: P_21  and  O_22
REMARK   10  A    between atoms: P_21  and  O_24
REMARK   11  A    between atoms: O_24  and  C_25
REMARK   12  A    between atoms: C_25  and  C_26
REMARK   13  A    between atoms: C_29  and  N_41
REMARK   14  A    between atoms: C_31  and  O_33
REMARK   15  A    between atoms: O_33  and  P_34
REMARK   16  A    between atoms: P_34  and  O_35
REMARK   17  A    between atoms: P_34  and  O_36
REMARK   18  A    between atoms: C_38  and  O_40
REMARK   19  A    between atoms: C_51  and  O_53
REMARK   20  A    between atoms: C_54  and  O_56
REMARK                            x       y       z     vdW  Elec       q    Type
REMARK                         _______ _______ _______ _____ _____    ______ ____
ROOT
ATOM      1  P   UNL     1       4.991  -3.184  26.550  0.00  0.00    +0.480 P 
ATOM      2  O   UNL     1       4.569  -4.337  25.686  0.00  0.00    -0.227 OA
ENDROOT
BRANCH   1   3
ATOM      3  O   UNL     1       4.235  -3.105  27.965  0.00  0.00    -0.302 OA
ATOM      4  H   UNL     1       4.674  -2.432  28.568  0.00  0.00    +0.222 HD
ENDBRANCH   1   3
BRANCH   1   5
ATOM      5  O   UNL     1       6.565  -3.134  26.948  0.00  0.00    -0.284 OA
BRANCH   5   6
ATOM      6  C   UNL     1       7.284  -4.364  26.949  0.00  0.00    +0.206 C 
BRANCH   6   7
ATOM      7  C   UNL     1       8.496  -4.370  25.997  0.00  0.00    +0.178 C 
ATOM      8  C   UNL     1       8.256  -5.200  24.741  0.00  0.00    +0.179 C 
ATOM      9  C   UNL     1       7.924  -4.191  23.649  0.00  0.00    +0.211 C 
ATOM     10  C   UNL     1       8.086  -2.830  24.322  0.00  0.00    +0.254 C 
ATOM     11  O   UNL     1       8.834  -3.042  25.533  0.00  0.00    -0.346 OA
BRANCH  10  12
ATOM     12  N   UNL     1       8.732  -1.822  23.496  0.00  0.00    -0.285 N 
ATOM     13  C   UNL     1       8.227  -0.625  23.055  0.00  0.00    +0.167 A 
ATOM     14  N   UNL     1       6.966  -0.164  23.148  0.00  0.00    -0.216 NA
ATOM     15  C   UNL     1       6.880   1.107  22.691  0.00  0.00    +0.225 A 
ATOM     16  N   UNL     1       7.863   1.898  22.206  0.00  0.00    -0.219 NA
ATOM     17  C   UNL     1       9.110   1.384  22.117  0.00  0.00    +0.147 A 
ATOM     18  N   UNL     1      10.130   2.212  21.657  0.00  0.00    -0.341 N 
ATOM     19  H   UNL     1      11.049   1.898  21.947  0.00  0.00    +0.144 HD
ATOM     20  H   UNL     1       9.910   3.190  21.799  0.00  0.00    +0.144 HD
ATOM     21  C   UNL     1       9.324   0.065  22.552  0.00  0.00    +0.147 A 
ATOM     22  N   UNL     1      10.466  -0.698  22.644  0.00  0.00    -0.231 NA
ATOM     23  C   UNL     1      10.071  -1.813  23.209  0.00  0.00    +0.203 A 
ENDBRANCH  10  12
BRANCH   8  24
ATOM     24  O   UNL     1       9.460  -5.893  24.371  0.00  0.00    -0.386 OA
ATOM     25  H   UNL     1       9.257  -6.846  24.301  0.00  0.00    +0.210 HD
ENDBRANCH   8  24
BRANCH   9  26
ATOM     26  O   UNL     1       6.601  -4.329  23.162  0.00  0.00    -0.276 OA
BRANCH  26  27
ATOM     27  P   UNL     1       6.367  -5.277  21.898  0.00  0.00    +0.473 P 
ATOM     28  O   UNL     1       7.545  -6.043  21.413  0.00  0.00    -0.228 OA
BRANCH  27  29
ATOM     29  O   UNL     1       5.147  -6.186  22.379  0.00  0.00    -0.303 OA
ATOM     30  H   UNL     1       4.350  -5.646  22.519  0.00  0.00    +0.222 HD
ENDBRANCH  27  29
BRANCH  27  31
ATOM     31  O   UNL     1       5.705  -4.317  20.812  0.00  0.00    -0.303 OA
ATOM     32  H   UNL     1       6.277  -4.198  20.032  0.00  0.00    +0.222 HD
ENDBRANCH  27  31
ENDBRANCH  26  27
ENDBRANCH   9  26
ENDBRANCH   6   7
ENDBRANCH   5   6
ENDBRANCH   1   5
BRANCH   1  33
ATOM     33  O   UNL     1       4.768  -1.750  25.895  0.00  0.00    -0.229 OA
BRANCH  33  34
ATOM     34  P   UNL     1       4.259  -0.522  26.787  0.00  0.00    +0.222 P 
ATOM     35  O   UNL     1       2.748  -0.625  26.799  0.00  0.00    -0.437 OA
ATOM     36  O   UNL     1       5.088  -0.366  28.024  0.00  0.00    -0.517 OA
BRANCH  34  37
ATOM     37  O   UNL     1       4.598   0.716  25.802  0.00  0.00    -0.324 OA
BRANCH  37  38
ATOM     38  C   UNL     1       5.177   1.834  26.448  0.00  0.00    +0.202 C 
BRANCH  38  42
ATOM     39  C   UNL     1       4.859   5.230  25.201  0.00  0.00    +0.439 C 
ATOM     40  C   UNL     1       3.568   4.634  24.654  0.00  0.00    +0.244 C 
ATOM     41  C   UNL     1       3.805   3.123  24.724  0.00  0.00    +0.183 C 
ATOM     42  C   UNL     1       5.140   2.991  25.473  0.00  0.00    +0.182 C 
ATOM     43  O   UNL     1       5.372   4.253  26.118  0.00  0.00    -0.309 OA
BRANCH  39  46
ATOM     44  C   UNL     1       8.216   6.019  23.615  0.00  0.00    +0.067 A 
ATOM     45  C   UNL     1       7.273   5.591  24.561  0.00  0.00    +0.322 A 
ATOM     46  N   UNL     1       5.951   5.575  24.245  0.00  0.00    -0.173 N 
ATOM     47  C   UNL     1       5.538   5.988  23.019  0.00  0.00    +0.311 A 
ATOM     48  C   UNL     1       6.442   6.344  22.031  0.00  0.00    +0.071 A 
ATOM     49  C   UNL     1       7.794   6.342  22.325  0.00  0.00    +0.022 A 
BRANCH  44  50
ATOM     50  C   UNL     1       9.637   6.229  23.979  0.00  0.00    +0.083 C 
ATOM     51  S   UNL     1      10.171   6.906  25.404  0.00  0.00    -0.035 S 
BRANCH  50  52
ATOM     52  N   UNL     1      10.555   5.847  23.033  0.00  0.00    -0.352 N 
ATOM     53  H   UNL     1      10.534   6.134  22.060  0.00  0.00    +0.143 HD
ATOM     54  H   UNL     1      11.406   5.380  23.336  0.00  0.00    +0.143 HD
ENDBRANCH  50  52
ENDBRANCH  44  50
ENDBRANCH  39  46
BRANCH  41  55
ATOM     55  O   UNL     1       3.950   2.609  23.404  0.00  0.00    -0.386 OA
ATOM     56  H   UNL     1       4.793   2.091  23.387  0.00  0.00    +0.210 HD
ENDBRANCH  41  55
BRANCH  40  57
ATOM     57  O   UNL     1       2.474   5.030  25.505  0.00  0.00    -0.380 OA
ATOM     58  H   UNL     1       2.675   4.803  26.434  0.00  0.00    +0.210 HD
ENDBRANCH  40  57
ENDBRANCH  38  42
ENDBRANCH  37  38
ENDBRANCH  34  37
ENDBRANCH  33  34
ENDBRANCH   1  33
TORSDOF 20
ENDMDL
MODEL 9
REMARK VINA RESULT:      -6.8      3.368      6.113
REMARK  Name = 
REMARK  20 active torsions:
REMARK  status: ('A' for Active; 'I' for Inactive)
REMARK    1  A    between atoms: N_1  and  C_2
REMARK    2  A    between atoms: C_2  and  C_4
REMARK    3  A    between atoms: N_8  and  C_10
REMARK    4  A    between atoms: C_13  and  C_15
REMARK    5  A    between atoms: C_15  and  O_16
REMARK    6  A    between atoms: O_16  and  P_17
REMARK    7  A    between atoms: P_17  and  O_20
REMARK    8  A    between atoms: O_20  and  P_21
REMARK    9  A    between atoms: P_21  and  O_22
REMARK   10  A    between atoms: P_21  and  O_24
REMARK   11  A    between atoms: O_24  and  C_25
REMARK   12  A    between atoms: C_25  and  C_26
REMARK   13  A    between atoms: C_29  and  N_41
REMARK   14  A    between atoms: C_31  and  O_33
REMARK   15  A    between atoms: O_33  and  P_34
REMARK   16  A    between atoms: P_34  and  O_35
REMARK   17  A    between atoms: P_34  and  O_36
REMARK   18  A    between atoms: C_38  and  O_40
REMARK   19  A    between atoms: C_51  and  O_53
REMARK   20  A    between atoms: C_54  and  O_56
REMARK                            x       y       z     vdW  Elec       q    Type
REMARK                         _______ _______ _______ _____ _____    ______ ____
ROOT
ATOM      1  P   UNL     1       3.434  -1.946  26.824  0.00  0.00    +0.480 P 
ATOM      2  O   UNL     1       3.199  -0.862  27.836  0.00  0.00    -0.227 OA
ENDROOT
BRANCH   1   3
ATOM      3  O   UNL     1       2.123  -2.383  26.005  0.00  0.00    -0.302 OA
ATOM      4  H   UNL     1       1.595  -3.069  26.515  0.00  0.00    +0.222 HD
ENDBRANCH   1   3
BRANCH   1   5
ATOM      5  O   UNL     1       4.523  -1.613  25.667  0.00  0.00    -0.284 OA
BRANCH   5   6
ATOM      6  C   UNL     1       5.898  -1.821  25.977  0.00  0.00    +0.206 C 
BRANCH   6   7
ATOM      7  C   UNL     1       6.682  -0.513  26.202  0.00  0.00    +0.178 C 
ATOM      8  C   UNL     1       8.150  -0.628  25.807  0.00  0.00    +0.179 C 
ATOM      9  C   UNL     1       8.251   0.031  24.437  0.00  0.00    +0.211 C 
ATOM     10  C   UNL     1       6.848   0.572  24.167  0.00  0.00    +0.254 C 
ATOM     11  O   UNL     1       6.150   0.585  25.425  0.00  0.00    -0.346 OA
BRANCH  10  12
ATOM     12  N   UNL     1       6.818   1.891  23.554  0.00  0.00    -0.285 N 
ATOM     13  C   UNL     1       7.401   3.052  23.994  0.00  0.00    +0.167 A 
ATOM     14  N   UNL     1       8.008   3.290  25.172  0.00  0.00    -0.216 NA
ATOM     15  C   UNL     1       8.552   4.528  25.195  0.00  0.00    +0.225 A 
ATOM     16  N   UNL     1       8.560   5.465  24.221  0.00  0.00    -0.219 NA
ATOM     17  C   UNL     1       7.923   5.185  23.062  0.00  0.00    +0.147 A 
ATOM     18  N   UNL     1       7.967   6.134  22.044  0.00  0.00    -0.341 N 
ATOM     19  H   UNL     1       7.796   5.733  21.129  0.00  0.00    +0.144 HD
ATOM     20  H   UNL     1       8.768   6.746  22.138  0.00  0.00    +0.144 HD
ATOM     21  C   UNL     1       7.307   3.930  22.921  0.00  0.00    +0.147 A 
ATOM     22  N   UNL     1       6.651   3.342  21.863  0.00  0.00    -0.231 NA
ATOM     23  C   UNL     1       6.376   2.130  22.280  0.00  0.00    +0.203 A 
ENDBRANCH  10  12
BRANCH   8  24
ATOM     24  O   UNL     1       8.968   0.111  26.729  0.00  0.00    -0.386 OA
ATOM     25  H   UNL     1       9.287   0.917  26.280  0.00  0.00    +0.210 HD
ENDBRANCH   8  24
BRANCH   9  26
ATOM     26  O   UNL     1       8.615  -0.883  23.417  0.00  0.00    -0.276 OA
BRANCH  26  27
ATOM     27  P   UNL     1       9.750  -0.435  22.386  0.00  0.00    +0.473 P 
ATOM     28  O   UNL     1       9.319   0.432  21.258  0.00  0.00    -0.228 OA
BRANCH  27  29
ATOM     29  O   UNL     1      10.836   0.230  23.345  0.00  0.00    -0.303 OA
ATOM     30  H   UNL     1      11.686   0.336  22.883  0.00  0.00    +0.222 HD
ENDBRANCH  27  29
BRANCH  27  31
ATOM     31  O   UNL     1      10.436  -1.805  21.947  0.00  0.00    -0.303 OA
ATOM     32  H   UNL     1      10.596  -1.843  20.986  0.00  0.00    +0.222 HD
ENDBRANCH  27  31
ENDBRANCH  26  27
ENDBRANCH   9  26
ENDBRANCH   6   7
ENDBRANCH   5   6
ENDBRANCH   1   5
BRANCH   1  33
ATOM     33  O   UNL     1       3.999  -3.305  27.431  0.00  0.00    -0.229 OA
BRANCH  33  34
ATOM     34  P   UNL     1       3.076  -4.222  28.364  0.00  0.00    +0.222 P 
ATOM     35  O   UNL     1       3.801  -4.317  29.690  0.00  0.00    -0.437 OA
ATOM     36  O   UNL     1       1.631  -3.850  28.235  0.00  0.00    -0.517 OA
BRANCH  34  37
ATOM     37  O   UNL     1       3.283  -5.662  27.655  0.00  0.00    -0.324 OA
BRANCH  37  38
ATOM     38  C   UNL     1       2.341  -5.954  26.641  0.00  0.00    +0.202 C 
BRANCH  38  42
ATOM     39  C   UNL     1       3.555  -5.077  23.332  0.00  0.00    +0.439 C 
ATOM     40  C   UNL     1       2.633  -6.233  22.969  0.00  0.00    +0.244 C 
ATOM     41  C   UNL     1       2.420  -6.963  24.298  0.00  0.00    +0.183 C 
ATOM     42  C   UNL     1       3.097  -6.052  25.333  0.00  0.00    +0.182 C 
ATOM     43  O   UNL     1       3.265  -4.772  24.703  0.00  0.00    -0.309 OA
BRANCH  39  46
ATOM     44  C   UNL     1       7.307  -5.043  23.909  0.00  0.00    +0.067 A 
ATOM     45  C   UNL     1       5.934  -4.900  24.157  0.00  0.00    +0.322 A 
ATOM     46  N   UNL     1       5.029  -5.272  23.212  0.00  0.00    -0.173 N 
ATOM     47  C   UNL     1       5.454  -5.767  22.021  0.00  0.00    +0.311 A 
ATOM     48  C   UNL     1       6.796  -5.996  21.767  0.00  0.00    +0.071 A 
ATOM     49  C   UNL     1       7.731  -5.648  22.726  0.00  0.00    +0.022 A 
BRANCH  44  50
ATOM     50  C   UNL     1       8.322  -4.479  24.831  0.00  0.00    +0.083 C 
ATOM     51  S   UNL     1       8.364  -4.726  26.477  0.00  0.00    -0.035 S 
BRANCH  50  52
ATOM     52  N   UNL     1       9.270  -3.674  24.249  0.00  0.00    -0.352 N 
ATOM     53  H   UNL     1      10.270  -3.768  24.391  0.00  0.00    +0.143 HD
ATOM     54  H   UNL     1       8.988  -3.042  23.505  0.00  0.00    +0.143 HD
ENDBRANCH  50  52
ENDBRANCH  44  50
ENDBRANCH  39  46
BRANCH  41  55
ATOM     55  O   UNL     1       3.094  -8.217  24.258  0.00  0.00    -0.386 OA
ATOM     56  H   UNL     1       3.961  -8.093  24.719  0.00  0.00    +0.210 HD
ENDBRANCH  41  55
BRANCH  40  57
ATOM     57  O   UNL     1       1.392  -5.699  22.464  0.00  0.00    -0.380 OA
ATOM     58  H   UNL     1       0.875  -6.407  22.033  0.00  0.00    +0.210 HD
ENDBRANCH  40  57
ENDBRANCH  38  42
ENDBRANCH  37  38
ENDBRANCH  34  37
ENDBRANCH  33  34
ENDBRANCH   1  33
TORSDOF 20
ENDMDL
