MODEL 1
REMARK VINA RESULT:      -5.6      0.000      0.000
REMARK  Name = 
REMARK  2 active torsions:
REMARK  status: ('A' for Active; 'I' for Inactive)
REMARK    1  A    between atoms: C_1  and  C_2
REMARK    2  A    between atoms: C_11  and  O_12
REMARK                            x       y       z     vdW  Elec       q    Type
REMARK                         _______ _______ _______ _____ _____    ______ ____
ROOT
ATOM      1  C   UNL     1       5.996  -3.040  21.964  0.00  0.00    +0.045 C 
ATOM      2  C   UNL     1       7.275  -3.019  22.746  0.00  0.00    -0.033 A 
ATOM      3  C   UNL     1       7.401  -3.801  23.984  0.00  0.00    +0.021 A 
ATOM      4  C   UNL     1       6.383  -4.622  24.488  0.00  0.00    +0.015 A 
ATOM      5  C   UNL     1       6.567  -5.348  25.673  0.00  0.00    +0.046 A 
ATOM      6  C   UNL     1       7.773  -5.250  26.362  0.00  0.00    +0.120 A 
ATOM      7  C   UNL     1       8.794  -4.442  25.888  0.00  0.00    +0.092 A 
ATOM      8  C   UNL     1       8.598  -3.733  24.704  0.00  0.00    +0.143 A 
ATOM      9  O   UNL     1       9.678  -2.945  24.260  0.00  0.00    -0.422 OA
ATOM     10  C   UNL     1       9.603  -2.229  23.079  0.00  0.00    +0.337 A 
ATOM     11  O   UNL     1      10.537  -1.562  22.652  0.00  0.00    -0.245 OA
ATOM     12  C   UNL     1       8.330  -2.294  22.344  0.00  0.00    +0.096 A 
ENDROOT
BRANCH   6  13
ATOM     13  O   UNL     1       7.990  -5.943  27.515  0.00  0.00    -0.507 OA
ATOM     14  H   UNL     1       8.441  -6.776  27.303  0.00  0.00    +0.292 HD
ENDBRANCH   6  13
TORSDOF 1
ENDMDL
MODEL 2
REMARK VINA RESULT:      -5.5      2.718      5.585
REMARK  Name = 
REMARK  2 active torsions:
REMARK  status: ('A' for Active; 'I' for Inactive)
REMARK    1  A    between atoms: C_1  and  C_2
REMARK    2  A    between atoms: C_11  and  O_12
REMARK                            x       y       z     vdW  Elec       q    Type
REMARK                         _______ _______ _______ _____ _____    ______ ____
ROOT
ATOM      1  C   UNL     1       8.614  -1.781  26.300  0.00  0.00    +0.045 C 
ATOM      2  C   UNL     1       8.546  -1.822  24.803  0.00  0.00    -0.033 A 
ATOM      3  C   UNL     1       9.054  -0.694  24.008  0.00  0.00    +0.021 A 
ATOM      4  C   UNL     1       9.649   0.444  24.568  0.00  0.00    +0.015 A 
ATOM      5  C   UNL     1      10.119   1.484  23.753  0.00  0.00    +0.046 A 
ATOM      6  C   UNL     1       9.989   1.389  22.371  0.00  0.00    +0.120 A 
ATOM      7  C   UNL     1       9.400   0.276  21.791  0.00  0.00    +0.092 A 
ATOM      8  C   UNL     1       8.946  -0.752  22.615  0.00  0.00    +0.143 A 
ATOM      9  O   UNL     1       8.376  -1.866  21.967  0.00  0.00    -0.422 OA
ATOM     10  C   UNL     1       7.925  -2.957  22.688  0.00  0.00    +0.337 A 
ATOM     11  O   UNL     1       7.455  -3.953  22.151  0.00  0.00    -0.245 OA
ATOM     12  C   UNL     1       8.026  -2.873  24.153  0.00  0.00    +0.096 A 
ENDROOT
BRANCH   6  13
ATOM     13  O   UNL     1      10.437   2.377  21.547  0.00  0.00    -0.507 OA
ATOM     14  H   UNL     1      10.920   3.034  22.073  0.00  0.00    +0.292 HD
ENDBRANCH   6  13
TORSDOF 1
ENDMDL
MODEL 3
REMARK VINA RESULT:      -5.5      2.902      5.710
REMARK  Name = 
REMARK  2 active torsions:
REMARK  status: ('A' for Active; 'I' for Inactive)
REMARK    1  A    between atoms: C_1  and  C_2
REMARK    2  A    between atoms: C_11  and  O_12
REMARK                            x       y       z     vdW  Elec       q    Type
REMARK                         _______ _______ _______ _____ _____    ______ ____
ROOT
ATOM      1  C   UNL     1       8.429  -0.642  27.064  0.00  0.00    +0.045 C 
ATOM      2  C   UNL     1       8.785  -1.143  25.697  0.00  0.00    -0.033 A 
ATOM      3  C   UNL     1       9.182  -0.198  24.642  0.00  0.00    +0.021 A 
ATOM      4  C   UNL     1       9.287   1.186  24.840  0.00  0.00    +0.015 A 
ATOM      5  C   UNL     1       9.676   2.033  23.793  0.00  0.00    +0.046 A 
ATOM      6  C   UNL     1       9.958   1.496  22.540  0.00  0.00    +0.120 A 
ATOM      7  C   UNL     1       9.859   0.132  22.316  0.00  0.00    +0.092 A 
ATOM      8  C   UNL     1       9.478  -0.697  23.370  0.00  0.00    +0.143 A 
ATOM      9  O   UNL     1       9.415  -2.077  23.089  0.00  0.00    -0.422 OA
ATOM     10  C   UNL     1       9.082  -2.991  24.071  0.00  0.00    +0.337 A 
ATOM     11  O   UNL     1       9.050  -4.198  23.864  0.00  0.00    -0.245 OA
ATOM     12  C   UNL     1       8.753  -2.449  25.399  0.00  0.00    +0.096 A 
ENDROOT
BRANCH   6  13
ATOM     13  O   UNL     1      10.344   2.288  21.500  0.00  0.00    -0.507 OA
ATOM     14  H   UNL     1      11.151   2.766  21.748  0.00  0.00    +0.292 HD
ENDBRANCH   6  13
TORSDOF 1
ENDMDL
MODEL 4
REMARK VINA RESULT:      -5.3      2.132      4.761
REMARK  Name = 
REMARK  2 active torsions:
REMARK  status: ('A' for Active; 'I' for Inactive)
REMARK    1  A    between atoms: C_1  and  C_2
REMARK    2  A    between atoms: C_11  and  O_12
REMARK                            x       y       z     vdW  Elec       q    Type
REMARK                         _______ _______ _______ _____ _____    ______ ____
ROOT
ATOM      1  C   UNL     1       7.977  -5.190  25.950  0.00  0.00    +0.045 C 
ATOM      2  C   UNL     1       7.404  -4.644  24.676  0.00  0.00    -0.033 A 
ATOM      3  C   UNL     1       8.145  -3.636  23.903  0.00  0.00    +0.021 A 
ATOM      4  C   UNL     1       9.410  -3.156  24.267  0.00  0.00    +0.015 A 
ATOM      5  C   UNL     1      10.067  -2.198  23.482  0.00  0.00    +0.046 A 
ATOM      6  C   UNL     1       9.455  -1.712  22.331  0.00  0.00    +0.120 A 
ATOM      7  C   UNL     1       8.203  -2.168  21.950  0.00  0.00    +0.092 A 
ATOM      8  C   UNL     1       7.566  -3.126  22.736  0.00  0.00    +0.143 A 
ATOM      9  O   UNL     1       6.305  -3.567  22.288  0.00  0.00    -0.422 OA
ATOM     10  C   UNL     1       5.603  -4.541  22.975  0.00  0.00    +0.337 A 
ATOM     11  O   UNL     1       4.520  -4.966  22.592  0.00  0.00    -0.245 OA
ATOM     12  C   UNL     1       6.215  -5.053  24.211  0.00  0.00    +0.096 A 
ENDROOT
BRANCH   6  13
ATOM     13  O   UNL     1      10.064  -0.784  21.541  0.00  0.00    -0.507 OA
ATOM     14  H   UNL     1      11.001  -0.724  21.786  0.00  0.00    +0.292 HD
ENDBRANCH   6  13
TORSDOF 1
ENDMDL
MODEL 5
REMARK VINA RESULT:      -5.2      2.475      3.487
REMARK  Name = 
REMARK  2 active torsions:
REMARK  status: ('A' for Active; 'I' for Inactive)
REMARK    1  A    between atoms: C_1  and  C_2
REMARK    2  A    between atoms: C_11  and  O_12
REMARK                            x       y       z     vdW  Elec       q    Type
REMARK                         _______ _______ _______ _____ _____    ______ ____
ROOT
ATOM      1  C   UNL     1       3.613  -6.062  24.806  0.00  0.00    +0.045 C 
ATOM      2  C   UNL     1       4.876  -5.747  24.063  0.00  0.00    -0.033 A 
ATOM      3  C   UNL     1       6.133  -5.532  24.796  0.00  0.00    +0.021 A 
ATOM      4  C   UNL     1       6.246  -5.636  26.189  0.00  0.00    +0.015 A 
ATOM      5  C   UNL     1       7.475  -5.425  26.828  0.00  0.00    +0.046 A 
ATOM      6  C   UNL     1       8.598  -5.101  26.073  0.00  0.00    +0.120 A 
ATOM      7  C   UNL     1       8.514  -4.987  24.694  0.00  0.00    +0.092 A 
ATOM      8  C   UNL     1       7.285  -5.209  24.073  0.00  0.00    +0.143 A 
ATOM      9  O   UNL     1       7.265  -5.100  22.669  0.00  0.00    -0.422 OA
ATOM     10  C   UNL     1       6.107  -5.334  21.950  0.00  0.00    +0.337 A 
ATOM     11  O   UNL     1       6.067  -5.278  20.727  0.00  0.00    -0.245 OA
ATOM     12  C   UNL     1       4.898  -5.652  22.726  0.00  0.00    +0.096 A 
ENDROOT
BRANCH   6  13
ATOM     13  O   UNL     1       9.811  -4.892  26.658  0.00  0.00    -0.507 OA
ATOM     14  H   UNL     1       9.888  -3.955  26.902  0.00  0.00    +0.292 HD
ENDBRANCH   6  13
TORSDOF 1
ENDMDL
MODEL 6
REMARK VINA RESULT:      -5.1      0.906      4.149
REMARK  Name = 
REMARK  2 active torsions:
REMARK  status: ('A' for Active; 'I' for Inactive)
REMARK    1  A    between atoms: C_1  and  C_2
REMARK    2  A    between atoms: C_11  and  O_12
REMARK                            x       y       z     vdW  Elec       q    Type
REMARK                         _______ _______ _______ _____ _____    ______ ____
ROOT
ATOM      1  C   UNL     1       5.174  -5.082  23.453  0.00  0.00    +0.045 C 
ATOM      2  C   UNL     1       6.367  -4.805  24.318  0.00  0.00    -0.033 A 
ATOM      3  C   UNL     1       7.418  -3.886  23.859  0.00  0.00    +0.021 A 
ATOM      4  C   UNL     1       7.369  -3.199  22.639  0.00  0.00    +0.015 A 
ATOM      5  C   UNL     1       8.403  -2.331  22.261  0.00  0.00    +0.046 A 
ATOM      6  C   UNL     1       9.496  -2.153  23.104  0.00  0.00    +0.120 A 
ATOM      7  C   UNL     1       9.572  -2.823  24.315  0.00  0.00    +0.092 A 
ATOM      8  C   UNL     1       8.531  -3.676  24.679  0.00  0.00    +0.143 A 
ATOM      9  O   UNL     1       8.654  -4.314  25.930  0.00  0.00    -0.422 OA
ATOM     10  C   UNL     1       7.663  -5.153  26.404  0.00  0.00    +0.337 A 
ATOM     11  O   UNL     1       7.727  -5.695  27.500  0.00  0.00    -0.245 OA
ATOM     12  C   UNL     1       6.508  -5.381  25.521  0.00  0.00    +0.096 A 
ENDROOT
BRANCH   6  13
ATOM     13  O   UNL     1      10.518  -1.315  22.772  0.00  0.00    -0.507 OA
ATOM     14  H   UNL     1      11.211  -1.823  22.322  0.00  0.00    +0.292 HD
ENDBRANCH   6  13
TORSDOF 1
ENDMDL
MODEL 7
REMARK VINA RESULT:      -5.0      3.247      5.866
REMARK  Name = 
REMARK  2 active torsions:
REMARK  status: ('A' for Active; 'I' for Inactive)
REMARK    1  A    between atoms: C_1  and  C_2
REMARK    2  A    between atoms: C_11  and  O_12
REMARK                            x       y       z     vdW  Elec       q    Type
REMARK                         _______ _______ _______ _____ _____    ______ ____
ROOT
ATOM      1  C   UNL     1       8.076  -2.323  22.214  0.00  0.00    +0.045 C 
ATOM      2  C   UNL     1       8.527  -1.515  23.394  0.00  0.00    -0.033 A 
ATOM      3  C   UNL     1       9.152  -0.199  23.197  0.00  0.00    +0.021 A 
ATOM      4  C   UNL     1       9.335   0.391  21.939  0.00  0.00    +0.015 A 
ATOM      5  C   UNL     1       9.934   1.653  21.818  0.00  0.00    +0.046 A 
ATOM      6  C   UNL     1      10.358   2.327  22.959  0.00  0.00    +0.120 A 
ATOM      7  C   UNL     1      10.193   1.764  24.215  0.00  0.00    +0.092 A 
ATOM      8  C   UNL     1       9.589   0.512  24.319  0.00  0.00    +0.143 A 
ATOM      9  O   UNL     1       9.429   0.000  25.622  0.00  0.00    -0.422 OA
ATOM     10  C   UNL     1       8.810  -1.217  25.840  0.00  0.00    +0.337 A 
ATOM     11  O   UNL     1       8.629  -1.672  26.963  0.00  0.00    -0.245 OA
ATOM     12  C   UNL     1       8.375  -1.964  24.649  0.00  0.00    +0.096 A 
ENDROOT
BRANCH   6  13
ATOM     13  O   UNL     1      10.941   3.556  22.882  0.00  0.00    -0.507 OA
ATOM     14  H   UNL     1      11.814   3.467  22.469  0.00  0.00    +0.292 HD
ENDBRANCH   6  13
TORSDOF 1
ENDMDL
MODEL 8
REMARK VINA RESULT:      -5.0      1.611      1.675
REMARK  Name = 
REMARK  2 active torsions:
REMARK  status: ('A' for Active; 'I' for Inactive)
REMARK    1  A    between atoms: C_1  and  C_2
REMARK    2  A    between atoms: C_11  and  O_12
REMARK                            x       y       z     vdW  Elec       q    Type
REMARK                         _______ _______ _______ _____ _____    ______ ____
ROOT
ATOM      1  C   UNL     1       6.407  -0.446  24.540  0.00  0.00    +0.045 C 
ATOM      2  C   UNL     1       7.541  -1.424  24.475  0.00  0.00    -0.033 A 
ATOM      3  C   UNL     1       7.551  -2.605  25.351  0.00  0.00    +0.021 A 
ATOM      4  C   UNL     1       6.523  -2.911  26.253  0.00  0.00    +0.015 A 
ATOM      5  C   UNL     1       6.590  -4.057  27.058  0.00  0.00    +0.046 A 
ATOM      6  C   UNL     1       7.693  -4.900  26.965  0.00  0.00    +0.120 A 
ATOM      7  C   UNL     1       8.726  -4.620  26.084  0.00  0.00    +0.092 A 
ATOM      8  C   UNL     1       8.639  -3.481  25.286  0.00  0.00    +0.143 A 
ATOM      9  O   UNL     1       9.708  -3.259  24.395  0.00  0.00    -0.422 OA
ATOM     10  C   UNL     1       9.707  -2.178  23.533  0.00  0.00    +0.337 A 
ATOM     11  O   UNL     1      10.607  -1.977  22.726  0.00  0.00    -0.245 OA
ATOM     12  C   UNL     1       8.566  -1.254  23.628  0.00  0.00    +0.096 A 
ENDROOT
BRANCH   6  13
ATOM     13  O   UNL     1       7.792  -6.025  27.728  0.00  0.00    -0.507 OA
ATOM     14  H   UNL     1       7.982  -5.771  28.645  0.00  0.00    +0.292 HD
ENDBRANCH   6  13
TORSDOF 1
ENDMDL
MODEL 9
REMARK VINA RESULT:      -4.9      2.109      2.817
REMARK  Name = 
REMARK  2 active torsions:
REMARK  status: ('A' for Active; 'I' for Inactive)
REMARK    1  A    between atoms: C_1  and  C_2
REMARK    2  A    between atoms: C_11  and  O_12
REMARK                            x       y       z     vdW  Elec       q    Type
REMARK                         _______ _______ _______ _____ _____    ______ ____
ROOT
ATOM      1  C   UNL     1       7.890  -1.174  23.018  0.00  0.00    +0.045 C 
ATOM      2  C   UNL     1       7.405  -2.593  23.052  0.00  0.00    -0.033 A 
ATOM      3  C   UNL     1       7.535  -3.390  24.281  0.00  0.00    +0.021 A 
ATOM      4  C   UNL     1       8.070  -2.891  25.476  0.00  0.00    +0.015 A 
ATOM      5  C   UNL     1       8.161  -3.703  26.616  0.00  0.00    +0.046 A 
ATOM      6  C   UNL     1       7.721  -5.022  26.560  0.00  0.00    +0.120 A 
ATOM      7  C   UNL     1       7.191  -5.542  25.389  0.00  0.00    +0.092 A 
ATOM      8  C   UNL     1       7.100  -4.719  24.267  0.00  0.00    +0.143 A 
ATOM      9  O   UNL     1       6.535  -5.296  23.113  0.00  0.00    -0.422 OA
ATOM     10  C   UNL     1       6.365  -4.559  21.956  0.00  0.00    +0.337 A 
ATOM     11  O   UNL     1       5.847  -5.024  20.948  0.00  0.00    -0.245 OA
ATOM     12  C   UNL     1       6.846  -3.168  21.978  0.00  0.00    +0.096 A 
ENDROOT
BRANCH   6  13
ATOM     13  O   UNL     1       7.790  -5.840  27.648  0.00  0.00    -0.507 OA
ATOM     14  H   UNL     1       8.667  -6.254  27.678  0.00  0.00    +0.292 HD
ENDBRANCH   6  13
TORSDOF 1
ENDMDL
