MODEL 1
REMARK VINA RESULT:      -5.9      0.000      0.000
REMARK  Name = 
REMARK  8 active torsions:
REMARK  status: ('A' for Active; 'I' for Inactive)
REMARK    1  A    between atoms: N_6  and  C_10
REMARK    2  A    between atoms: C_13  and  C_15
REMARK    3  A    between atoms: C_15  and  O_16
REMARK    4  A    between atoms: O_16  and  P_17
REMARK    5  A    between atoms: P_17  and  O_18
REMARK    6  A    between atoms: P_17  and  O_19
REMARK    7  A    between atoms: C_21  and  O_23
REMARK    8  A    between atoms: C_24  and  O_26
REMARK                            x       y       z     vdW  Elec       q    Type
REMARK                         _______ _______ _______ _____ _____    ______ ____
ROOT
ATOM      1  C   UNL     1       4.670  -4.235  24.998  0.00  0.00    +0.255 C 
ATOM      2  C   UNL     1       4.829  -5.755  24.715  0.00  0.00    +0.195 C 
ATOM      3  C   UNL     1       5.373  -6.360  26.008  0.00  0.00    +0.178 C 
ATOM      4  C   UNL     1       5.647  -5.170  26.918  0.00  0.00    +0.178 C 
ATOM      5  O   UNL     1       4.796  -4.109  26.435  0.00  0.00    -0.346 OA
ENDROOT
BRANCH   1  13
ATOM      6  N   UNL     1       8.304  -1.067  22.314  0.00  0.00    -0.342 N 
ATOM      7  H   UNL     1       9.077  -0.694  22.855  0.00  0.00    +0.144 HD
ATOM      8  H   UNL     1       8.581  -1.533  21.456  0.00  0.00    +0.144 HD
ATOM      9  C   UNL     1       7.304  -1.719  22.992  0.00  0.00    +0.137 A 
ATOM     10  C   UNL     1       7.025  -1.419  24.428  0.00  0.00    +0.074 A 
ATOM     11 BR   UNL     1       7.889  -0.042  25.312  0.00  0.00    -0.045 Br
ATOM     12  C   UNL     1       6.172  -2.258  25.014  0.00  0.00    +0.112 A 
ATOM     13  N   UNL     1       5.585  -3.308  24.326  0.00  0.00    -0.269 N 
ATOM     14  C   UNL     1       5.632  -3.327  22.928  0.00  0.00    +0.352 A 
ATOM     15  O   UNL     1       4.803  -3.945  22.269  0.00  0.00    -0.244 OA
ATOM     16  N   UNL     1       6.637  -2.608  22.316  0.00  0.00    -0.177 NA
ENDBRANCH   1  13
BRANCH   2  17
ATOM     17  O   UNL     1       5.714  -6.103  23.656  0.00  0.00    -0.385 OA
ATOM     18  H   UNL     1       5.365  -6.920  23.253  0.00  0.00    +0.210 HD
ENDBRANCH   2  17
BRANCH   3  19
ATOM     19  O   UNL     1       4.403  -7.244  26.579  0.00  0.00    -0.386 OA
ATOM     20  H   UNL     1       4.822  -8.111  26.724  0.00  0.00    +0.210 HD
ENDBRANCH   3  19
BRANCH   4  21
ATOM     21  C   UNL     1       7.131  -4.774  26.878  0.00  0.00    +0.206 C 
BRANCH  21  22
ATOM     22  O   UNL     1       7.838  -5.554  25.907  0.00  0.00    -0.284 OA
BRANCH  22  23
ATOM     23  P   UNL     1       9.045  -4.625  25.088  0.00  0.00    +0.472 P 
ATOM     24  O   UNL     1      10.127  -3.793  24.355  0.00  0.00    -0.228 OA
BRANCH  23  25
ATOM     25  O   UNL     1       8.361  -5.192  23.713  0.00  0.00    -0.303 OA
ATOM     26  H   UNL     1       8.877  -4.799  22.983  0.00  0.00    +0.222 HD
ENDBRANCH  23  25
BRANCH  23  27
ATOM     27  O   UNL     1       9.982  -5.953  25.292  0.00  0.00    -0.303 OA
ATOM     28  H   UNL     1       9.625  -6.724  24.819  0.00  0.00    +0.222 HD
ENDBRANCH  23  27
ENDBRANCH  22  23
ENDBRANCH  21  22
ENDBRANCH   4  21
TORSDOF 8
ENDMDL
MODEL 2
REMARK VINA RESULT:      -5.9      2.269      2.909
REMARK  Name = 
REMARK  8 active torsions:
REMARK  status: ('A' for Active; 'I' for Inactive)
REMARK    1  A    between atoms: N_6  and  C_10
REMARK    2  A    between atoms: C_13  and  C_15
REMARK    3  A    between atoms: C_15  and  O_16
REMARK    4  A    between atoms: O_16  and  P_17
REMARK    5  A    between atoms: P_17  and  O_18
REMARK    6  A    between atoms: P_17  and  O_19
REMARK    7  A    between atoms: C_21  and  O_23
REMARK    8  A    between atoms: C_24  and  O_26
REMARK                            x       y       z     vdW  Elec       q    Type
REMARK                         _______ _______ _______ _____ _____    ______ ____
ROOT
ATOM      1  C   UNL     1       4.572  -4.620  23.360  0.00  0.00    +0.255 C 
ATOM      2  C   UNL     1       4.604  -6.076  22.816  0.00  0.00    +0.195 C 
ATOM      3  C   UNL     1       4.331  -6.973  24.024  0.00  0.00    +0.178 C 
ATOM      4  C   UNL     1       4.305  -6.029  25.219  0.00  0.00    +0.178 C 
ATOM      5  O   UNL     1       3.988  -4.729  24.681  0.00  0.00    -0.346 OA
ENDROOT
BRANCH   1  13
ATOM      6  N   UNL     1       9.498  -2.133  23.393  0.00  0.00    -0.342 N 
ATOM      7  H   UNL     1      10.048  -2.214  24.241  0.00  0.00    +0.144 HD
ATOM      8  H   UNL     1       9.999  -2.378  22.544  0.00  0.00    +0.144 HD
ATOM      9  C   UNL     1       8.207  -2.602  23.420  0.00  0.00    +0.137 A 
ATOM     10  C   UNL     1       7.444  -2.683  24.701  0.00  0.00    +0.074 A 
ATOM     11 BR   UNL     1       8.130  -1.999  26.277  0.00  0.00    -0.045 Br
ATOM     12  C   UNL     1       6.287  -3.339  24.617  0.00  0.00    +0.112 A 
ATOM     13  N   UNL     1       5.836  -3.879  23.423  0.00  0.00    -0.269 N 
ATOM     14  C   UNL     1       6.428  -3.484  22.220  0.00  0.00    +0.352 A 
ATOM     15  O   UNL     1       5.827  -3.568  21.154  0.00  0.00    -0.244 OA
ATOM     16  N   UNL     1       7.708  -2.976  22.278  0.00  0.00    -0.177 NA
ENDBRANCH   1  13
BRANCH   2  17
ATOM     17  O   UNL     1       5.828  -6.494  22.222  0.00  0.00    -0.385 OA
ATOM     18  H   UNL     1       6.172  -7.225  22.769  0.00  0.00    +0.210 HD
ENDBRANCH   2  17
BRANCH   3  19
ATOM     19  O   UNL     1       3.078  -7.644  23.859  0.00  0.00    -0.386 OA
ATOM     20  H   UNL     1       2.843  -8.070  24.702  0.00  0.00    +0.210 HD
ENDBRANCH   3  19
BRANCH   4  21
ATOM     21  C   UNL     1       5.655  -6.030  25.953  0.00  0.00    +0.206 C 
BRANCH  21  22
ATOM     22  O   UNL     1       5.634  -6.947  27.054  0.00  0.00    -0.284 OA
BRANCH  22  23
ATOM     23  P   UNL     1       5.979  -6.160  28.555  0.00  0.00    +0.472 P 
ATOM     24  O   UNL     1       6.288  -5.458  29.900  0.00  0.00    -0.228 OA
BRANCH  23  25
ATOM     25  O   UNL     1       7.450  -5.854  27.906  0.00  0.00    -0.303 OA
ATOM     26  H   UNL     1       8.036  -5.663  28.663  0.00  0.00    +0.222 HD
ENDBRANCH  23  25
BRANCH  23  27
ATOM     27  O   UNL     1       6.402  -7.660  29.062  0.00  0.00    -0.303 OA
ATOM     28  H   UNL     1       7.328  -7.866  28.849  0.00  0.00    +0.222 HD
ENDBRANCH  23  27
ENDBRANCH  22  23
ENDBRANCH  21  22
ENDBRANCH   4  21
TORSDOF 8
ENDMDL
MODEL 3
REMARK VINA RESULT:      -5.8      4.189      6.766
REMARK  Name = 
REMARK  8 active torsions:
REMARK  status: ('A' for Active; 'I' for Inactive)
REMARK    1  A    between atoms: N_6  and  C_10
REMARK    2  A    between atoms: C_13  and  C_15
REMARK    3  A    between atoms: C_15  and  O_16
REMARK    4  A    between atoms: O_16  and  P_17
REMARK    5  A    between atoms: P_17  and  O_18
REMARK    6  A    between atoms: P_17  and  O_19
REMARK    7  A    between atoms: C_21  and  O_23
REMARK    8  A    between atoms: C_24  and  O_26
REMARK                            x       y       z     vdW  Elec       q    Type
REMARK                         _______ _______ _______ _____ _____    ______ ____
ROOT
ATOM      1  C   UNL     1      10.393   0.320  23.165  0.00  0.00    +0.255 C 
ATOM      2  C   UNL     1       9.795   1.414  22.236  0.00  0.00    +0.195 C 
ATOM      3  C   UNL     1       9.409   2.571  23.156  0.00  0.00    +0.178 C 
ATOM      4  C   UNL     1       9.652   2.051  24.568  0.00  0.00    +0.178 C 
ATOM      5  O   UNL     1      10.618   0.990  24.430  0.00  0.00    -0.346 OA
ENDROOT
BRANCH   1  13
ATOM      6  N   UNL     1       7.199  -4.147  23.707  0.00  0.00    -0.342 N 
ATOM      7  H   UNL     1       6.648  -4.218  24.555  0.00  0.00    +0.144 HD
ATOM      8  H   UNL     1       6.669  -4.282  22.851  0.00  0.00    +0.144 HD
ATOM      9  C   UNL     1       8.120  -3.131  23.624  0.00  0.00    +0.137 A 
ATOM     10  C   UNL     1       8.716  -2.532  24.856  0.00  0.00    +0.074 A 
ATOM     11 BR   UNL     1       8.379  -3.236  26.533  0.00  0.00    -0.045 Br
ATOM     12  C   UNL     1       9.435  -1.430  24.643  0.00  0.00    +0.112 A 
ATOM     13  N   UNL     1       9.620  -0.908  23.373  0.00  0.00    -0.269 N 
ATOM     14  C   UNL     1       9.319  -1.693  22.255  0.00  0.00    +0.352 A 
ATOM     15  O   UNL     1       9.845  -1.484  21.167  0.00  0.00    -0.244 OA
ATOM     16  N   UNL     1       8.423  -2.726  22.427  0.00  0.00    -0.177 NA
ENDBRANCH   1  13
BRANCH   2  17
ATOM     17  O   UNL     1       8.643   1.036  21.490  0.00  0.00    -0.385 OA
ATOM     18  H   UNL     1       8.522   1.712  20.797  0.00  0.00    +0.210 HD
ENDBRANCH   2  17
BRANCH   3  19
ATOM     19  O   UNL     1      10.223   3.713  22.871  0.00  0.00    -0.386 OA
ATOM     20  H   UNL     1       9.662   4.507  22.903  0.00  0.00    +0.210 HD
ENDBRANCH   3  19
BRANCH   4  21
ATOM     21  C   UNL     1       8.345   1.555  25.205  0.00  0.00    +0.206 C 
BRANCH  21  22
ATOM     22  O   UNL     1       7.288   1.523  24.238  0.00  0.00    -0.284 OA
BRANCH  22  23
ATOM     23  P   UNL     1       6.125   0.294  24.594  0.00  0.00    +0.472 P 
ATOM     24  O   UNL     1       5.082  -0.805  24.914  0.00  0.00    -0.228 OA
BRANCH  23  25
ATOM     25  O   UNL     1       6.340  -0.176  23.042  0.00  0.00    -0.303 OA
ATOM     26  H   UNL     1       5.809   0.442  22.504  0.00  0.00    +0.222 HD
ENDBRANCH  23  25
BRANCH  23  27
ATOM     27  O   UNL     1       5.024   1.443  24.201  0.00  0.00    -0.303 OA
ATOM     28  H   UNL     1       5.374   2.340  24.337  0.00  0.00    +0.222 HD
ENDBRANCH  23  27
ENDBRANCH  22  23
ENDBRANCH  21  22
ENDBRANCH   4  21
TORSDOF 8
ENDMDL
MODEL 4
REMARK VINA RESULT:      -5.8      2.662      5.211
REMARK  Name = 
REMARK  8 active torsions:
REMARK  status: ('A' for Active; 'I' for Inactive)
REMARK    1  A    between atoms: N_6  and  C_10
REMARK    2  A    between atoms: C_13  and  C_15
REMARK    3  A    between atoms: C_15  and  O_16
REMARK    4  A    between atoms: O_16  and  P_17
REMARK    5  A    between atoms: P_17  and  O_18
REMARK    6  A    between atoms: P_17  and  O_19
REMARK    7  A    between atoms: C_21  and  O_23
REMARK    8  A    between atoms: C_24  and  O_26
REMARK                            x       y       z     vdW  Elec       q    Type
REMARK                         _______ _______ _______ _____ _____    ______ ____
ROOT
ATOM      1  C   UNL     1       8.395  -2.345  25.388  0.00  0.00    +0.255 C 
ATOM      2  C   UNL     1       9.587  -2.669  24.445  0.00  0.00    +0.195 C 
ATOM      3  C   UNL     1       9.222  -2.057  23.093  0.00  0.00    +0.178 C 
ATOM      4  C   UNL     1       7.796  -1.548  23.262  0.00  0.00    +0.178 C 
ATOM      5  O   UNL     1       7.621  -1.346  24.679  0.00  0.00    -0.346 OA
ENDROOT
BRANCH   1  13
ATOM      6  N   UNL     1       5.358  -6.746  26.747  0.00  0.00    -0.342 N 
ATOM      7  H   UNL     1       4.469  -6.858  26.270  0.00  0.00    +0.144 HD
ATOM      8  H   UNL     1       5.946  -7.574  26.733  0.00  0.00    +0.144 HD
ATOM      9  C   UNL     1       6.051  -5.578  26.546  0.00  0.00    +0.137 A 
ATOM     10  C   UNL     1       5.345  -4.321  26.157  0.00  0.00    +0.074 A 
ATOM     11 BR   UNL     1       3.498  -4.231  26.096  0.00  0.00    -0.045 Br
ATOM     12  C   UNL     1       6.150  -3.321  25.799  0.00  0.00    +0.112 A 
ATOM     13  N   UNL     1       7.529  -3.450  25.811  0.00  0.00    -0.269 N 
ATOM     14  C   UNL     1       8.115  -4.521  26.493  0.00  0.00    +0.352 A 
ATOM     15  O   UNL     1       9.269  -4.461  26.906  0.00  0.00    -0.244 OA
ATOM     16  N   UNL     1       7.341  -5.642  26.701  0.00  0.00    -0.177 NA
ENDBRANCH   1  13
BRANCH   2  17
ATOM     17  O   UNL     1       9.867  -4.050  24.245  0.00  0.00    -0.385 OA
ATOM     18  H   UNL     1       9.933  -4.188  23.282  0.00  0.00    +0.210 HD
ENDBRANCH   2  17
BRANCH   3  19
ATOM     19  O   UNL     1      10.125  -0.992  22.780  0.00  0.00    -0.386 OA
ATOM     20  H   UNL     1       9.909  -0.228  23.344  0.00  0.00    +0.210 HD
ENDBRANCH   3  19
BRANCH   4  21
ATOM     21  C   UNL     1       6.780  -2.553  22.698  0.00  0.00    +0.206 C 
BRANCH  21  22
ATOM     22  O   UNL     1       7.441  -3.741  22.243  0.00  0.00    -0.284 OA
BRANCH  22  23
ATOM     23  P   UNL     1       6.518  -5.163  22.584  0.00  0.00    +0.472 P 
ATOM     24  O   UNL     1       5.691  -6.437  22.887  0.00  0.00    -0.228 OA
BRANCH  23  25
ATOM     25  O   UNL     1       7.854  -5.683  23.374  0.00  0.00    -0.303 OA
ATOM     26  H   UNL     1       7.600  -6.529  23.789  0.00  0.00    +0.222 HD
ENDBRANCH  23  25
BRANCH  23  27
ATOM     27  O   UNL     1       7.058  -5.673  21.123  0.00  0.00    -0.303 OA
ATOM     28  H   UNL     1       7.649  -5.021  20.709  0.00  0.00    +0.222 HD
ENDBRANCH  23  27
ENDBRANCH  22  23
ENDBRANCH  21  22
ENDBRANCH   4  21
TORSDOF 8
ENDMDL
MODEL 5
REMARK VINA RESULT:      -5.8      2.435      3.721
REMARK  Name = 
REMARK  8 active torsions:
REMARK  status: ('A' for Active; 'I' for Inactive)
REMARK    1  A    between atoms: N_6  and  C_10
REMARK    2  A    between atoms: C_13  and  C_15
REMARK    3  A    between atoms: C_15  and  O_16
REMARK    4  A    between atoms: O_16  and  P_17
REMARK    5  A    between atoms: P_17  and  O_18
REMARK    6  A    between atoms: P_17  and  O_19
REMARK    7  A    between atoms: C_21  and  O_23
REMARK    8  A    between atoms: C_24  and  O_26
REMARK                            x       y       z     vdW  Elec       q    Type
REMARK                         _______ _______ _______ _____ _____    ______ ____
ROOT
ATOM      1  C   UNL     1       8.074  -2.881  26.358  0.00  0.00    +0.255 C 
ATOM      2  C   UNL     1       6.953  -3.836  26.854  0.00  0.00    +0.195 C 
ATOM      3  C   UNL     1       7.298  -5.209  26.280  0.00  0.00    +0.178 C 
ATOM      4  C   UNL     1       8.494  -4.968  25.367  0.00  0.00    +0.178 C 
ATOM      5  O   UNL     1       9.110  -3.756  25.848  0.00  0.00    -0.346 OA
ENDROOT
BRANCH   1  13
ATOM      6  N   UNL     1       6.390   0.777  22.585  0.00  0.00    -0.342 N 
ATOM      7  H   UNL     1       6.616   0.576  21.617  0.00  0.00    +0.144 HD
ATOM      8  H   UNL     1       5.412   0.998  22.750  0.00  0.00    +0.144 HD
ATOM      9  C   UNL     1       6.938  -0.030  23.552  0.00  0.00    +0.137 A 
ATOM     10  C   UNL     1       8.214  -0.766  23.307  0.00  0.00    +0.074 A 
ATOM     11 BR   UNL     1       9.205  -0.495  21.768  0.00  0.00    -0.045 Br
ATOM     12  C   UNL     1       8.525  -1.663  24.242  0.00  0.00    +0.112 A 
ATOM     13  N   UNL     1       7.727  -1.869  25.355  0.00  0.00    -0.269 N 
ATOM     14  C   UNL     1       6.744  -0.930  25.682  0.00  0.00    +0.352 A 
ATOM     15  O   UNL     1       6.324  -0.816  26.829  0.00  0.00    -0.244 OA
ATOM     16  N   UNL     1       6.277  -0.120  24.668  0.00  0.00    -0.177 NA
ENDBRANCH   1  13
BRANCH   2  17
ATOM     17  O   UNL     1       5.629  -3.506  26.450  0.00  0.00    -0.385 OA
ATOM     18  H   UNL     1       5.695  -3.111  25.561  0.00  0.00    +0.210 HD
ENDBRANCH   2  17
BRANCH   3  19
ATOM     19  O   UNL     1       7.622  -6.114  27.340  0.00  0.00    -0.386 OA
ATOM     20  H   UNL     1       8.571  -6.028  27.539  0.00  0.00    +0.210 HD
ENDBRANCH   3  19
BRANCH   4  21
ATOM     21  C   UNL     1       8.053  -4.841  23.901  0.00  0.00    +0.206 C 
BRANCH  21  22
ATOM     22  O   UNL     1       6.627  -4.932  23.790  0.00  0.00    -0.284 OA
BRANCH  22  23
ATOM     23  P   UNL     1       6.029  -4.054  22.425  0.00  0.00    +0.472 P 
ATOM     24  O   UNL     1       5.493  -3.269  21.203  0.00  0.00    -0.228 OA
BRANCH  23  25
ATOM     25  O   UNL     1       5.241  -3.135  23.527  0.00  0.00    -0.303 OA
ATOM     26  H   UNL     1       5.939  -2.681  24.036  0.00  0.00    +0.222 HD
ENDBRANCH  23  25
BRANCH  23  27
ATOM     27  O   UNL     1       4.861  -5.203  22.396  0.00  0.00    -0.303 OA
ATOM     28  H   UNL     1       5.041  -5.884  21.725  0.00  0.00    +0.222 HD
ENDBRANCH  23  27
ENDBRANCH  22  23
ENDBRANCH  21  22
ENDBRANCH   4  21
TORSDOF 8
ENDMDL
MODEL 6
REMARK VINA RESULT:      -5.7      1.995      3.410
REMARK  Name = 
REMARK  8 active torsions:
REMARK  status: ('A' for Active; 'I' for Inactive)
REMARK    1  A    between atoms: N_6  and  C_10
REMARK    2  A    between atoms: C_13  and  C_15
REMARK    3  A    between atoms: C_15  and  O_16
REMARK    4  A    between atoms: O_16  and  P_17
REMARK    5  A    between atoms: P_17  and  O_18
REMARK    6  A    between atoms: P_17  and  O_19
REMARK    7  A    between atoms: C_21  and  O_23
REMARK    8  A    between atoms: C_24  and  O_26
REMARK                            x       y       z     vdW  Elec       q    Type
REMARK                         _______ _______ _______ _____ _____    ______ ____
ROOT
ATOM      1  C   UNL     1       6.723  -3.293  22.663  0.00  0.00    +0.255 C 
ATOM      2  C   UNL     1       7.191  -4.775  22.681  0.00  0.00    +0.195 C 
ATOM      3  C   UNL     1       6.099  -5.543  23.424  0.00  0.00    +0.178 C 
ATOM      4  C   UNL     1       5.138  -4.475  23.930  0.00  0.00    +0.178 C 
ATOM      5  O   UNL     1       5.332  -3.338  23.064  0.00  0.00    -0.346 OA
ENDROOT
BRANCH   1  13
ATOM      6  N   UNL     1       9.750   0.053  25.840  0.00  0.00    -0.342 N 
ATOM      7  H   UNL     1       9.423   0.207  26.788  0.00  0.00    +0.144 HD
ATOM      8  H   UNL     1      10.726  -0.218  25.772  0.00  0.00    +0.144 HD
ATOM      9  C   UNL     1       8.929  -0.641  24.985  0.00  0.00    +0.137 A 
ATOM     10  C   UNL     1       7.450  -0.669  25.190  0.00  0.00    +0.074 A 
ATOM     11 BR   UNL     1       6.637   0.362  26.494  0.00  0.00    -0.045 Br
ATOM     12  C   UNL     1       6.799  -1.536  24.416  0.00  0.00    +0.112 A 
ATOM     13  N   UNL     1       7.456  -2.326  23.486  0.00  0.00    -0.269 N 
ATOM     14  C   UNL     1       8.769  -2.013  23.121  0.00  0.00    +0.352 A 
ATOM     15  O   UNL     1       9.235  -2.369  22.043  0.00  0.00    -0.244 OA
ATOM     16  N   UNL     1       9.516  -1.271  24.010  0.00  0.00    -0.177 NA
ENDBRANCH   1  13
BRANCH   2  17
ATOM     17  O   UNL     1       8.432  -5.029  23.331  0.00  0.00    -0.385 OA
ATOM     18  H   UNL     1       9.048  -4.328  23.046  0.00  0.00    +0.210 HD
ENDBRANCH   2  17
BRANCH   3  19
ATOM     19  O   UNL     1       5.450  -6.453  22.531  0.00  0.00    -0.386 OA
ATOM     20  H   UNL     1       5.715  -6.233  21.620  0.00  0.00    +0.210 HD
ENDBRANCH   3  19
BRANCH   4  21
ATOM     21  C   UNL     1       5.420  -4.129  25.400  0.00  0.00    +0.206 C 
BRANCH  21  22
ATOM     22  O   UNL     1       6.561  -4.851  25.881  0.00  0.00    -0.284 OA
BRANCH  22  23
ATOM     23  P   UNL     1       6.418  -5.237  27.561  0.00  0.00    +0.472 P 
ATOM     24  O   UNL     1       6.288  -5.583  29.065  0.00  0.00    -0.228 OA
BRANCH  23  25
ATOM     25  O   UNL     1       7.950  -5.797  27.428  0.00  0.00    -0.303 OA
ATOM     26  H   UNL     1       7.980  -6.275  26.577  0.00  0.00    +0.222 HD
ENDBRANCH  23  25
BRANCH  23  27
ATOM     27  O   UNL     1       5.750  -6.633  27.021  0.00  0.00    -0.303 OA
ATOM     28  H   UNL     1       5.315  -6.516  26.160  0.00  0.00    +0.222 HD
ENDBRANCH  23  27
ENDBRANCH  22  23
ENDBRANCH  21  22
ENDBRANCH   4  21
TORSDOF 8
ENDMDL
MODEL 7
REMARK VINA RESULT:      -5.6      4.981      7.467
REMARK  Name = 
REMARK  8 active torsions:
REMARK  status: ('A' for Active; 'I' for Inactive)
REMARK    1  A    between atoms: N_6  and  C_10
REMARK    2  A    between atoms: C_13  and  C_15
REMARK    3  A    between atoms: C_15  and  O_16
REMARK    4  A    between atoms: O_16  and  P_17
REMARK    5  A    between atoms: P_17  and  O_18
REMARK    6  A    between atoms: P_17  and  O_19
REMARK    7  A    between atoms: C_21  and  O_23
REMARK    8  A    between atoms: C_24  and  O_26
REMARK                            x       y       z     vdW  Elec       q    Type
REMARK                         _______ _______ _______ _____ _____    ______ ____
ROOT
ATOM      1  C   UNL     1       9.932   0.407  23.474  0.00  0.00    +0.255 C 
ATOM      2  C   UNL     1      10.155   1.464  22.356  0.00  0.00    +0.195 C 
ATOM      3  C   UNL     1       9.873   2.817  23.006  0.00  0.00    +0.178 C 
ATOM      4  C   UNL     1       9.359   2.486  24.402  0.00  0.00    +0.178 C 
ATOM      5  O   UNL     1       9.872   1.172  24.702  0.00  0.00    -0.346 OA
ENDROOT
BRANCH   1  13
ATOM      6  N   UNL     1       5.488  -2.771  22.701  0.00  0.00    -0.342 N 
ATOM      7  H   UNL     1       4.613  -2.444  23.097  0.00  0.00    +0.144 HD
ATOM      8  H   UNL     1       5.432  -3.031  21.721  0.00  0.00    +0.144 HD
ATOM      9  C   UNL     1       6.633  -2.083  23.019  0.00  0.00    +0.137 A 
ATOM     10  C   UNL     1       6.731  -1.296  24.284  0.00  0.00    +0.074 A 
ATOM     11 BR   UNL     1       5.392  -1.347  25.560  0.00  0.00    -0.045 Br
ATOM     12  C   UNL     1       7.811  -0.519  24.372  0.00  0.00    +0.112 A 
ATOM     13  N   UNL     1       8.765  -0.475  23.368  0.00  0.00    -0.269 N 
ATOM     14  C   UNL     1       8.778  -1.469  22.384  0.00  0.00    +0.352 A 
ATOM     15  O   UNL     1       9.799  -1.737  21.760  0.00  0.00    -0.244 OA
ATOM     16  N   UNL     1       7.602  -2.151  22.155  0.00  0.00    -0.177 NA
ENDBRANCH   1  13
BRANCH   2  17
ATOM     17  O   UNL     1       9.323   1.342  21.207  0.00  0.00    -0.385 OA
ATOM     18  H   UNL     1       9.348   2.202  20.748  0.00  0.00    +0.210 HD
ENDBRANCH   2  17
BRANCH   3  19
ATOM     19  O   UNL     1      11.074   3.593  23.060  0.00  0.00    -0.386 OA
ATOM     20  H   UNL     1      11.818   3.028  22.784  0.00  0.00    +0.210 HD
ENDBRANCH   3  19
BRANCH   4  21
ATOM     21  C   UNL     1       7.824   2.526  24.449  0.00  0.00    +0.206 C 
BRANCH  21  22
ATOM     22  O   UNL     1       7.326   3.698  23.793  0.00  0.00    -0.284 OA
BRANCH  22  23
ATOM     23  P   UNL     1       5.823   3.399  22.990  0.00  0.00    +0.472 P 
ATOM     24  O   UNL     1       4.478   3.133  22.270  0.00  0.00    -0.228 OA
BRANCH  23  25
ATOM     25  O   UNL     1       6.548   2.047  22.419  0.00  0.00    -0.303 OA
ATOM     26  H   UNL     1       7.106   2.344  21.674  0.00  0.00    +0.222 HD
ENDBRANCH  23  25
BRANCH  23  27
ATOM     27  O   UNL     1       6.444   4.354  21.812  0.00  0.00    -0.303 OA
ATOM     28  H   UNL     1       6.225   4.022  20.925  0.00  0.00    +0.222 HD
ENDBRANCH  23  27
ENDBRANCH  22  23
ENDBRANCH  21  22
ENDBRANCH   4  21
TORSDOF 8
ENDMDL
MODEL 8
REMARK VINA RESULT:      -5.5      2.627      4.700
REMARK  Name = 
REMARK  8 active torsions:
REMARK  status: ('A' for Active; 'I' for Inactive)
REMARK    1  A    between atoms: N_6  and  C_10
REMARK    2  A    between atoms: C_13  and  C_15
REMARK    3  A    between atoms: C_15  and  O_16
REMARK    4  A    between atoms: O_16  and  P_17
REMARK    5  A    between atoms: P_17  and  O_18
REMARK    6  A    between atoms: P_17  and  O_19
REMARK    7  A    between atoms: C_21  and  O_23
REMARK    8  A    between atoms: C_24  and  O_26
REMARK                            x       y       z     vdW  Elec       q    Type
REMARK                         _______ _______ _______ _____ _____    ______ ____
ROOT
ATOM      1  C   UNL     1       6.981  -1.122  24.073  0.00  0.00    +0.255 C 
ATOM      2  C   UNL     1       7.557  -0.789  25.477  0.00  0.00    +0.195 C 
ATOM      3  C   UNL     1       9.075  -0.897  25.336  0.00  0.00    +0.178 C 
ATOM      4  C   UNL     1       9.304  -1.427  23.926  0.00  0.00    +0.178 C 
ATOM      5  O   UNL     1       8.121  -1.072  23.181  0.00  0.00    -0.346 OA
ENDROOT
BRANCH   1  13
ATOM      6  N   UNL     1       4.338  -5.960  23.830  0.00  0.00    -0.342 N 
ATOM      7  H   UNL     1       4.853  -6.748  23.451  0.00  0.00    +0.144 HD
ATOM      8  H   UNL     1       3.895  -6.142  24.726  0.00  0.00    +0.144 HD
ATOM      9  C   UNL     1       4.916  -4.717  23.749  0.00  0.00    +0.137 A 
ATOM     10  C   UNL     1       5.922  -4.404  22.690  0.00  0.00    +0.074 A 
ATOM     11 BR   UNL     1       6.310  -5.608  21.340  0.00  0.00    -0.045 Br
ATOM     12  C   UNL     1       6.548  -3.238  22.848  0.00  0.00    +0.112 A 
ATOM     13  N   UNL     1       6.261  -2.389  23.904  0.00  0.00    -0.269 N 
ATOM     14  C   UNL     1       5.096  -2.588  24.652  0.00  0.00    +0.352 A 
ATOM     15  O   UNL     1       4.573  -1.671  25.277  0.00  0.00    -0.244 OA
ATOM     16  N   UNL     1       4.546  -3.852  24.646  0.00  0.00    -0.177 NA
ENDBRANCH   1  13
BRANCH   2  17
ATOM     17  O   UNL     1       7.149  -1.645  26.538  0.00  0.00    -0.385 OA
ATOM     18  H   UNL     1       6.184  -1.764  26.450  0.00  0.00    +0.210 HD
ENDBRANCH   2  17
BRANCH   3  19
ATOM     19  O   UNL     1       9.674   0.391  25.516  0.00  0.00    -0.386 OA
ATOM     20  H   UNL     1      10.594   0.265  25.809  0.00  0.00    +0.210 HD
ENDBRANCH   3  19
BRANCH   4  21
ATOM     21  C   UNL     1       9.539  -2.945  23.939  0.00  0.00    +0.206 C 
BRANCH  21  22
ATOM     22  O   UNL     1       9.695  -3.424  25.280  0.00  0.00    -0.284 OA
BRANCH  22  23
ATOM     23  P   UNL     1       8.637  -4.749  25.620  0.00  0.00    +0.472 P 
ATOM     24  O   UNL     1       7.691  -5.937  25.922  0.00  0.00    -0.228 OA
BRANCH  23  25
ATOM     25  O   UNL     1       9.394  -4.811  27.070  0.00  0.00    -0.303 OA
ATOM     26  H   UNL     1       8.890  -5.458  27.600  0.00  0.00    +0.222 HD
ENDBRANCH  23  25
BRANCH  23  27
ATOM     27  O   UNL     1       9.781  -5.650  24.868  0.00  0.00    -0.303 OA
ATOM     28  H   UNL     1       9.659  -6.600  25.034  0.00  0.00    +0.222 HD
ENDBRANCH  23  27
ENDBRANCH  22  23
ENDBRANCH  21  22
ENDBRANCH   4  21
TORSDOF 8
ENDMDL
MODEL 9
REMARK VINA RESULT:      -5.4      2.951      5.349
REMARK  Name = 
REMARK  8 active torsions:
REMARK  status: ('A' for Active; 'I' for Inactive)
REMARK    1  A    between atoms: N_6  and  C_10
REMARK    2  A    between atoms: C_13  and  C_15
REMARK    3  A    between atoms: C_15  and  O_16
REMARK    4  A    between atoms: O_16  and  P_17
REMARK    5  A    between atoms: P_17  and  O_18
REMARK    6  A    between atoms: P_17  and  O_19
REMARK    7  A    between atoms: C_21  and  O_23
REMARK    8  A    between atoms: C_24  and  O_26
REMARK                            x       y       z     vdW  Elec       q    Type
REMARK                         _______ _______ _______ _____ _____    ______ ____
ROOT
ATOM      1  C   UNL     1       7.725  -2.985  25.290  0.00  0.00    +0.255 C 
ATOM      2  C   UNL     1       8.411  -3.512  23.999  0.00  0.00    +0.195 C 
ATOM      3  C   UNL     1       7.459  -3.166  22.855  0.00  0.00    +0.178 C 
ATOM      4  C   UNL     1       6.216  -2.602  23.532  0.00  0.00    +0.178 C 
ATOM      5  O   UNL     1       6.658  -2.125  24.820  0.00  0.00    -0.346 OA
ENDROOT
BRANCH   1  13
ATOM      6  N   UNL     1       5.887  -6.970  28.635  0.00  0.00    -0.342 N 
ATOM      7  H   UNL     1       4.898  -7.191  28.587  0.00  0.00    +0.144 HD
ATOM      8  H   UNL     1       6.500  -7.777  28.559  0.00  0.00    +0.144 HD
ATOM      9  C   UNL     1       6.333  -5.877  27.934  0.00  0.00    +0.137 A 
ATOM     10  C   UNL     1       5.416  -4.744  27.608  0.00  0.00    +0.074 A 
ATOM     11 BR   UNL     1       3.691  -4.678  28.273  0.00  0.00    -0.045 Br
ATOM     12  C   UNL     1       5.920  -3.850  26.758  0.00  0.00    +0.112 A 
ATOM     13  N   UNL     1       7.201  -3.967  26.245  0.00  0.00    -0.269 N 
ATOM     14  C   UNL     1       8.105  -4.852  26.841  0.00  0.00    +0.352 A 
ATOM     15  O   UNL     1       9.317  -4.695  26.736  0.00  0.00    -0.244 OA
ATOM     16  N   UNL     1       7.582  -5.898  27.570  0.00  0.00    -0.177 NA
ENDBRANCH   1  13
BRANCH   2  17
ATOM     17  O   UNL     1       8.666  -4.912  23.956  0.00  0.00    -0.385 OA
ATOM     18  H   UNL     1       8.198  -5.260  23.174  0.00  0.00    +0.210 HD
ENDBRANCH   2  17
BRANCH   3  19
ATOM     19  O   UNL     1       8.067  -2.202  21.990  0.00  0.00    -0.386 OA
ATOM     20  H   UNL     1       7.499  -2.089  21.207  0.00  0.00    +0.210 HD
ENDBRANCH   3  19
BRANCH   4  21
ATOM     21  C   UNL     1       5.124  -3.674  23.665  0.00  0.00    +0.206 C 
BRANCH  21  22
ATOM     22  O   UNL     1       5.577  -4.927  23.135  0.00  0.00    -0.284 OA
BRANCH  22  23
ATOM     23  P   UNL     1       4.733  -6.265  23.835  0.00  0.00    +0.472 P 
ATOM     24  O   UNL     1       3.978  -7.462  24.463  0.00  0.00    -0.228 OA
BRANCH  23  25
ATOM     25  O   UNL     1       3.926  -6.331  22.413  0.00  0.00    -0.303 OA
ATOM     26  H   UNL     1       3.461  -5.475  22.337  0.00  0.00    +0.222 HD
ENDBRANCH  23  25
BRANCH  23  27
ATOM     27  O   UNL     1       3.748  -5.114  24.460  0.00  0.00    -0.303 OA
ATOM     28  H   UNL     1       4.233  -4.298  24.668  0.00  0.00    +0.222 HD
ENDBRANCH  23  27
ENDBRANCH  22  23
ENDBRANCH  21  22
ENDBRANCH   4  21
TORSDOF 8
ENDMDL
