MODEL 1
REMARK VINA RESULT:      -8.4      0.000      0.000
REMARK  Name = 
REMARK  6 active torsions:
REMARK  status: ('A' for Active; 'I' for Inactive)
REMARK    1  A    between atoms: C_1  and  O_2
REMARK    2  A    between atoms: C_1  and  C_21
REMARK    3  A    between atoms: O_2  and  C_3
REMARK    4  A    between atoms: C_6  and  C_9
REMARK    5  A    between atoms: C_13  and  C_14
REMARK    6  A    between atoms: C_14  and  C_15
REMARK                            x       y       z     vdW  Elec       q    Type
REMARK                         _______ _______ _______ _____ _____    ______ ____
ROOT
ATOM      1  C   UNL     1       9.397  -1.786  24.524  0.00  0.00    +0.121 A 
ATOM      2  C   UNL     1       8.715  -1.495  25.701  0.00  0.00    +0.046 A 
ATOM      3  C   UNL     1       8.046  -2.489  26.420  0.00  0.00    +0.013 A 
ATOM      4  C   UNL     1       8.025  -3.811  25.982  0.00  0.00    +0.003 A 
ATOM      5  C   UNL     1       8.804  -4.117  24.842  0.00  0.00    +0.013 A 
ATOM      6  C   UNL     1       9.483  -3.112  24.113  0.00  0.00    +0.046 A 
ENDROOT
BRANCH   4   7
ATOM      7  C   UNL     1       7.108  -4.803  26.595  0.00  0.00    +0.096 A 
ATOM      8  C   UNL     1       5.764  -5.225  26.235  0.00  0.00    +0.002 A 
ATOM      9  C   UNL     1       5.507  -6.294  27.073  0.00  0.00    +0.109 A 
ATOM     10  N   UNL     1       6.583  -6.420  27.888  0.00  0.00    -0.284 N 
ATOM     11  H   UNL     1       6.719  -7.082  28.645  0.00  0.00    +0.188 HD
ATOM     12  N   UNL     1       7.550  -5.535  27.637  0.00  0.00    -0.174 NA
BRANCH   8  13
ATOM     13  C   UNL     1       4.746  -4.638  25.306  0.00  0.00    +0.074 C 
BRANCH  13  14
ATOM     14  C   UNL     1       5.176  -4.627  23.851  0.00  0.00    -0.040 A 
ATOM     15  C   UNL     1       5.322  -3.358  23.258  0.00  0.00    +0.023 A 
ATOM     16  C   UNL     1       5.671  -3.252  21.916  0.00  0.00    +0.111 A 
ATOM     17  N   UNL     1       5.932  -4.317  21.137  0.00  0.00    -0.263 NA
ATOM     18  C   UNL     1       5.847  -5.529  21.725  0.00  0.00    +0.111 A 
ATOM     19  C   UNL     1       5.485  -5.735  23.058  0.00  0.00    +0.023 A 
ENDBRANCH  13  14
ENDBRANCH   8  13
ENDBRANCH   4   7
BRANCH   1  20
ATOM     20  O   UNL     1       9.974  -0.698  23.937  0.00  0.00    -0.486 OA
BRANCH  20  21
ATOM     21  C   UNL     1       9.224   0.034  22.962  0.00  0.00    +0.284 C 
BRANCH  21  22
ATOM     22  C   UNL     1       9.329   1.521  23.297  0.00  0.00    +0.079 A 
ATOM     23  C   UNL     1       8.216   2.171  23.819  0.00  0.00    +0.027 A 
ATOM     24  C   UNL     1       8.316   3.509  24.181  0.00  0.00    +0.012 A 
ATOM     25  C   UNL     1       9.527   4.187  24.021  0.00  0.00    +0.000 A 
ATOM     26  C   UNL     1      10.610   3.478  23.460  0.00  0.00    +0.071 A 
ATOM     27  C   UNL     1      11.801   4.183  23.285  0.00  0.00    +0.028 A 
ATOM     28  C   UNL     1      11.945   5.524  23.673  0.00  0.00    +0.002 A 
ATOM     29  C   UNL     1      10.874   6.198  24.247  0.00  0.00    +0.001 A 
ATOM     30  C   UNL     1       9.664   5.533  24.411  0.00  0.00    +0.010 A 
ATOM     31  N   UNL     1      10.515   2.169  23.111  0.00  0.00    -0.248 NA
ENDBRANCH  21  22
ENDBRANCH  20  21
ENDBRANCH   1  20
TORSDOF 6
ENDMDL
MODEL 2
REMARK VINA RESULT:      -8.3      1.372      2.066
REMARK  Name = 
REMARK  6 active torsions:
REMARK  status: ('A' for Active; 'I' for Inactive)
REMARK    1  A    between atoms: C_1  and  O_2
REMARK    2  A    between atoms: C_1  and  C_21
REMARK    3  A    between atoms: O_2  and  C_3
REMARK    4  A    between atoms: C_6  and  C_9
REMARK    5  A    between atoms: C_13  and  C_14
REMARK    6  A    between atoms: C_14  and  C_15
REMARK                            x       y       z     vdW  Elec       q    Type
REMARK                         _______ _______ _______ _____ _____    ______ ____
ROOT
ATOM      1  C   UNL     1       9.458  -3.382  24.685  0.00  0.00    +0.121 A 
ATOM      2  C   UNL     1       8.506  -2.727  25.460  0.00  0.00    +0.046 A 
ATOM      3  C   UNL     1       7.669  -3.428  26.333  0.00  0.00    +0.013 A 
ATOM      4  C   UNL     1       7.746  -4.814  26.454  0.00  0.00    +0.003 A 
ATOM      5  C   UNL     1       8.783  -5.459  25.741  0.00  0.00    +0.013 A 
ATOM      6  C   UNL     1       9.632  -4.750  24.858  0.00  0.00    +0.046 A 
ENDROOT
BRANCH   4   7
ATOM      7  C   UNL     1       6.697  -5.575  27.174  0.00  0.00    +0.096 A 
ATOM      8  C   UNL     1       5.278  -5.752  26.904  0.00  0.00    +0.002 A 
ATOM      9  C   UNL     1       4.874  -6.703  27.823  0.00  0.00    +0.109 A 
ATOM     10  N   UNL     1       5.952  -6.985  28.595  0.00  0.00    -0.284 N 
ATOM     11  H   UNL     1       6.005  -7.617  29.387  0.00  0.00    +0.188 HD
ATOM     12  N   UNL     1       7.053  -6.318  28.242  0.00  0.00    -0.174 NA
BRANCH   8  13
ATOM     13  C   UNL     1       4.337  -5.035  25.987  0.00  0.00    +0.074 C 
BRANCH  13  14
ATOM     14  C   UNL     1       4.810  -4.977  24.545  0.00  0.00    -0.040 A 
ATOM     15  C   UNL     1       4.881  -3.695  23.968  0.00  0.00    +0.023 A 
ATOM     16  C   UNL     1       5.263  -3.549  22.639  0.00  0.00    +0.111 A 
ATOM     17  N   UNL     1       5.623  -4.584  21.859  0.00  0.00    -0.263 NA
ATOM     18  C   UNL     1       5.608  -5.806  22.434  0.00  0.00    +0.111 A 
ATOM     19  C   UNL     1       5.222  -6.051  23.753  0.00  0.00    +0.023 A 
ENDBRANCH  13  14
ENDBRANCH   8  13
ENDBRANCH   4   7
BRANCH   1  20
ATOM     20  O   UNL     1      10.173  -2.551  23.873  0.00  0.00    -0.486 OA
BRANCH  20  21
ATOM     21  C   UNL     1       9.489  -1.870  22.816  0.00  0.00    +0.284 C 
BRANCH  21  22
ATOM     22  C   UNL     1       9.483  -0.375  23.137  0.00  0.00    +0.079 A 
ATOM     23  C   UNL     1      10.525   0.152  23.893  0.00  0.00    +0.027 A 
ATOM     24  C   UNL     1      10.560   1.519  24.143  0.00  0.00    +0.012 A 
ATOM     25  C   UNL     1       9.556   2.347  23.636  0.00  0.00    +0.000 A 
ATOM     26  C   UNL     1       8.513   1.746  22.903  0.00  0.00    +0.071 A 
ATOM     27  C   UNL     1       7.507   2.590  22.430  0.00  0.00    +0.028 A 
ATOM     28  C   UNL     1       7.533   3.978  22.636  0.00  0.00    +0.002 A 
ATOM     29  C   UNL     1       8.582   4.555  23.339  0.00  0.00    +0.001 A 
ATOM     30  C   UNL     1       9.587   3.739  23.848  0.00  0.00    +0.010 A 
ATOM     31  N   UNL     1       8.481   0.411  22.652  0.00  0.00    -0.248 NA
ENDBRANCH  21  22
ENDBRANCH  20  21
ENDBRANCH   1  20
TORSDOF 6
ENDMDL
MODEL 3
REMARK VINA RESULT:      -8.3      1.850      8.984
REMARK  Name = 
REMARK  6 active torsions:
REMARK  status: ('A' for Active; 'I' for Inactive)
REMARK    1  A    between atoms: C_1  and  O_2
REMARK    2  A    between atoms: C_1  and  C_21
REMARK    3  A    between atoms: O_2  and  C_3
REMARK    4  A    between atoms: C_6  and  C_9
REMARK    5  A    between atoms: C_13  and  C_14
REMARK    6  A    between atoms: C_14  and  C_15
REMARK                            x       y       z     vdW  Elec       q    Type
REMARK                         _______ _______ _______ _____ _____    ______ ____
ROOT
ATOM      1  C   UNL     1       9.729  -0.493  23.055  0.00  0.00    +0.121 A 
ATOM      2  C   UNL     1       9.716   0.356  21.953  0.00  0.00    +0.046 A 
ATOM      3  C   UNL     1      10.095   1.697  22.061  0.00  0.00    +0.013 A 
ATOM      4  C   UNL     1      10.492   2.241  23.280  0.00  0.00    +0.003 A 
ATOM      5  C   UNL     1      10.601   1.348  24.371  0.00  0.00    +0.013 A 
ATOM      6  C   UNL     1      10.219  -0.010  24.263  0.00  0.00    +0.046 A 
ENDROOT
BRANCH   4   7
ATOM      7  C   UNL     1      10.641   3.707  23.447  0.00  0.00    +0.096 A 
ATOM      8  C   UNL     1       9.679   4.740  23.799  0.00  0.00    +0.002 A 
ATOM      9  C   UNL     1      10.447   5.877  23.967  0.00  0.00    +0.109 A 
ATOM     10  N   UNL     1      11.723   5.535  23.665  0.00  0.00    -0.284 N 
ATOM     11  H   UNL     1      12.543   6.133  23.651  0.00  0.00    +0.188 HD
ATOM     12  N   UNL     1      11.870   4.250  23.337  0.00  0.00    -0.174 NA
BRANCH   8  13
ATOM     13  C   UNL     1       8.182   4.736  23.853  0.00  0.00    +0.074 C 
BRANCH  13  14
ATOM     14  C   UNL     1       7.589   3.430  24.349  0.00  0.00    -0.040 A 
ATOM     15  C   UNL     1       7.742   3.163  25.723  0.00  0.00    +0.023 A 
ATOM     16  C   UNL     1       7.268   1.970  26.258  0.00  0.00    +0.111 A 
ATOM     17  N   UNL     1       6.611   1.048  25.532  0.00  0.00    -0.263 NA
ATOM     18  C   UNL     1       6.416   1.335  24.227  0.00  0.00    +0.111 A 
ATOM     19  C   UNL     1       6.871   2.495  23.599  0.00  0.00    +0.023 A 
ENDBRANCH  13  14
ENDBRANCH   8  13
ENDBRANCH   4   7
BRANCH   1  20
ATOM     20  O   UNL     1       9.309  -1.761  22.779  0.00  0.00    -0.486 OA
BRANCH  20  21
ATOM     21  C   UNL     1       9.503  -2.778  23.769  0.00  0.00    +0.284 C 
BRANCH  21  22
ATOM     22  C   UNL     1       8.259  -3.667  23.790  0.00  0.00    +0.079 A 
ATOM     23  C   UNL     1       7.611  -3.940  22.590  0.00  0.00    +0.027 A 
ATOM     24  C   UNL     1       6.513  -4.793  22.589  0.00  0.00    +0.012 A 
ATOM     25  C   UNL     1       6.073  -5.366  23.784  0.00  0.00    +0.000 A 
ATOM     26  C   UNL     1       6.757  -5.026  24.969  0.00  0.00    +0.071 A 
ATOM     27  C   UNL     1       6.283  -5.590  26.154  0.00  0.00    +0.028 A 
ATOM     28  C   UNL     1       5.200  -6.482  26.181  0.00  0.00    +0.002 A 
ATOM     29  C   UNL     1       4.555  -6.825  25.000  0.00  0.00    +0.001 A 
ATOM     30  C   UNL     1       4.985  -6.259  23.803  0.00  0.00    +0.010 A 
ATOM     31  N   UNL     1       7.834  -4.198  24.971  0.00  0.00    -0.248 NA
ENDBRANCH  21  22
ENDBRANCH  20  21
ENDBRANCH   1  20
TORSDOF 6
ENDMDL
MODEL 4
REMARK VINA RESULT:      -8.0      1.990      8.928
REMARK  Name = 
REMARK  6 active torsions:
REMARK  status: ('A' for Active; 'I' for Inactive)
REMARK    1  A    between atoms: C_1  and  O_2
REMARK    2  A    between atoms: C_1  and  C_21
REMARK    3  A    between atoms: O_2  and  C_3
REMARK    4  A    between atoms: C_6  and  C_9
REMARK    5  A    between atoms: C_13  and  C_14
REMARK    6  A    between atoms: C_14  and  C_15
REMARK                            x       y       z     vdW  Elec       q    Type
REMARK                         _______ _______ _______ _____ _____    ______ ____
ROOT
ATOM      1  C   UNL     1       9.944  -0.440  22.767  0.00  0.00    +0.121 A 
ATOM      2  C   UNL     1      10.327   0.040  24.015  0.00  0.00    +0.046 A 
ATOM      3  C   UNL     1      10.484   1.408  24.254  0.00  0.00    +0.013 A 
ATOM      4  C   UNL     1      10.275   2.347  23.247  0.00  0.00    +0.003 A 
ATOM      5  C   UNL     1       9.787   1.860  22.012  0.00  0.00    +0.013 A 
ATOM      6  C   UNL     1       9.626   0.475  21.769  0.00  0.00    +0.046 A 
ENDROOT
BRANCH   4   7
ATOM      7  C   UNL     1      10.690   3.760  23.425  0.00  0.00    +0.096 A 
ATOM      8  C   UNL     1       9.936   4.945  23.805  0.00  0.00    +0.002 A 
ATOM      9  C   UNL     1      10.901   5.923  23.969  0.00  0.00    +0.109 A 
ATOM     10  N   UNL     1      12.088   5.360  23.637  0.00  0.00    -0.284 N 
ATOM     11  H   UNL     1      13.002   5.800  23.613  0.00  0.00    +0.188 HD
ATOM     12  N   UNL     1      11.994   4.074  23.295  0.00  0.00    -0.174 NA
BRANCH   8  13
ATOM     13  C   UNL     1       8.465   5.211  23.890  0.00  0.00    +0.074 C 
BRANCH  13  14
ATOM     14  C   UNL     1       7.670   4.076  24.510  0.00  0.00    -0.040 A 
ATOM     15  C   UNL     1       6.753   3.428  23.661  0.00  0.00    +0.023 A 
ATOM     16  C   UNL     1       5.950   2.404  24.154  0.00  0.00    +0.111 A 
ATOM     17  N   UNL     1       6.030   1.950  25.417  0.00  0.00    -0.263 NA
ATOM     18  C   UNL     1       6.952   2.537  26.211  0.00  0.00    +0.111 A 
ATOM     19  C   UNL     1       7.787   3.581  25.811  0.00  0.00    +0.023 A 
ENDBRANCH  13  14
ENDBRANCH   8  13
ENDBRANCH   4   7
BRANCH   1  20
ATOM     20  O   UNL     1       9.859  -1.800  22.701  0.00  0.00    -0.486 OA
BRANCH  20  21
ATOM     21  C   UNL     1      10.109  -2.561  23.888  0.00  0.00    +0.284 C 
BRANCH  21  22
ATOM     22  C   UNL     1       8.906  -3.471  24.133  0.00  0.00    +0.079 A 
ATOM     23  C   UNL     1       8.680  -3.951  25.419  0.00  0.00    +0.027 A 
ATOM     24  C   UNL     1       7.557  -4.732  25.666  0.00  0.00    +0.012 A 
ATOM     25  C   UNL     1       6.669  -5.026  24.629  0.00  0.00    +0.000 A 
ATOM     26  C   UNL     1       6.971  -4.532  23.343  0.00  0.00    +0.071 A 
ATOM     27  C   UNL     1       6.083  -4.861  22.318  0.00  0.00    +0.028 A 
ATOM     28  C   UNL     1       4.923  -5.617  22.543  0.00  0.00    +0.002 A 
ATOM     29  C   UNL     1       4.630  -6.074  23.821  0.00  0.00    +0.001 A 
ATOM     30  C   UNL     1       5.508  -5.787  24.861  0.00  0.00    +0.010 A 
ATOM     31  N   UNL     1       8.064  -3.763  23.102  0.00  0.00    -0.248 NA
ENDBRANCH  21  22
ENDBRANCH  20  21
ENDBRANCH   1  20
TORSDOF 6
ENDMDL
MODEL 5
REMARK VINA RESULT:      -7.8      2.077      3.684
REMARK  Name = 
REMARK  6 active torsions:
REMARK  status: ('A' for Active; 'I' for Inactive)
REMARK    1  A    between atoms: C_1  and  O_2
REMARK    2  A    between atoms: C_1  and  C_21
REMARK    3  A    between atoms: O_2  and  C_3
REMARK    4  A    between atoms: C_6  and  C_9
REMARK    5  A    between atoms: C_13  and  C_14
REMARK    6  A    between atoms: C_14  and  C_15
REMARK                            x       y       z     vdW  Elec       q    Type
REMARK                         _______ _______ _______ _____ _____    ______ ____
ROOT
ATOM      1  C   UNL     1       7.231  -3.096  22.489  0.00  0.00    +0.121 A 
ATOM      2  C   UNL     1       7.738  -4.371  22.719  0.00  0.00    +0.046 A 
ATOM      3  C   UNL     1       6.974  -5.356  23.350  0.00  0.00    +0.013 A 
ATOM      4  C   UNL     1       5.676  -5.099  23.784  0.00  0.00    +0.003 A 
ATOM      5  C   UNL     1       5.132  -3.835  23.456  0.00  0.00    +0.013 A 
ATOM      6  C   UNL     1       5.905  -2.837  22.816  0.00  0.00    +0.046 A 
ENDROOT
BRANCH   4   7
ATOM      7  C   UNL     1       4.967  -6.050  24.675  0.00  0.00    +0.096 A 
ATOM      8  C   UNL     1       4.753  -6.045  26.114  0.00  0.00    +0.002 A 
ATOM      9  C   UNL     1       3.880  -7.095  26.331  0.00  0.00    +0.109 A 
ATOM     10  N   UNL     1       3.677  -7.690  25.130  0.00  0.00    -0.284 N 
ATOM     11  H   UNL     1       3.117  -8.511  24.926  0.00  0.00    +0.188 HD
ATOM     12  N   UNL     1       4.323  -7.098  24.123  0.00  0.00    -0.174 NA
BRANCH   8  13
ATOM     13  C   UNL     1       5.378  -5.247  27.216  0.00  0.00    +0.074 C 
BRANCH  13  14
ATOM     14  C   UNL     1       6.708  -4.619  26.842  0.00  0.00    -0.040 A 
ATOM     15  C   UNL     1       6.698  -3.229  26.625  0.00  0.00    +0.023 A 
ATOM     16  C   UNL     1       7.862  -2.575  26.236  0.00  0.00    +0.111 A 
ATOM     17  N   UNL     1       9.044  -3.199  26.095  0.00  0.00    -0.263 NA
ATOM     18  C   UNL     1       9.062  -4.523  26.360  0.00  0.00    +0.111 A 
ATOM     19  C   UNL     1       7.942  -5.267  26.737  0.00  0.00    +0.023 A 
ENDBRANCH  13  14
ENDBRANCH   8  13
ENDBRANCH   4   7
BRANCH   1  20
ATOM     20  O   UNL     1       8.115  -2.252  21.884  0.00  0.00    -0.486 OA
BRANCH  20  21
ATOM     21  C   UNL     1       9.309  -1.889  22.589  0.00  0.00    +0.284 C 
BRANCH  21  22
ATOM     22  C   UNL     1       9.282  -0.380  22.827  0.00  0.00    +0.079 A 
ATOM     23  C   UNL     1       9.824   0.461  21.860  0.00  0.00    +0.027 A 
ATOM     24  C   UNL     1       9.754   1.837  22.038  0.00  0.00    +0.012 A 
ATOM     25  C   UNL     1       9.143   2.363  23.179  0.00  0.00    +0.000 A 
ATOM     26  C   UNL     1       8.640   1.457  24.135  0.00  0.00    +0.071 A 
ATOM     27  C   UNL     1       8.058   2.006  25.278  0.00  0.00    +0.028 A 
ATOM     28  C   UNL     1       7.941   3.391  25.471  0.00  0.00    +0.002 A 
ATOM     29  C   UNL     1       8.421   4.268  24.507  0.00  0.00    +0.001 A 
ATOM     30  C   UNL     1       9.031   3.754  23.366  0.00  0.00    +0.010 A 
ATOM     31  N   UNL     1       8.701   0.111  23.958  0.00  0.00    -0.248 NA
ENDBRANCH  21  22
ENDBRANCH  20  21
ENDBRANCH   1  20
TORSDOF 6
ENDMDL
MODEL 6
REMARK VINA RESULT:      -7.7      2.443      3.794
REMARK  Name = 
REMARK  6 active torsions:
REMARK  status: ('A' for Active; 'I' for Inactive)
REMARK    1  A    between atoms: C_1  and  O_2
REMARK    2  A    between atoms: C_1  and  C_21
REMARK    3  A    between atoms: O_2  and  C_3
REMARK    4  A    between atoms: C_6  and  C_9
REMARK    5  A    between atoms: C_13  and  C_14
REMARK    6  A    between atoms: C_14  and  C_15
REMARK                            x       y       z     vdW  Elec       q    Type
REMARK                         _______ _______ _______ _____ _____    ______ ____
ROOT
ATOM      1  C   UNL     1       7.716  -4.829  24.469  0.00  0.00    +0.121 A 
ATOM      2  C   UNL     1       8.080  -5.013  25.799  0.00  0.00    +0.046 A 
ATOM      3  C   UNL     1       7.210  -5.608  26.717  0.00  0.00    +0.013 A 
ATOM      4  C   UNL     1       5.937  -6.030  26.340  0.00  0.00    +0.003 A 
ATOM      5  C   UNL     1       5.614  -5.933  24.967  0.00  0.00    +0.013 A 
ATOM      6  C   UNL     1       6.495  -5.333  24.035  0.00  0.00    +0.046 A 
ENDROOT
BRANCH   4   7
ATOM      7  C   UNL     1       4.930  -6.416  27.358  0.00  0.00    +0.096 A 
ATOM      8  C   UNL     1       3.496  -6.184  27.431  0.00  0.00    +0.002 A 
ATOM      9  C   UNL     1       3.086  -6.930  28.521  0.00  0.00    +0.109 A 
ATOM     10  N   UNL     1       4.201  -7.476  29.063  0.00  0.00    -0.284 N 
ATOM     11  H   UNL     1       4.273  -8.057  29.892  0.00  0.00    +0.188 HD
ATOM     12  N   UNL     1       5.320  -7.178  28.400  0.00  0.00    -0.174 NA
BRANCH   8  13
ATOM     13  C   UNL     1       2.590  -5.269  26.666  0.00  0.00    +0.074 C 
BRANCH  13  14
ATOM     14  C   UNL     1       2.149  -5.822  25.324  0.00  0.00    -0.040 A 
ATOM     15  C   UNL     1       1.689  -4.878  24.386  0.00  0.00    +0.023 A 
ATOM     16  C   UNL     1       1.225  -5.298  23.144  0.00  0.00    +0.111 A 
ATOM     17  N   UNL     1       1.230  -6.585  22.754  0.00  0.00    -0.263 NA
ATOM     18  C   UNL     1       1.725  -7.481  23.635  0.00  0.00    +0.111 A 
ATOM     19  C   UNL     1       2.196  -7.155  24.909  0.00  0.00    +0.023 A 
ENDBRANCH  13  14
ENDBRANCH   8  13
ENDBRANCH   4   7
BRANCH   1  20
ATOM     20  O   UNL     1       8.673  -4.215  23.715  0.00  0.00    -0.486 OA
BRANCH  20  21
ATOM     21  C   UNL     1       9.662  -3.419  24.378  0.00  0.00    +0.284 C 
BRANCH  21  22
ATOM     22  C   UNL     1       9.762  -2.079  23.650  0.00  0.00    +0.079 A 
ATOM     23  C   UNL     1       9.368  -2.009  22.318  0.00  0.00    +0.027 A 
ATOM     24  C   UNL     1       9.401  -0.784  21.663  0.00  0.00    +0.012 A 
ATOM     25  C   UNL     1       9.825   0.361  22.342  0.00  0.00    +0.000 A 
ATOM     26  C   UNL     1      10.238   0.216  23.683  0.00  0.00    +0.071 A 
ATOM     27  C   UNL     1      10.683   1.368  24.332  0.00  0.00    +0.028 A 
ATOM     28  C   UNL     1      10.695   2.625  23.709  0.00  0.00    +0.002 A 
ATOM     29  C   UNL     1      10.261   2.752  22.396  0.00  0.00    +0.001 A 
ATOM     30  C   UNL     1       9.836   1.619  21.710  0.00  0.00    +0.010 A 
ATOM     31  N   UNL     1      10.201  -0.979  24.326  0.00  0.00    -0.248 NA
ENDBRANCH  21  22
ENDBRANCH  20  21
ENDBRANCH   1  20
TORSDOF 6
ENDMDL
MODEL 7
REMARK VINA RESULT:      -7.5      2.455      8.180
REMARK  Name = 
REMARK  6 active torsions:
REMARK  status: ('A' for Active; 'I' for Inactive)
REMARK    1  A    between atoms: C_1  and  O_2
REMARK    2  A    between atoms: C_1  and  C_21
REMARK    3  A    between atoms: O_2  and  C_3
REMARK    4  A    between atoms: C_6  and  C_9
REMARK    5  A    between atoms: C_13  and  C_14
REMARK    6  A    between atoms: C_14  and  C_15
REMARK                            x       y       z     vdW  Elec       q    Type
REMARK                         _______ _______ _______ _____ _____    ______ ____
ROOT
ATOM      1  C   UNL     1       5.743  -0.667  26.448  0.00  0.00    +0.121 A 
ATOM      2  C   UNL     1       5.658  -0.249  25.124  0.00  0.00    +0.046 A 
ATOM      3  C   UNL     1       6.506   0.739  24.616  0.00  0.00    +0.013 A 
ATOM      4  C   UNL     1       7.463   1.356  25.418  0.00  0.00    +0.003 A 
ATOM      5  C   UNL     1       7.611   0.855  26.732  0.00  0.00    +0.013 A 
ATOM      6  C   UNL     1       6.755  -0.147  27.248  0.00  0.00    +0.046 A 
ENDROOT
BRANCH   4   7
ATOM      7  C   UNL     1       8.176   2.572  24.956  0.00  0.00    +0.096 A 
ATOM      8  C   UNL     1       9.442   2.740  24.260  0.00  0.00    +0.002 A 
ATOM      9  C   UNL     1       9.484   4.088  23.953  0.00  0.00    +0.109 A 
ATOM     10  N   UNL     1       8.375   4.647  24.495  0.00  0.00    -0.284 N 
ATOM     11  H   UNL     1       8.102   5.624  24.490  0.00  0.00    +0.188 HD
ATOM     12  N   UNL     1       7.580   3.771  25.113  0.00  0.00    -0.174 NA
BRANCH   8  13
ATOM     13  C   UNL     1      10.576   1.797  24.003  0.00  0.00    +0.074 C 
BRANCH  13  14
ATOM     14  C   UNL     1      10.182   0.562  23.213  0.00  0.00    -0.040 A 
ATOM     15  C   UNL     1      10.225  -0.659  23.912  0.00  0.00    +0.023 A 
ATOM     16  C   UNL     1       9.922  -1.848  23.257  0.00  0.00    +0.111 A 
ATOM     17  N   UNL     1       9.533  -1.901  21.971  0.00  0.00    -0.263 NA
ATOM     18  C   UNL     1       9.437  -0.721  21.321  0.00  0.00    +0.111 A 
ATOM     19  C   UNL     1       9.739   0.518  21.889  0.00  0.00    +0.023 A 
ENDBRANCH  13  14
ENDBRANCH   8  13
ENDBRANCH   4   7
BRANCH   1  20
ATOM     20  O   UNL     1       4.829  -1.621  26.785  0.00  0.00    -0.486 OA
BRANCH  20  21
ATOM     21  C   UNL     1       5.302  -2.900  27.221  0.00  0.00    +0.284 C 
BRANCH  21  22
ATOM     22  C   UNL     1       5.975  -3.590  26.035  0.00  0.00    +0.079 A 
ATOM     23  C   UNL     1       7.340  -3.852  26.098  0.00  0.00    +0.027 A 
ATOM     24  C   UNL     1       7.951  -4.530  25.050  0.00  0.00    +0.012 A 
ATOM     25  C   UNL     1       7.196  -4.942  23.949  0.00  0.00    +0.000 A 
ATOM     26  C   UNL     1       5.823  -4.621  23.935  0.00  0.00    +0.071 A 
ATOM     27  C   UNL     1       5.094  -5.020  22.813  0.00  0.00    +0.028 A 
ATOM     28  C   UNL     1       5.676  -5.736  21.756  0.00  0.00    +0.002 A 
ATOM     29  C   UNL     1       7.024  -6.065  21.800  0.00  0.00    +0.001 A 
ATOM     30  C   UNL     1       7.786  -5.660  22.891  0.00  0.00    +0.010 A 
ATOM     31  N   UNL     1       5.223  -3.964  24.961  0.00  0.00    -0.248 NA
ENDBRANCH  21  22
ENDBRANCH  20  21
ENDBRANCH   1  20
TORSDOF 6
ENDMDL
MODEL 8
REMARK VINA RESULT:      -7.5      2.194      9.368
REMARK  Name = 
REMARK  6 active torsions:
REMARK  status: ('A' for Active; 'I' for Inactive)
REMARK    1  A    between atoms: C_1  and  O_2
REMARK    2  A    between atoms: C_1  and  C_21
REMARK    3  A    between atoms: O_2  and  C_3
REMARK    4  A    between atoms: C_6  and  C_9
REMARK    5  A    between atoms: C_13  and  C_14
REMARK    6  A    between atoms: C_14  and  C_15
REMARK                            x       y       z     vdW  Elec       q    Type
REMARK                         _______ _______ _______ _____ _____    ______ ____
ROOT
ATOM      1  C   UNL     1       9.560  -0.360  22.722  0.00  0.00    +0.121 A 
ATOM      2  C   UNL     1       8.971   0.169  23.866  0.00  0.00    +0.046 A 
ATOM      3  C   UNL     1       8.247   1.363  23.827  0.00  0.00    +0.013 A 
ATOM      4  C   UNL     1       8.094   2.079  22.642  0.00  0.00    +0.003 A 
ATOM      5  C   UNL     1       8.608   1.484  21.466  0.00  0.00    +0.013 A 
ATOM      6  C   UNL     1       9.341   0.274  21.504  0.00  0.00    +0.046 A 
ENDROOT
BRANCH   4   7
ATOM      7  C   UNL     1       7.556   3.461  22.651  0.00  0.00    +0.096 A 
ATOM      8  C   UNL     1       7.955   4.646  23.396  0.00  0.00    +0.002 A 
ATOM      9  C   UNL     1       7.192   5.663  22.850  0.00  0.00    +0.109 A 
ATOM     10  N   UNL     1       6.380   5.091  21.929  0.00  0.00    -0.284 N 
ATOM     11  H   UNL     1       5.668   5.538  21.360  0.00  0.00    +0.188 HD
ATOM     12  N   UNL     1       6.562   3.775  21.796  0.00  0.00    -0.174 NA
BRANCH   8  13
ATOM     13  C   UNL     1       8.849   4.828  24.583  0.00  0.00    +0.074 C 
BRANCH  13  14
ATOM     14  C   UNL     1      10.310   5.028  24.226  0.00  0.00    -0.040 A 
ATOM     15  C   UNL     1      10.919   6.190  24.738  0.00  0.00    +0.023 A 
ATOM     16  C   UNL     1      12.243   6.478  24.427  0.00  0.00    +0.111 A 
ATOM     17  N   UNL     1      13.017   5.668  23.682  0.00  0.00    -0.263 NA
ATOM     18  C   UNL     1      12.446   4.527  23.240  0.00  0.00    +0.111 A 
ATOM     19  C   UNL     1      11.120   4.163  23.486  0.00  0.00    +0.023 A 
ENDBRANCH  13  14
ENDBRANCH   8  13
ENDBRANCH   4   7
BRANCH   1  20
ATOM     20  O   UNL     1      10.248  -1.518  22.941  0.00  0.00    -0.486 OA
BRANCH  20  21
ATOM     21  C   UNL     1      10.058  -2.204  24.184  0.00  0.00    +0.284 C 
BRANCH  21  22
ATOM     22  C   UNL     1       8.773  -3.026  24.083  0.00  0.00    +0.079 A 
ATOM     23  C   UNL     1       7.829  -2.919  25.099  0.00  0.00    +0.027 A 
ATOM     24  C   UNL     1       6.632  -3.617  24.991  0.00  0.00    +0.012 A 
ATOM     25  C   UNL     1       6.388  -4.414  23.870  0.00  0.00    +0.000 A 
ATOM     26  C   UNL     1       7.398  -4.502  22.890  0.00  0.00    +0.071 A 
ATOM     27  C   UNL     1       7.142  -5.325  21.793  0.00  0.00    +0.028 A 
ATOM     28  C   UNL     1       5.930  -6.015  21.638  0.00  0.00    +0.002 A 
ATOM     29  C   UNL     1       4.936  -5.897  22.602  0.00  0.00    +0.001 A 
ATOM     30  C   UNL     1       5.169  -5.105  23.722  0.00  0.00    +0.010 A 
ATOM     31  N   UNL     1       8.565  -3.815  22.992  0.00  0.00    -0.248 NA
ENDBRANCH  21  22
ENDBRANCH  20  21
ENDBRANCH   1  20
TORSDOF 6
ENDMDL
MODEL 9
REMARK VINA RESULT:      -7.4      1.957      3.154
REMARK  Name = 
REMARK  6 active torsions:
REMARK  status: ('A' for Active; 'I' for Inactive)
REMARK    1  A    between atoms: C_1  and  O_2
REMARK    2  A    between atoms: C_1  and  C_21
REMARK    3  A    between atoms: O_2  and  C_3
REMARK    4  A    between atoms: C_6  and  C_9
REMARK    5  A    between atoms: C_13  and  C_14
REMARK    6  A    between atoms: C_14  and  C_15
REMARK                            x       y       z     vdW  Elec       q    Type
REMARK                         _______ _______ _______ _____ _____    ______ ____
ROOT
ATOM      1  C   UNL     1       9.393  -1.335  23.394  0.00  0.00    +0.121 A 
ATOM      2  C   UNL     1       9.704  -2.484  24.114  0.00  0.00    +0.046 A 
ATOM      3  C   UNL     1       8.949  -3.653  23.982  0.00  0.00    +0.013 A 
ATOM      4  C   UNL     1       7.847  -3.712  23.131  0.00  0.00    +0.003 A 
ATOM      5  C   UNL     1       7.601  -2.574  22.329  0.00  0.00    +0.013 A 
ATOM      6  C   UNL     1       8.365  -1.390  22.460  0.00  0.00    +0.046 A 
ENDROOT
BRANCH   4   7
ATOM      7  C   UNL     1       6.902  -4.854  23.187  0.00  0.00    +0.096 A 
ATOM      8  C   UNL     1       5.842  -5.182  24.127  0.00  0.00    +0.002 A 
ATOM      9  C   UNL     1       5.206  -6.269  23.555  0.00  0.00    +0.109 A 
ATOM     10  N   UNL     1       5.893  -6.576  22.428  0.00  0.00    -0.284 N 
ATOM     11  H   UNL     1       5.721  -7.338  21.780  0.00  0.00    +0.188 HD
ATOM     12  N   UNL     1       6.920  -5.758  22.187  0.00  0.00    -0.174 NA
BRANCH   8  13
ATOM     13  C   UNL     1       5.507  -4.647  25.485  0.00  0.00    +0.074 C 
BRANCH  13  14
ATOM     14  C   UNL     1       5.777  -3.162  25.644  0.00  0.00    -0.040 A 
ATOM     15  C   UNL     1       6.801  -2.812  26.544  0.00  0.00    +0.023 A 
ATOM     16  C   UNL     1       7.090  -1.473  26.785  0.00  0.00    +0.111 A 
ATOM     17  N   UNL     1       6.463  -0.461  26.159  0.00  0.00    -0.263 NA
ATOM     18  C   UNL     1       5.521  -0.803  25.254  0.00  0.00    +0.111 A 
ATOM     19  C   UNL     1       5.151  -2.117  24.960  0.00  0.00    +0.023 A 
ENDBRANCH  13  14
ENDBRANCH   8  13
ENDBRANCH   4   7
BRANCH   1  20
ATOM     20  O   UNL     1      10.216  -0.280  23.659  0.00  0.00    -0.486 OA
BRANCH  20  21
ATOM     21  C   UNL     1      10.208   0.837  22.762  0.00  0.00    +0.284 C 
BRANCH  21  22
ATOM     22  C   UNL     1       9.663   2.050  23.515  0.00  0.00    +0.079 A 
ATOM     23  C   UNL     1       8.627   1.864  24.424  0.00  0.00    +0.027 A 
ATOM     24  C   UNL     1       8.162   2.950  25.157  0.00  0.00    +0.012 A 
ATOM     25  C   UNL     1       8.736   4.211  24.978  0.00  0.00    +0.000 A 
ATOM     26  C   UNL     1       9.764   4.337  24.021  0.00  0.00    +0.071 A 
ATOM     27  C   UNL     1      10.303   5.611  23.840  0.00  0.00    +0.028 A 
ATOM     28  C   UNL     1       9.879   6.719  24.590  0.00  0.00    +0.002 A 
ATOM     29  C   UNL     1       8.883   6.570  25.546  0.00  0.00    +0.001 A 
ATOM     30  C   UNL     1       8.304   5.318  25.732  0.00  0.00    +0.010 A 
ATOM     31  N   UNL     1      10.223   3.276  23.309  0.00  0.00    -0.248 NA
ENDBRANCH  21  22
ENDBRANCH  20  21
ENDBRANCH   1  20
TORSDOF 6
ENDMDL
