MODEL 1
REMARK VINA RESULT:      -6.6      0.000      0.000
REMARK  Name = 
REMARK  8 active torsions:
REMARK  status: ('A' for Active; 'I' for Inactive)
REMARK    1  A    between atoms: C_2  and  O_3
REMARK    2  A    between atoms: C_5  and  N_16
REMARK    3  A    between atoms: C_8  and  C_10
REMARK    4  A    between atoms: C_10  and  O_11
REMARK    5  A    between atoms: O_11  and  P_12
REMARK    6  A    between atoms: P_12  and  O_13
REMARK    7  A    between atoms: P_12  and  O_14
REMARK    8  A    between atoms: C_20  and  C_21
REMARK                            x       y       z     vdW  Elec       q    Type
REMARK                         _______ _______ _______ _____ _____    ______ ____
ROOT
ATOM      1  C   UNL     1       6.406  -5.306  22.416  0.00  0.00    +0.150 C 
ATOM      2  C   UNL     1       5.597  -4.946  23.658  0.00  0.00    +0.175 C 
ATOM      3  O   UNL     1       5.267  -3.542  23.559  0.00  0.00    -0.348 OA
ATOM      4  C   UNL     1       5.886  -3.000  22.371  0.00  0.00    +0.222 C 
ATOM      5  C   UNL     1       6.049  -4.201  21.452  0.00  0.00    +0.088 C 
ENDROOT
BRANCH   4   6
ATOM      6  N   UNL     1       7.111  -2.288  22.746  0.00  0.00    -0.320 N 
ATOM      7  C   UNL     1       7.207  -1.266  23.677  0.00  0.00    +0.051 A 
ATOM      8  C   UNL     1       8.571  -0.966  23.822  0.00  0.00    +0.003 A 
ATOM      9  C   UNL     1       8.984   0.023  24.746  0.00  0.00    -0.041 A 
ATOM     10  C   UNL     1       7.993   0.694  25.482  0.00  0.00    +0.004 A 
ATOM     11  C   UNL     1       6.643   0.400  25.321  0.00  0.00    +0.002 A 
ATOM     12  C   UNL     1      10.427   0.364  24.997  0.00  0.00    +0.044 C 
ATOM     13  C   UNL     1       9.285  -1.824  22.948  0.00  0.00    +0.028 A 
ATOM     14  C   UNL     1       6.228  -0.590  24.424  0.00  0.00    +0.026 A 
ATOM     15  C   UNL     1       8.377  -2.647  22.339  0.00  0.00    +0.089 A 
ENDBRANCH   4   6
BRANCH   1  16
ATOM     16  O   UNL     1       6.081  -6.588  21.904  0.00  0.00    -0.389 OA
ATOM     17  H   UNL     1       6.759  -6.852  21.258  0.00  0.00    +0.210 HD
ENDBRANCH   1  16
BRANCH   2  18
ATOM     18  C   UNL     1       6.377  -5.246  24.939  0.00  0.00    +0.206 C 
BRANCH  18  19
ATOM     19  O   UNL     1       7.763  -5.197  24.644  0.00  0.00    -0.284 OA
BRANCH  19  20
ATOM     20  P   UNL     1       8.771  -4.894  25.843  0.00  0.00    +0.472 P 
ATOM     21  O   UNL     1       8.909  -3.465  26.227  0.00  0.00    -0.228 OA
BRANCH  20  22
ATOM     22  O   UNL     1      10.127  -5.571  25.347  0.00  0.00    -0.303 OA
ATOM     23  H   UNL     1      10.102  -6.530  25.532  0.00  0.00    +0.222 HD
ENDBRANCH  20  22
BRANCH  20  24
ATOM     24  O   UNL     1       8.247  -5.882  26.977  0.00  0.00    -0.303 OA
ATOM     25  H   UNL     1       7.363  -5.602  27.276  0.00  0.00    +0.222 HD
ENDBRANCH  20  24
ENDBRANCH  19  20
ENDBRANCH  18  19
ENDBRANCH   2  18
TORSDOF 7
ENDMDL
MODEL 2
REMARK VINA RESULT:      -6.6      2.200      4.119
REMARK  Name = 
REMARK  8 active torsions:
REMARK  status: ('A' for Active; 'I' for Inactive)
REMARK    1  A    between atoms: C_2  and  O_3
REMARK    2  A    between atoms: C_5  and  N_16
REMARK    3  A    between atoms: C_8  and  C_10
REMARK    4  A    between atoms: C_10  and  O_11
REMARK    5  A    between atoms: O_11  and  P_12
REMARK    6  A    between atoms: P_12  and  O_13
REMARK    7  A    between atoms: P_12  and  O_14
REMARK    8  A    between atoms: C_20  and  C_21
REMARK                            x       y       z     vdW  Elec       q    Type
REMARK                         _______ _______ _______ _____ _____    ______ ____
ROOT
ATOM      1  C   UNL     1       7.572  -4.851  25.659  0.00  0.00    +0.150 C 
ATOM      2  C   UNL     1       8.243  -5.162  24.325  0.00  0.00    +0.175 C 
ATOM      3  O   UNL     1       9.252  -4.149  24.109  0.00  0.00    -0.348 OA
ATOM      4  C   UNL     1       9.192  -3.194  25.192  0.00  0.00    +0.222 C 
ATOM      5  C   UNL     1       8.589  -3.974  26.348  0.00  0.00    +0.088 C 
ENDROOT
BRANCH   4   6
ATOM      6  N   UNL     1       8.458  -2.005  24.746  0.00  0.00    -0.320 N 
ATOM      7  C   UNL     1       8.812  -1.175  23.695  0.00  0.00    +0.051 A 
ATOM      8  C   UNL     1       7.770  -0.248  23.532  0.00  0.00    +0.003 A 
ATOM      9  C   UNL     1       7.834   0.714  22.496  0.00  0.00    -0.041 A 
ATOM     10  C   UNL     1       8.969   0.717  21.667  0.00  0.00    +0.004 A 
ATOM     11  C   UNL     1      10.002  -0.197  21.845  0.00  0.00    +0.002 A 
ATOM     12  C   UNL     1       6.737   1.706  22.224  0.00  0.00    +0.044 C 
ATOM     13  C   UNL     1       6.794  -0.536  24.518  0.00  0.00    +0.028 A 
ATOM     14  C   UNL     1       9.938  -1.163  22.854  0.00  0.00    +0.026 A 
ATOM     15  C   UNL     1       7.215  -1.636  25.214  0.00  0.00    +0.089 A 
ENDBRANCH   4   6
BRANCH   1  16
ATOM     16  O   UNL     1       7.277  -6.018  26.409  0.00  0.00    -0.389 OA
ATOM     17  H   UNL     1       6.740  -5.770  27.182  0.00  0.00    +0.210 HD
ENDBRANCH   1  16
BRANCH   2  18
ATOM     18  C   UNL     1       7.227  -5.189  23.182  0.00  0.00    +0.206 C 
BRANCH  18  19
ATOM     19  O   UNL     1       5.929  -5.030  23.729  0.00  0.00    -0.284 OA
BRANCH  19  20
ATOM     20  P   UNL     1       4.715  -5.759  22.994  0.00  0.00    +0.472 P 
ATOM     21  O   UNL     1       3.423  -5.024  22.995  0.00  0.00    -0.228 OA
BRANCH  20  22
ATOM     22  O   UNL     1       4.660  -7.177  23.723  0.00  0.00    -0.303 OA
ATOM     23  H   UNL     1       3.736  -7.388  23.961  0.00  0.00    +0.222 HD
ENDBRANCH  20  22
BRANCH  20  24
ATOM     24  O   UNL     1       5.339  -6.090  21.568  0.00  0.00    -0.303 OA
ATOM     25  H   UNL     1       4.797  -5.683  20.868  0.00  0.00    +0.222 HD
ENDBRANCH  20  24
ENDBRANCH  19  20
ENDBRANCH  18  19
ENDBRANCH   2  18
TORSDOF 7
ENDMDL
MODEL 3
REMARK VINA RESULT:      -6.5      2.110      3.563
REMARK  Name = 
REMARK  8 active torsions:
REMARK  status: ('A' for Active; 'I' for Inactive)
REMARK    1  A    between atoms: C_2  and  O_3
REMARK    2  A    between atoms: C_5  and  N_16
REMARK    3  A    between atoms: C_8  and  C_10
REMARK    4  A    between atoms: C_10  and  O_11
REMARK    5  A    between atoms: O_11  and  P_12
REMARK    6  A    between atoms: P_12  and  O_13
REMARK    7  A    between atoms: P_12  and  O_14
REMARK    8  A    between atoms: C_20  and  C_21
REMARK                            x       y       z     vdW  Elec       q    Type
REMARK                         _______ _______ _______ _____ _____    ______ ____
ROOT
ATOM      1  C   UNL     1       9.308  -2.976  24.119  0.00  0.00    +0.150 C 
ATOM      2  C   UNL     1       8.028  -3.448  23.438  0.00  0.00    +0.175 C 
ATOM      3  O   UNL     1       7.754  -2.526  22.360  0.00  0.00    -0.348 OA
ATOM      4  C   UNL     1       8.745  -1.475  22.382  0.00  0.00    +0.222 C 
ATOM      5  C   UNL     1       9.948  -2.107  23.063  0.00  0.00    +0.088 C 
ENDROOT
BRANCH   4   6
ATOM      6  N   UNL     1       8.174  -0.287  23.025  0.00  0.00    -0.320 N 
ATOM      7  C   UNL     1       8.840   0.902  23.278  0.00  0.00    +0.051 A 
ATOM      8  C   UNL     1       7.892   1.808  23.779  0.00  0.00    +0.003 A 
ATOM      9  C   UNL     1       8.276   3.132  24.095  0.00  0.00    -0.041 A 
ATOM     10  C   UNL     1       9.621   3.491  23.910  0.00  0.00    +0.004 A 
ATOM     11  C   UNL     1      10.557   2.583  23.426  0.00  0.00    +0.002 A 
ATOM     12  C   UNL     1       7.309   4.175  24.585  0.00  0.00    +0.044 C 
ATOM     13  C   UNL     1       6.649   1.128  23.831  0.00  0.00    +0.028 A 
ATOM     14  C   UNL     1      10.181   1.277  23.093  0.00  0.00    +0.026 A 
ATOM     15  C   UNL     1       6.839  -0.129  23.325  0.00  0.00    +0.089 A 
ENDBRANCH   4   6
BRANCH   1  16
ATOM     16  O   UNL     1      10.150  -4.049  24.510  0.00  0.00    -0.389 OA
ATOM     17  H   UNL     1      10.913  -4.089  23.907  0.00  0.00    +0.210 HD
ENDBRANCH   1  16
BRANCH   2  18
ATOM     18  C   UNL     1       6.862  -3.514  24.426  0.00  0.00    +0.206 C 
BRANCH  18  19
ATOM     19  O   UNL     1       7.382  -3.767  25.721  0.00  0.00    -0.284 OA
BRANCH  19  20
ATOM     20  P   UNL     1       7.079  -5.188  26.381  0.00  0.00    +0.472 P 
ATOM     21  O   UNL     1       5.986  -5.974  25.752  0.00  0.00    -0.228 OA
BRANCH  20  22
ATOM     22  O   UNL     1       6.820  -4.819  27.911  0.00  0.00    -0.303 OA
ATOM     23  H   UNL     1       7.669  -4.619  28.349  0.00  0.00    +0.222 HD
ENDBRANCH  20  22
BRANCH  20  24
ATOM     24  O   UNL     1       8.520  -5.864  26.393  0.00  0.00    -0.303 OA
ATOM     25  H   UNL     1       8.956  -5.726  25.533  0.00  0.00    +0.222 HD
ENDBRANCH  20  24
ENDBRANCH  19  20
ENDBRANCH  18  19
ENDBRANCH   2  18
TORSDOF 7
ENDMDL
MODEL 4
REMARK VINA RESULT:      -6.4      2.459      4.016
REMARK  Name = 
REMARK  8 active torsions:
REMARK  status: ('A' for Active; 'I' for Inactive)
REMARK    1  A    between atoms: C_2  and  O_3
REMARK    2  A    between atoms: C_5  and  N_16
REMARK    3  A    between atoms: C_8  and  C_10
REMARK    4  A    between atoms: C_10  and  O_11
REMARK    5  A    between atoms: O_11  and  P_12
REMARK    6  A    between atoms: P_12  and  O_13
REMARK    7  A    between atoms: P_12  and  O_14
REMARK    8  A    between atoms: C_20  and  C_21
REMARK                            x       y       z     vdW  Elec       q    Type
REMARK                         _______ _______ _______ _____ _____    ______ ____
ROOT
ATOM      1  C   UNL     1       8.008  -4.921  26.485  0.00  0.00    +0.150 C 
ATOM      2  C   UNL     1       7.446  -5.249  25.106  0.00  0.00    +0.175 C 
ATOM      3  O   UNL     1       8.327  -4.646  24.132  0.00  0.00    -0.348 OA
ATOM      4  C   UNL     1       9.354  -3.905  24.828  0.00  0.00    +0.222 C 
ATOM      5  C   UNL     1       9.448  -4.580  26.187  0.00  0.00    +0.088 C 
ENDROOT
BRANCH   4   6
ATOM      6  N   UNL     1       9.008  -2.480  24.825  0.00  0.00    -0.320 N 
ATOM      7  C   UNL     1       9.090  -1.624  23.737  0.00  0.00    +0.051 A 
ATOM      8  C   UNL     1       8.540  -0.396  24.137  0.00  0.00    +0.003 A 
ATOM      9  C   UNL     1       8.451   0.673  23.214  0.00  0.00    -0.041 A 
ATOM     10  C   UNL     1       8.943   0.466  21.914  0.00  0.00    +0.004 A 
ATOM     11  C   UNL     1       9.499  -0.750  21.532  0.00  0.00    +0.002 A 
ATOM     12  C   UNL     1       7.828   2.001  23.549  0.00  0.00    +0.044 C 
ATOM     13  C   UNL     1       8.140  -0.534  25.490  0.00  0.00    +0.028 A 
ATOM     14  C   UNL     1       9.573  -1.818  22.432  0.00  0.00    +0.026 A 
ATOM     15  C   UNL     1       8.395  -1.824  25.869  0.00  0.00    +0.089 A 
ENDBRANCH   4   6
BRANCH   1  16
ATOM     16  O   UNL     1       7.891  -6.002  27.396  0.00  0.00    -0.389 OA
ATOM     17  H   UNL     1       8.691  -6.554  27.335  0.00  0.00    +0.210 HD
ENDBRANCH   1  16
BRANCH   2  18
ATOM     18  C   UNL     1       6.012  -4.739  24.951  0.00  0.00    +0.206 C 
BRANCH  18  19
ATOM     19  O   UNL     1       5.266  -5.139  26.089  0.00  0.00    -0.284 OA
BRANCH  19  20
ATOM     20  P   UNL     1       4.513  -6.544  26.033  0.00  0.00    +0.472 P 
ATOM     21  O   UNL     1       4.573  -7.258  24.731  0.00  0.00    -0.228 OA
BRANCH  20  22
ATOM     22  O   UNL     1       3.036  -6.173  26.507  0.00  0.00    -0.303 OA
ATOM     23  H   UNL     1       2.490  -6.982  26.543  0.00  0.00    +0.222 HD
ENDBRANCH  20  22
BRANCH  20  24
ATOM     24  O   UNL     1       5.133  -7.306  27.285  0.00  0.00    -0.303 OA
ATOM     25  H   UNL     1       6.091  -7.134  27.335  0.00  0.00    +0.222 HD
ENDBRANCH  20  24
ENDBRANCH  19  20
ENDBRANCH  18  19
ENDBRANCH   2  18
TORSDOF 7
ENDMDL
MODEL 5
REMARK VINA RESULT:      -6.3      2.353      3.846
REMARK  Name = 
REMARK  8 active torsions:
REMARK  status: ('A' for Active; 'I' for Inactive)
REMARK    1  A    between atoms: C_2  and  O_3
REMARK    2  A    between atoms: C_5  and  N_16
REMARK    3  A    between atoms: C_8  and  C_10
REMARK    4  A    between atoms: C_10  and  O_11
REMARK    5  A    between atoms: O_11  and  P_12
REMARK    6  A    between atoms: P_12  and  O_13
REMARK    7  A    between atoms: P_12  and  O_14
REMARK    8  A    between atoms: C_20  and  C_21
REMARK                            x       y       z     vdW  Elec       q    Type
REMARK                         _______ _______ _______ _____ _____    ______ ____
ROOT
ATOM      1  C   UNL     1       7.601  -4.172  26.221  0.00  0.00    +0.150 C 
ATOM      2  C   UNL     1       7.698  -5.252  25.149  0.00  0.00    +0.175 C 
ATOM      3  O   UNL     1       8.839  -4.930  24.322  0.00  0.00    -0.348 OA
ATOM      4  C   UNL     1       9.404  -3.679  24.774  0.00  0.00    +0.222 C 
ATOM      5  C   UNL     1       8.993  -3.588  26.234  0.00  0.00    +0.088 C 
ENDROOT
BRANCH   4   6
ATOM      6  N   UNL     1       8.951  -2.598  23.894  0.00  0.00    -0.320 N 
ATOM      7  C   UNL     1       9.323  -1.266  23.980  0.00  0.00    +0.051 A 
ATOM      8  C   UNL     1       8.767  -0.609  22.871  0.00  0.00    +0.003 A 
ATOM      9  C   UNL     1       9.012   0.770  22.669  0.00  0.00    -0.041 A 
ATOM     10  C   UNL     1       9.803   1.445  23.614  0.00  0.00    +0.004 A 
ATOM     11  C   UNL     1      10.339   0.788  24.717  0.00  0.00    +0.002 A 
ATOM     12  C   UNL     1       8.496   1.533  21.480  0.00  0.00    +0.044 C 
ATOM     13  C   UNL     1       8.043  -1.576  22.130  0.00  0.00    +0.028 A 
ATOM     14  C   UNL     1      10.117  -0.579  24.914  0.00  0.00    +0.026 A 
ATOM     15  C   UNL     1       8.208  -2.785  22.748  0.00  0.00    +0.089 A 
ENDBRANCH   4   6
BRANCH   1  16
ATOM     16  O   UNL     1       7.226  -4.689  27.487  0.00  0.00    -0.389 OA
ATOM     17  H   UNL     1       8.004  -4.690  28.072  0.00  0.00    +0.210 HD
ENDBRANCH   1  16
BRANCH   2  18
ATOM     18  C   UNL     1       6.415  -5.334  24.320  0.00  0.00    +0.206 C 
BRANCH  18  19
ATOM     19  O   UNL     1       5.306  -5.200  25.193  0.00  0.00    -0.284 OA
BRANCH  19  20
ATOM     20  P   UNL     1       4.514  -6.523  25.603  0.00  0.00    +0.472 P 
ATOM     21  O   UNL     1       4.354  -7.540  24.530  0.00  0.00    -0.228 OA
BRANCH  20  22
ATOM     22  O   UNL     1       3.138  -5.951  26.171  0.00  0.00    -0.303 OA
ATOM     23  H   UNL     1       2.853  -5.187  25.633  0.00  0.00    +0.222 HD
ENDBRANCH  20  22
BRANCH  20  24
ATOM     24  O   UNL     1       5.298  -6.990  26.908  0.00  0.00    -0.303 OA
ATOM     25  H   UNL     1       6.148  -7.392  26.655  0.00  0.00    +0.222 HD
ENDBRANCH  20  24
ENDBRANCH  19  20
ENDBRANCH  18  19
ENDBRANCH   2  18
TORSDOF 7
ENDMDL
MODEL 6
REMARK VINA RESULT:      -6.3      4.564      6.589
REMARK  Name = 
REMARK  8 active torsions:
REMARK  status: ('A' for Active; 'I' for Inactive)
REMARK    1  A    between atoms: C_2  and  O_3
REMARK    2  A    between atoms: C_5  and  N_16
REMARK    3  A    between atoms: C_8  and  C_10
REMARK    4  A    between atoms: C_10  and  O_11
REMARK    5  A    between atoms: O_11  and  P_12
REMARK    6  A    between atoms: P_12  and  O_13
REMARK    7  A    between atoms: P_12  and  O_14
REMARK    8  A    between atoms: C_20  and  C_21
REMARK                            x       y       z     vdW  Elec       q    Type
REMARK                         _______ _______ _______ _____ _____    ______ ____
ROOT
ATOM      1  C   UNL     1       8.948   0.563  22.039  0.00  0.00    +0.150 C 
ATOM      2  C   UNL     1      10.144   0.996  22.880  0.00  0.00    +0.175 C 
ATOM      3  O   UNL     1      10.780  -0.207  23.368  0.00  0.00    -0.348 OA
ATOM      4  C   UNL     1      10.005  -1.349  22.940  0.00  0.00    +0.222 C 
ATOM      5  C   UNL     1       9.283  -0.867  21.692  0.00  0.00    +0.088 C 
ENDROOT
BRANCH   4   6
ATOM      6  N   UNL     1       9.165  -1.807  24.051  0.00  0.00    -0.320 N 
ATOM      7  C   UNL     1       8.317  -2.904  24.034  0.00  0.00    +0.051 A 
ATOM      8  C   UNL     1       7.814  -3.056  25.335  0.00  0.00    +0.003 A 
ATOM      9  C   UNL     1       6.941  -4.129  25.635  0.00  0.00    -0.041 A 
ATOM     10  C   UNL     1       6.590  -5.005  24.595  0.00  0.00    +0.004 A 
ATOM     11  C   UNL     1       7.084  -4.838  23.305  0.00  0.00    +0.002 A 
ATOM     12  C   UNL     1       6.402  -4.391  27.015  0.00  0.00    +0.044 C 
ATOM     13  C   UNL     1       8.370  -2.019  26.125  0.00  0.00    +0.028 A 
ATOM     14  C   UNL     1       7.962  -3.791  23.004  0.00  0.00    +0.026 A 
ATOM     15  C   UNL     1       9.222  -1.301  25.331  0.00  0.00    +0.089 A 
ENDBRANCH   4   6
BRANCH   1  16
ATOM     16  O   UNL     1       8.771   1.367  20.884  0.00  0.00    -0.389 OA
ATOM     17  H   UNL     1       9.366   2.135  20.938  0.00  0.00    +0.210 HD
ENDBRANCH   1  16
BRANCH   2  18
ATOM     18  C   UNL     1       9.717   1.907  24.033  0.00  0.00    +0.206 C 
BRANCH  18  19
ATOM     19  O   UNL     1       8.451   2.464  23.720  0.00  0.00    -0.284 OA
BRANCH  19  20
ATOM     20  P   UNL     1       8.371   4.036  23.461  0.00  0.00    +0.472 P 
ATOM     21  O   UNL     1       7.614   4.821  24.470  0.00  0.00    -0.228 OA
BRANCH  20  22
ATOM     22  O   UNL     1       7.774   4.122  21.984  0.00  0.00    -0.303 OA
ATOM     23  H   UNL     1       8.286   4.769  21.461  0.00  0.00    +0.222 HD
ENDBRANCH  20  22
BRANCH  20  24
ATOM     24  O   UNL     1       9.905   4.421  23.273  0.00  0.00    -0.303 OA
ATOM     25  H   UNL     1      10.414   3.632  23.014  0.00  0.00    +0.222 HD
ENDBRANCH  20  24
ENDBRANCH  19  20
ENDBRANCH  18  19
ENDBRANCH   2  18
TORSDOF 7
ENDMDL
MODEL 7
REMARK VINA RESULT:      -6.3      2.409      4.231
REMARK  Name = 
REMARK  8 active torsions:
REMARK  status: ('A' for Active; 'I' for Inactive)
REMARK    1  A    between atoms: C_2  and  O_3
REMARK    2  A    between atoms: C_5  and  N_16
REMARK    3  A    between atoms: C_8  and  C_10
REMARK    4  A    between atoms: C_10  and  O_11
REMARK    5  A    between atoms: O_11  and  P_12
REMARK    6  A    between atoms: P_12  and  O_13
REMARK    7  A    between atoms: P_12  and  O_14
REMARK    8  A    between atoms: C_20  and  C_21
REMARK                            x       y       z     vdW  Elec       q    Type
REMARK                         _______ _______ _______ _____ _____    ______ ____
ROOT
ATOM      1  C   UNL     1       9.306  -2.910  24.013  0.00  0.00    +0.150 C 
ATOM      2  C   UNL     1       8.222  -3.342  23.030  0.00  0.00    +0.175 C 
ATOM      3  O   UNL     1       8.170  -2.342  21.988  0.00  0.00    -0.348 OA
ATOM      4  C   UNL     1       9.102  -1.285  22.308  0.00  0.00    +0.222 C 
ATOM      5  C   UNL     1      10.140  -1.956  23.193  0.00  0.00    +0.088 C 
ENDROOT
BRANCH   4   6
ATOM      6  N   UNL     1       8.371  -0.157  22.891  0.00  0.00    -0.320 N 
ATOM      7  C   UNL     1       8.908   1.076  23.228  0.00  0.00    +0.051 A 
ATOM      8  C   UNL     1       7.841   1.897  23.626  0.00  0.00    +0.003 A 
ATOM      9  C   UNL     1       8.081   3.242  23.994  0.00  0.00    -0.041 A 
ATOM     10  C   UNL     1       9.407   3.707  23.965  0.00  0.00    +0.004 A 
ATOM     11  C   UNL     1      10.460   2.882  23.583  0.00  0.00    +0.002 A 
ATOM     12  C   UNL     1       6.987   4.198  24.380  0.00  0.00    +0.044 C 
ATOM     13  C   UNL     1       6.658   1.122  23.531  0.00  0.00    +0.028 A 
ATOM     14  C   UNL     1      10.228   1.557  23.199  0.00  0.00    +0.026 A 
ATOM     15  C   UNL     1       7.002  -0.107  23.040  0.00  0.00    +0.089 A 
ENDBRANCH   4   6
BRANCH   1  16
ATOM     16  O   UNL     1      10.068  -4.001  24.503  0.00  0.00    -0.389 OA
ATOM     17  H   UNL     1       9.462  -4.709  24.787  0.00  0.00    +0.210 HD
ENDBRANCH   1  16
BRANCH   2  18
ATOM     18  C   UNL     1       6.868  -3.495  23.725  0.00  0.00    +0.206 C 
BRANCH  18  19
ATOM     19  O   UNL     1       6.397  -4.815  23.509  0.00  0.00    -0.284 OA
BRANCH  19  20
ATOM     20  P   UNL     1       5.934  -5.211  22.035  0.00  0.00    +0.472 P 
ATOM     21  O   UNL     1       6.941  -5.931  21.212  0.00  0.00    -0.228 OA
BRANCH  20  22
ATOM     22  O   UNL     1       5.468  -3.814  21.422  0.00  0.00    -0.303 OA
ATOM     23  H   UNL     1       4.674  -3.498  21.893  0.00  0.00    +0.222 HD
ENDBRANCH  20  22
BRANCH  20  24
ATOM     24  O   UNL     1       4.567  -5.979  22.310  0.00  0.00    -0.303 OA
ATOM     25  H   UNL     1       4.647  -6.515  23.120  0.00  0.00    +0.222 HD
ENDBRANCH  20  24
ENDBRANCH  19  20
ENDBRANCH  18  19
ENDBRANCH   2  18
TORSDOF 7
ENDMDL
MODEL 8
REMARK VINA RESULT:      -6.3      3.091      5.450
REMARK  Name = 
REMARK  8 active torsions:
REMARK  status: ('A' for Active; 'I' for Inactive)
REMARK    1  A    between atoms: C_2  and  O_3
REMARK    2  A    between atoms: C_5  and  N_16
REMARK    3  A    between atoms: C_8  and  C_10
REMARK    4  A    between atoms: C_10  and  O_11
REMARK    5  A    between atoms: O_11  and  P_12
REMARK    6  A    between atoms: P_12  and  O_13
REMARK    7  A    between atoms: P_12  and  O_14
REMARK    8  A    between atoms: C_20  and  C_21
REMARK                            x       y       z     vdW  Elec       q    Type
REMARK                         _______ _______ _______ _____ _____    ______ ____
ROOT
ATOM      1  C   UNL     1       9.261   0.776  22.169  0.00  0.00    +0.150 C 
ATOM      2  C   UNL     1      10.050   0.621  23.465  0.00  0.00    +0.175 C 
ATOM      3  O   UNL     1      10.420  -0.772  23.574  0.00  0.00    -0.348 OA
ATOM      4  C   UNL     1       9.845  -1.496  22.464  0.00  0.00    +0.222 C 
ATOM      5  C   UNL     1       9.671  -0.444  21.380  0.00  0.00    +0.088 C 
ENDROOT
BRANCH   4   6
ATOM      6  N   UNL     1       8.631  -2.184  22.913  0.00  0.00    -0.320 N 
ATOM      7  C   UNL     1       8.569  -3.185  23.871  0.00  0.00    +0.051 A 
ATOM      8  C   UNL     1       7.210  -3.464  24.088  0.00  0.00    +0.003 A 
ATOM      9  C   UNL     1       6.831  -4.427  25.053  0.00  0.00    -0.041 A 
ATOM     10  C   UNL     1       7.848  -5.093  25.756  0.00  0.00    +0.004 A 
ATOM     11  C   UNL     1       9.193  -4.818  25.525  0.00  0.00    +0.002 A 
ATOM     12  C   UNL     1       5.397  -4.745  25.380  0.00  0.00    +0.044 C 
ATOM     13  C   UNL     1       6.465  -2.618  23.228  0.00  0.00    +0.028 A 
ATOM     14  C   UNL     1       9.575  -3.854  24.587  0.00  0.00    +0.026 A 
ATOM     15  C   UNL     1       7.351  -1.820  22.558  0.00  0.00    +0.089 A 
ENDBRANCH   4   6
BRANCH   1  16
ATOM     16  O   UNL     1       9.562   1.981  21.484  0.00  0.00    -0.389 OA
ATOM     17  H   UNL     1      10.188   2.500  22.018  0.00  0.00    +0.210 HD
ENDBRANCH   1  16
BRANCH   2  18
ATOM     18  C   UNL     1       9.231   1.077  24.674  0.00  0.00    +0.206 C 
BRANCH  18  19
ATOM     19  O   UNL     1       9.147  -0.000  25.593  0.00  0.00    -0.284 OA
BRANCH  19  20
ATOM     20  P   UNL     1       7.770  -0.212  26.370  0.00  0.00    +0.472 P 
ATOM     21  O   UNL     1       7.538  -1.575  26.915  0.00  0.00    -0.228 OA
BRANCH  20  22
ATOM     22  O   UNL     1       6.683   0.258  25.301  0.00  0.00    -0.303 OA
ATOM     23  H   UNL     1       5.787   0.118  25.662  0.00  0.00    +0.222 HD
ENDBRANCH  20  22
BRANCH  20  24
ATOM     24  O   UNL     1       7.799   0.977  27.429  0.00  0.00    -0.303 OA
ATOM     25  H   UNL     1       7.811   1.833  26.964  0.00  0.00    +0.222 HD
ENDBRANCH  20  24
ENDBRANCH  19  20
ENDBRANCH  18  19
ENDBRANCH   2  18
TORSDOF 7
ENDMDL
MODEL 9
REMARK VINA RESULT:      -6.1      3.972      6.230
REMARK  Name = 
REMARK  8 active torsions:
REMARK  status: ('A' for Active; 'I' for Inactive)
REMARK    1  A    between atoms: C_2  and  O_3
REMARK    2  A    between atoms: C_5  and  N_16
REMARK    3  A    between atoms: C_8  and  C_10
REMARK    4  A    between atoms: C_10  and  O_11
REMARK    5  A    between atoms: O_11  and  P_12
REMARK    6  A    between atoms: P_12  and  O_13
REMARK    7  A    between atoms: P_12  and  O_14
REMARK    8  A    between atoms: C_20  and  C_21
REMARK                            x       y       z     vdW  Elec       q    Type
REMARK                         _______ _______ _______ _____ _____    ______ ____
ROOT
ATOM      1  C   UNL     1       9.116  -0.170  22.085  0.00  0.00    +0.150 C 
ATOM      2  C   UNL     1       9.140   0.192  23.566  0.00  0.00    +0.175 C 
ATOM      3  O   UNL     1       9.636  -0.963  24.280  0.00  0.00    -0.348 OA
ATOM      4  C   UNL     1       9.848  -2.037  23.337  0.00  0.00    +0.222 C 
ATOM      5  C   UNL     1      10.077  -1.332  22.010  0.00  0.00    +0.088 C 
ENDROOT
BRANCH   4   6
ATOM      6  N   UNL     1       8.716  -2.967  23.401  0.00  0.00    -0.320 N 
ATOM      7  C   UNL     1       8.365  -3.750  24.490  0.00  0.00    +0.051 A 
ATOM      8  C   UNL     1       7.153  -4.382  24.170  0.00  0.00    +0.003 A 
ATOM      9  C   UNL     1       6.524  -5.225  25.116  0.00  0.00    -0.041 A 
ATOM     10  C   UNL     1       7.158  -5.416  26.355  0.00  0.00    +0.004 A 
ATOM     11  C   UNL     1       8.366  -4.796  26.658  0.00  0.00    +0.002 A 
ATOM     12  C   UNL     1       5.200  -5.895  24.870  0.00  0.00    +0.044 C 
ATOM     13  C   UNL     1       6.796  -3.968  22.862  0.00  0.00    +0.028 A 
ATOM     14  C   UNL     1       8.985  -3.946  25.735  0.00  0.00    +0.026 A 
ATOM     15  C   UNL     1       7.739  -3.074  22.435  0.00  0.00    +0.089 A 
ENDBRANCH   4   6
BRANCH   1  16
ATOM     16  O   UNL     1       9.513   0.906  21.251  0.00  0.00    -0.389 OA
ATOM     17  H   UNL     1      10.241   1.388  21.681  0.00  0.00    +0.210 HD
ENDBRANCH   1  16
BRANCH   2  18
ATOM     18  C   UNL     1       7.752   0.601  24.063  0.00  0.00    +0.206 C 
BRANCH  18  19
ATOM     19  O   UNL     1       7.726   2.010  24.220  0.00  0.00    -0.284 OA
BRANCH  19  20
ATOM     20  P   UNL     1       6.889   2.863  23.163  0.00  0.00    +0.472 P 
ATOM     21  O   UNL     1       6.070   3.968  23.727  0.00  0.00    -0.228 OA
BRANCH  20  22
ATOM     22  O   UNL     1       6.044   1.748  22.397  0.00  0.00    -0.303 OA
ATOM     23  H   UNL     1       6.595   0.955  22.260  0.00  0.00    +0.222 HD
ENDBRANCH  20  22
BRANCH  20  24
ATOM     24  O   UNL     1       8.008   3.280  22.110  0.00  0.00    -0.303 OA
ATOM     25  H   UNL     1       8.885   3.010  22.437  0.00  0.00    +0.222 HD
ENDBRANCH  20  24
ENDBRANCH  19  20
ENDBRANCH  18  19
ENDBRANCH   2  18
TORSDOF 7
ENDMDL
