MODEL 1
REMARK VINA RESULT:      -7.4      0.000      0.000
REMARK  Name = 
REMARK  2 active torsions:
REMARK  status: ('A' for Active; 'I' for Inactive)
REMARK    1  A    between atoms: O_1  and  C_2
REMARK    2  A    between atoms: C_4  and  O_5
REMARK                            x       y       z     vdW  Elec       q    Type
REMARK                         _______ _______ _______ _____ _____    ______ ____
ROOT
ATOM      1  C   UNL     1       5.981  -4.245  25.759  0.00  0.00    +0.139 A 
ATOM      2  C   UNL     1       6.192  -2.887  25.588  0.00  0.00    +0.087 A 
ATOM      3 CL   UNL     1       5.101  -1.736  26.291  0.00  0.00    -0.079 Cl
ATOM      4  C   UNL     1       7.423  -2.443  25.074  0.00  0.00    -0.001 A 
ATOM      5  C   UNL     1       8.388  -2.115  26.283  0.00  0.00    +0.112 C 
ATOM      6  C   UNL     1       8.414  -0.666  26.645  0.00  0.00    +0.138 C 
ATOM      7  C   UNL     1       9.067   0.215  25.606  0.00  0.00    +0.074 C 
ATOM      8  C   UNL     1       8.150   1.343  25.146  0.00  0.00    +0.008 C 
ATOM      9  C   UNL     1       7.233   0.872  24.016  0.00  0.00    +0.004 C 
ATOM     10  C   UNL     1       6.542   1.934  23.149  0.00  0.00    +0.027 C 
ATOM     11  C   UNL     1       7.323   1.931  21.843  0.00  0.00    -0.031 C 
ATOM     12  C   UNL     1       8.587   2.368  21.940  0.00  0.00    -0.028 C 
ATOM     13  C   UNL     1       9.798   1.449  21.819  0.00  0.00    +0.068 C 
ATOM     14  C   UNL     1      10.039  -0.148  22.284  0.00  0.00    +0.236 C 
ATOM     15  O   UNL     1       8.964  -1.190  22.656  0.00  0.00    -0.461 OA
ATOM     16  C   UNL     1       9.301  -2.423  23.291  0.00  0.00    +0.343 C 
ATOM     17  O   UNL     1      10.439  -2.816  23.355  0.00  0.00    -0.245 OA
ATOM     18  O   UNL     1       7.977  -0.245  27.699  0.00  0.00    -0.297 OA
ATOM     19  C   UNL     1       8.121  -3.183  24.101  0.00  0.00    +0.105 A 
ATOM     20  C   UNL     1       8.005  -4.573  24.426  0.00  0.00    +0.135 A 
ATOM     21  C   UNL     1       6.946  -5.107  25.243  0.00  0.00    +0.093 A 
ENDROOT
BRANCH   1  22
ATOM     22  O   UNL     1       4.960  -4.686  26.572  0.00  0.00    -0.505 OA
ATOM     23  H   UNL     1       4.634  -4.000  27.195  0.00  0.00    +0.292 HD
ENDBRANCH   1  22
BRANCH  20  24
ATOM     24  O   UNL     1       8.996  -5.467  24.163  0.00  0.00    -0.506 OA
ATOM     25  H   UNL     1       8.826  -5.901  23.307  0.00  0.00    +0.292 HD
ENDBRANCH  20  24
TORSDOF 2
ENDMDL
MODEL 2
REMARK VINA RESULT:      -7.3      2.241      3.922
REMARK  Name = 
REMARK  2 active torsions:
REMARK  status: ('A' for Active; 'I' for Inactive)
REMARK    1  A    between atoms: O_1  and  C_2
REMARK    2  A    between atoms: C_4  and  O_5
REMARK                            x       y       z     vdW  Elec       q    Type
REMARK                         _______ _______ _______ _____ _____    ______ ____
ROOT
ATOM      1  C   UNL     1       4.969  -6.362  26.065  0.00  0.00    +0.139 A 
ATOM      2  C   UNL     1       5.981  -5.417  26.117  0.00  0.00    +0.087 A 
ATOM      3 CL   UNL     1       7.152  -5.459  27.396  0.00  0.00    -0.079 Cl
ATOM      4  C   UNL     1       6.211  -4.597  24.999  0.00  0.00    -0.001 A 
ATOM      5  C   UNL     1       7.322  -5.269  24.097  0.00  0.00    +0.112 C 
ATOM      6  C   UNL     1       8.692  -4.726  24.340  0.00  0.00    +0.138 C 
ATOM      7  C   UNL     1       8.879  -3.300  23.880  0.00  0.00    +0.074 C 
ATOM      8  C   UNL     1       9.374  -2.392  25.000  0.00  0.00    +0.008 C 
ATOM      9  C   UNL     1       8.203  -1.859  25.827  0.00  0.00    +0.004 C 
ATOM     10  C   UNL     1       8.440  -0.632  26.718  0.00  0.00    +0.027 C 
ATOM     11  C   UNL     1       7.785   0.519  25.968  0.00  0.00    -0.031 C 
ATOM     12  C   UNL     1       8.373   0.845  24.809  0.00  0.00    -0.028 C 
ATOM     13  C   UNL     1       7.746   0.564  23.448  0.00  0.00    +0.068 C 
ATOM     14  C   UNL     1       6.782  -0.701  22.903  0.00  0.00    +0.236 C 
ATOM     15  O   UNL     1       6.014  -1.731  23.756  0.00  0.00    -0.461 OA
ATOM     16  C   UNL     1       5.453  -2.913  23.184  0.00  0.00    +0.343 C 
ATOM     17  O   UNL     1       5.342  -3.050  21.991  0.00  0.00    -0.245 OA
ATOM     18  O   UNL     1       9.582  -5.392  24.834  0.00  0.00    -0.297 OA
ATOM     19  C   UNL     1       5.151  -4.148  24.188  0.00  0.00    +0.105 A 
ATOM     20  C   UNL     1       4.219  -5.224  24.034  0.00  0.00    +0.135 A 
ATOM     21  C   UNL     1       4.119  -6.321  24.961  0.00  0.00    +0.093 A 
ENDROOT
BRANCH   1  22
ATOM     22  O   UNL     1       4.946  -7.397  26.972  0.00  0.00    -0.505 OA
ATOM     23  H   UNL     1       4.115  -7.921  26.945  0.00  0.00    +0.292 HD
ENDBRANCH   1  22
BRANCH  20  24
ATOM     24  O   UNL     1       3.495  -5.404  22.896  0.00  0.00    -0.506 OA
ATOM     25  H   UNL     1       2.726  -5.972  23.083  0.00  0.00    +0.292 HD
ENDBRANCH  20  24
TORSDOF 2
ENDMDL
MODEL 3
REMARK VINA RESULT:      -7.3      2.293      5.731
REMARK  Name = 
REMARK  2 active torsions:
REMARK  status: ('A' for Active; 'I' for Inactive)
REMARK    1  A    between atoms: O_1  and  C_2
REMARK    2  A    between atoms: C_4  and  O_5
REMARK                            x       y       z     vdW  Elec       q    Type
REMARK                         _______ _______ _______ _____ _____    ______ ____
ROOT
ATOM      1  C   UNL     1       9.964  -0.321  24.756  0.00  0.00    +0.139 A 
ATOM      2  C   UNL     1       8.887  -0.940  25.371  0.00  0.00    +0.087 A 
ATOM      3 CL   UNL     1       8.377  -0.441  26.952  0.00  0.00    -0.079 Cl
ATOM      4  C   UNL     1       8.054  -1.780  24.612  0.00  0.00    -0.001 A 
ATOM      5  C   UNL     1       6.840  -0.928  24.062  0.00  0.00    +0.112 C 
ATOM      6  C   UNL     1       5.608  -1.044  24.899  0.00  0.00    +0.138 C 
ATOM      7  C   UNL     1       4.955  -2.405  24.846  0.00  0.00    +0.074 C 
ATOM      8  C   UNL     1       4.781  -3.016  26.232  0.00  0.00    +0.008 C 
ATOM      9  C   UNL     1       6.047  -3.759  26.662  0.00  0.00    +0.004 C 
ATOM     10  C   UNL     1       5.941  -4.771  27.811  0.00  0.00    +0.027 C 
ATOM     11  C   UNL     1       5.977  -6.131  27.129  0.00  0.00    -0.031 C 
ATOM     12  C   UNL     1       4.912  -6.405  26.362  0.00  0.00    -0.028 C 
ATOM     13  C   UNL     1       4.974  -6.455  24.839  0.00  0.00    +0.068 C 
ATOM     14  C   UNL     1       5.874  -5.570  23.729  0.00  0.00    +0.236 C 
ATOM     15  O   UNL     1       7.120  -4.705  24.006  0.00  0.00    -0.461 OA
ATOM     16  C   UNL     1       7.633  -3.792  23.036  0.00  0.00    +0.343 C 
ATOM     17  O   UNL     1       7.274  -3.818  21.886  0.00  0.00    -0.245 OA
ATOM     18  O   UNL     1       5.159  -0.111  25.536  0.00  0.00    -0.297 OA
ATOM     19  C   UNL     1       8.571  -2.587  23.580  0.00  0.00    +0.105 A 
ATOM     20  C   UNL     1       9.562  -1.832  22.875  0.00  0.00    +0.135 A 
ATOM     21  C   UNL     1      10.260  -0.712  23.452  0.00  0.00    +0.093 A 
ENDROOT
BRANCH   1  22
ATOM     22  O   UNL     1      10.572   0.759  25.355  0.00  0.00    -0.505 OA
ATOM     23  H   UNL     1       9.972   1.529  25.472  0.00  0.00    +0.292 HD
ENDBRANCH   1  22
BRANCH  20  24
ATOM     24  O   UNL     1       9.778  -1.982  21.540  0.00  0.00    -0.506 OA
ATOM     25  H   UNL     1       9.231  -1.345  21.046  0.00  0.00    +0.292 HD
ENDBRANCH  20  24
TORSDOF 2
ENDMDL
MODEL 4
REMARK VINA RESULT:      -7.2      2.379      6.108
REMARK  Name = 
REMARK  2 active torsions:
REMARK  status: ('A' for Active; 'I' for Inactive)
REMARK    1  A    between atoms: O_1  and  C_2
REMARK    2  A    between atoms: C_4  and  O_5
REMARK                            x       y       z     vdW  Elec       q    Type
REMARK                         _______ _______ _______ _____ _____    ______ ____
ROOT
ATOM      1  C   UNL     1       9.210   1.789  22.582  0.00  0.00    +0.139 A 
ATOM      2  C   UNL     1       8.854   0.452  22.519  0.00  0.00    +0.087 A 
ATOM      3 CL   UNL     1       9.244  -0.493  21.118  0.00  0.00    -0.079 Cl
ATOM      4  C   UNL     1       8.417  -0.198  23.687  0.00  0.00    -0.001 A 
ATOM      5  C   UNL     1       9.660  -0.892  24.376  0.00  0.00    +0.112 C 
ATOM      6  C   UNL     1       9.792  -2.341  24.039  0.00  0.00    +0.138 C 
ATOM      7  C   UNL     1       8.708  -3.211  24.629  0.00  0.00    +0.074 C 
ATOM      8  C   UNL     1       7.979  -4.026  23.568  0.00  0.00    +0.008 C 
ATOM      9  C   UNL     1       6.841  -3.216  22.945  0.00  0.00    +0.004 C 
ATOM     10  C   UNL     1       5.748  -3.970  22.174  0.00  0.00    +0.027 C 
ATOM     11  C   UNL     1       4.554  -3.984  23.116  0.00  0.00    -0.031 C 
ATOM     12  C   UNL     1       4.722  -4.712  24.229  0.00  0.00    -0.028 C 
ATOM     13  C   UNL     1       4.880  -4.092  25.614  0.00  0.00    +0.068 C 
ATOM     14  C   UNL     1       5.612  -2.667  26.122  0.00  0.00    +0.236 C 
ATOM     15  O   UNL     1       6.019  -1.459  25.254  0.00  0.00    -0.461 OA
ATOM     16  C   UNL     1       6.872  -0.428  25.753  0.00  0.00    +0.343 C 
ATOM     17  O   UNL     1       7.122  -0.323  26.928  0.00  0.00    -0.245 OA
ATOM     18  O   UNL     1      10.713  -2.778  23.375  0.00  0.00    -0.297 OA
ATOM     19  C   UNL     1       7.654   0.477  24.660  0.00  0.00    +0.105 A 
ATOM     20  C   UNL     1       8.177   1.802  24.800  0.00  0.00    +0.135 A 
ATOM     21  C   UNL     1       8.944   2.461  23.774  0.00  0.00    +0.093 A 
ENDROOT
BRANCH   1  22
ATOM     22  O   UNL     1       9.962   2.349  21.574  0.00  0.00    -0.505 OA
ATOM     23  H   UNL     1      10.101   3.316  21.682  0.00  0.00    +0.292 HD
ENDBRANCH   1  22
BRANCH  20  24
ATOM     24  O   UNL     1       8.168   2.468  25.986  0.00  0.00    -0.506 OA
ATOM     25  H   UNL     1       7.314   2.924  26.099  0.00  0.00    +0.292 HD
ENDBRANCH  20  24
TORSDOF 2
ENDMDL
MODEL 5
REMARK VINA RESULT:      -6.8      2.524      6.228
REMARK  Name = 
REMARK  2 active torsions:
REMARK  status: ('A' for Active; 'I' for Inactive)
REMARK    1  A    between atoms: O_1  and  C_2
REMARK    2  A    between atoms: C_4  and  O_5
REMARK                            x       y       z     vdW  Elec       q    Type
REMARK                         _______ _______ _______ _____ _____    ______ ____
ROOT
ATOM      1  C   UNL     1       8.473   0.947  22.280  0.00  0.00    +0.139 A 
ATOM      2  C   UNL     1       8.377  -0.434  22.318  0.00  0.00    +0.087 A 
ATOM      3 CL   UNL     1       9.305  -1.407  21.222  0.00  0.00    -0.079 Cl
ATOM      4  C   UNL     1       7.737  -1.047  23.410  0.00  0.00    -0.001 A 
ATOM      5  C   UNL     1       8.826  -1.413  24.496  0.00  0.00    +0.112 C 
ATOM      6  C   UNL     1       9.288  -2.831  24.419  0.00  0.00    +0.138 C 
ATOM      7  C   UNL     1       8.239  -3.842  24.820  0.00  0.00    +0.074 C 
ATOM      8  C   UNL     1       7.993  -4.881  23.732  0.00  0.00    +0.008 C 
ATOM      9  C   UNL     1       6.964  -4.374  22.719  0.00  0.00    +0.004 C 
ATOM     10  C   UNL     1       6.280  -5.399  21.803  0.00  0.00    +0.027 C 
ATOM     11  C   UNL     1       4.885  -5.564  22.386  0.00  0.00    -0.031 C 
ATOM     12  C   UNL     1       4.843  -6.138  23.596  0.00  0.00    -0.028 C 
ATOM     13  C   UNL     1       4.491  -5.374  24.869  0.00  0.00    +0.068 C 
ATOM     14  C   UNL     1       4.799  -3.791  25.342  0.00  0.00    +0.236 C 
ATOM     15  O   UNL     1       5.233  -2.612  24.449  0.00  0.00    -0.461 OA
ATOM     16  C   UNL     1       5.723  -1.390  25.002  0.00  0.00    +0.343 C 
ATOM     17  O   UNL     1       5.603  -1.129  26.172  0.00  0.00    -0.245 OA
ATOM     18  O   UNL     1      10.420  -3.135  24.094  0.00  0.00    -0.297 OA
ATOM     19  C   UNL     1       6.625  -0.452  24.036  0.00  0.00    +0.105 A 
ATOM     20  C   UNL     1       6.859   0.959  24.117  0.00  0.00    +0.135 A 
ATOM     21  C   UNL     1       7.769   1.659  23.248  0.00  0.00    +0.093 A 
ENDROOT
BRANCH   1  22
ATOM     22  O   UNL     1       9.381   1.551  21.438  0.00  0.00    -0.505 OA
ATOM     23  H   UNL     1       9.596   1.012  20.645  0.00  0.00    +0.292 HD
ENDBRANCH   1  22
BRANCH  20  24
ATOM     24  O   UNL     1       6.398   1.715  25.150  0.00  0.00    -0.506 OA
ATOM     25  H   UNL     1       5.604   1.300  25.531  0.00  0.00    +0.292 HD
ENDBRANCH  20  24
TORSDOF 2
ENDMDL
MODEL 6
REMARK VINA RESULT:      -6.8      2.481      3.766
REMARK  Name = 
REMARK  2 active torsions:
REMARK  status: ('A' for Active; 'I' for Inactive)
REMARK    1  A    between atoms: O_1  and  C_2
REMARK    2  A    between atoms: C_4  and  O_5
REMARK                            x       y       z     vdW  Elec       q    Type
REMARK                         _______ _______ _______ _____ _____    ______ ____
ROOT
ATOM      1  C   UNL     1       3.302  -5.310  25.179  0.00  0.00    +0.139 A 
ATOM      2  C   UNL     1       4.367  -4.610  25.724  0.00  0.00    +0.087 A 
ATOM      3 CL   UNL     1       4.336  -4.125  27.389  0.00  0.00    -0.079 Cl
ATOM      4  C   UNL     1       5.573  -4.527  25.005  0.00  0.00    -0.001 A 
ATOM      5  C   UNL     1       6.522  -5.703  25.471  0.00  0.00    +0.112 C 
ATOM      6  C   UNL     1       7.516  -5.288  26.505  0.00  0.00    +0.138 C 
ATOM      7  C   UNL     1       8.579  -4.345  25.993  0.00  0.00    +0.074 C 
ATOM      8  C   UNL     1       8.649  -3.057  26.805  0.00  0.00    +0.008 C 
ATOM      9  C   UNL     1       7.640  -2.031  26.285  0.00  0.00    +0.004 C 
ATOM     10  C   UNL     1       7.830  -0.560  26.680  0.00  0.00    +0.027 C 
ATOM     11  C   UNL     1       8.393   0.104  25.432  0.00  0.00    -0.031 C 
ATOM     12  C   UNL     1       9.625  -0.297  25.087  0.00  0.00    -0.028 C 
ATOM     13  C   UNL     1       9.907  -1.165  23.866  0.00  0.00    +0.068 C 
ATOM     14  C   UNL     1       9.022  -2.398  23.143  0.00  0.00    +0.236 C 
ATOM     15  O   UNL     1       7.530  -2.729  23.353  0.00  0.00    -0.461 OA
ATOM     16  C   UNL     1       6.960  -3.956  22.895  0.00  0.00    +0.343 C 
ATOM     17  O   UNL     1       7.543  -4.679  22.126  0.00  0.00    -0.245 OA
ATOM     18  O   UNL     1       7.485  -5.703  27.648  0.00  0.00    -0.297 OA
ATOM     19  C   UNL     1       5.584  -4.439  23.600  0.00  0.00    +0.105 A 
ATOM     20  C   UNL     1       4.571  -5.313  23.088  0.00  0.00    +0.135 A 
ATOM     21  C   UNL     1       3.436  -5.744  23.862  0.00  0.00    +0.093 A 
ENDROOT
BRANCH   1  22
ATOM     22  O   UNL     1       2.258  -5.709  25.983  0.00  0.00    -0.505 OA
ATOM     23  H   UNL     1       1.383  -5.387  25.674  0.00  0.00    +0.292 HD
ENDBRANCH   1  22
BRANCH  20  24
ATOM     24  O   UNL     1       4.704  -5.967  21.903  0.00  0.00    -0.506 OA
ATOM     25  H   UNL     1       4.860  -5.323  21.189  0.00  0.00    +0.292 HD
ENDBRANCH  20  24
TORSDOF 2
ENDMDL
MODEL 7
REMARK VINA RESULT:      -6.6      2.610      6.000
REMARK  Name = 
REMARK  2 active torsions:
REMARK  status: ('A' for Active; 'I' for Inactive)
REMARK    1  A    between atoms: O_1  and  C_2
REMARK    2  A    between atoms: C_4  and  O_5
REMARK                            x       y       z     vdW  Elec       q    Type
REMARK                         _______ _______ _______ _____ _____    ______ ____
ROOT
ATOM      1  C   UNL     1       9.678   0.190  24.330  0.00  0.00    +0.139 A 
ATOM      2  C   UNL     1       9.350  -1.147  24.174  0.00  0.00    +0.087 A 
ATOM      3 CL   UNL     1      10.568  -2.302  23.735  0.00  0.00    -0.079 Cl
ATOM      4  C   UNL     1       8.099  -1.604  24.625  0.00  0.00    -0.001 A 
ATOM      5  C   UNL     1       8.261  -2.147  26.102  0.00  0.00    +0.112 C 
ATOM      6  C   UNL     1       8.436  -3.629  26.173  0.00  0.00    +0.138 C 
ATOM      7  C   UNL     1       7.203  -4.413  25.791  0.00  0.00    +0.074 C 
ATOM      8  C   UNL     1       7.476  -5.409  24.670  0.00  0.00    +0.008 C 
ATOM      9  C   UNL     1       7.343  -4.738  23.302  0.00  0.00    +0.004 C 
ATOM     10  C   UNL     1       7.171  -5.633  22.066  0.00  0.00    +0.027 C 
ATOM     11  C   UNL     1       5.696  -5.517  21.710  0.00  0.00    -0.031 C 
ATOM     12  C   UNL     1       4.855  -6.047  22.610  0.00  0.00    -0.028 C 
ATOM     13  C   UNL     1       3.955  -5.204  23.506  0.00  0.00    +0.068 C 
ATOM     14  C   UNL     1       4.182  -3.698  24.218  0.00  0.00    +0.236 C 
ATOM     15  O   UNL     1       5.247  -2.642  23.861  0.00  0.00    -0.461 OA
ATOM     16  C   UNL     1       5.512  -1.524  24.709  0.00  0.00    +0.343 C 
ATOM     17  O   UNL     1       4.771  -1.220  25.610  0.00  0.00    -0.245 OA
ATOM     18  O   UNL     1       9.473  -4.149  26.539  0.00  0.00    -0.297 OA
ATOM     19  C   UNL     1       6.950  -0.795  24.542  0.00  0.00    +0.105 A 
ATOM     20  C   UNL     1       7.321   0.547  24.878  0.00  0.00    +0.135 A 
ATOM     21  C   UNL     1       8.669   1.043  24.771  0.00  0.00    +0.093 A 
ENDROOT
BRANCH   1  22
ATOM     22  O   UNL     1      10.992   0.592  24.235  0.00  0.00    -0.505 OA
ATOM     23  H   UNL     1      11.388   0.422  23.352  0.00  0.00    +0.292 HD
ENDBRANCH   1  22
BRANCH  20  24
ATOM     24  O   UNL     1       6.474   1.399  25.516  0.00  0.00    -0.506 OA
ATOM     25  H   UNL     1       5.935   1.877  24.861  0.00  0.00    +0.292 HD
ENDBRANCH  20  24
TORSDOF 2
ENDMDL
MODEL 8
REMARK VINA RESULT:      -6.6      2.477      6.185
REMARK  Name = 
REMARK  2 active torsions:
REMARK  status: ('A' for Active; 'I' for Inactive)
REMARK    1  A    between atoms: O_1  and  C_2
REMARK    2  A    between atoms: C_4  and  O_5
REMARK                            x       y       z     vdW  Elec       q    Type
REMARK                         _______ _______ _______ _____ _____    ______ ____
ROOT
ATOM      1  C   UNL     1       8.111   3.388  23.553  0.00  0.00    +0.139 A 
ATOM      2  C   UNL     1       8.056   2.041  23.235  0.00  0.00    +0.087 A 
ATOM      3 CL   UNL     1       8.341   1.513  21.608  0.00  0.00    -0.079 Cl
ATOM      4  C   UNL     1       8.030   1.092  24.272  0.00  0.00    -0.001 A 
ATOM      5  C   UNL     1       9.513   0.632  24.574  0.00  0.00    +0.112 C 
ATOM      6  C   UNL     1       9.889  -0.642  23.890  0.00  0.00    +0.138 C 
ATOM      7  C   UNL     1       9.174  -1.861  24.423  0.00  0.00    +0.074 C 
ATOM      8  C   UNL     1       8.437  -2.624  23.329  0.00  0.00    +0.008 C 
ATOM      9  C   UNL     1       7.043  -2.038  23.101  0.00  0.00    +0.004 C 
ATOM     10  C   UNL     1       6.008  -2.893  22.357  0.00  0.00    +0.027 C 
ATOM     11  C   UNL     1       5.072  -3.396  23.446  0.00  0.00    -0.031 C 
ATOM     12  C   UNL     1       5.628  -4.251  24.317  0.00  0.00    -0.028 C 
ATOM     13  C   UNL     1       5.933  -3.884  25.765  0.00  0.00    +0.068 C 
ATOM     14  C   UNL     1       6.421  -2.439  26.472  0.00  0.00    +0.236 C 
ATOM     15  O   UNL     1       6.358  -1.026  25.858  0.00  0.00    -0.461 OA
ATOM     16  C   UNL     1       7.046   0.080  26.443  0.00  0.00    +0.343 C 
ATOM     17  O   UNL     1       7.508   0.024  27.555  0.00  0.00    -0.245 OA
ATOM     18  O   UNL     1      10.722  -0.689  23.005  0.00  0.00    -0.297 OA
ATOM     19  C   UNL     1       7.359   1.348  25.484  0.00  0.00    +0.105 A 
ATOM     20  C   UNL     1       7.593   2.713  25.846  0.00  0.00    +0.135 A 
ATOM     21  C   UNL     1       7.961   3.730  24.895  0.00  0.00    +0.093 A 
ENDROOT
BRANCH   1  22
ATOM     22  O   UNL     1       8.491   4.306  22.599  0.00  0.00    -0.505 OA
ATOM     23  H   UNL     1       8.687   3.901  21.725  0.00  0.00    +0.292 HD
ENDBRANCH   1  22
BRANCH  20  24
ATOM     24  O   UNL     1       7.686   3.117  27.142  0.00  0.00    -0.506 OA
ATOM     25  H   UNL     1       8.624   3.171  27.401  0.00  0.00    +0.292 HD
ENDBRANCH  20  24
TORSDOF 2
ENDMDL
MODEL 9
REMARK VINA RESULT:      -6.5      2.319      6.103
REMARK  Name = 
REMARK  2 active torsions:
REMARK  status: ('A' for Active; 'I' for Inactive)
REMARK    1  A    between atoms: O_1  and  C_2
REMARK    2  A    between atoms: C_4  and  O_5
REMARK                            x       y       z     vdW  Elec       q    Type
REMARK                         _______ _______ _______ _____ _____    ______ ____
ROOT
ATOM      1  C   UNL     1       9.200   0.757  22.961  0.00  0.00    +0.139 A 
ATOM      2  C   UNL     1       8.705  -0.537  22.978  0.00  0.00    +0.087 A 
ATOM      3 CL   UNL     1       9.124  -1.651  21.716  0.00  0.00    -0.079 Cl
ATOM      4  C   UNL     1       8.085  -1.019  24.144  0.00  0.00    -0.001 A 
ATOM      5  C   UNL     1       9.169  -1.763  25.023  0.00  0.00    +0.112 C 
ATOM      6  C   UNL     1       9.171  -3.245  24.832  0.00  0.00    +0.138 C 
ATOM      7  C   UNL     1       7.944  -3.937  25.375  0.00  0.00    +0.074 C 
ATOM      8  C   UNL     1       7.237  -4.776  24.317  0.00  0.00    +0.008 C 
ATOM      9  C   UNL     1       6.264  -3.920  23.504  0.00  0.00    +0.004 C 
ATOM     10  C   UNL     1       5.175  -4.632  22.689  0.00  0.00    +0.027 C 
ATOM     11  C   UNL     1       3.900  -4.430  23.493  0.00  0.00    -0.031 C 
ATOM     12  C   UNL     1       3.874  -5.057  24.677  0.00  0.00    -0.028 C 
ATOM     13  C   UNL     1       3.963  -4.322  26.011  0.00  0.00    +0.068 C 
ATOM     14  C   UNL     1       4.795  -2.935  26.468  0.00  0.00    +0.236 C 
ATOM     15  O   UNL     1       5.419  -1.868  25.546  0.00  0.00    -0.461 OA
ATOM     16  C   UNL     1       6.328  -0.884  26.042  0.00  0.00    +0.343 C 
ATOM     17  O   UNL     1       6.470  -0.688  27.223  0.00  0.00    -0.245 OA
ATOM     18  O   UNL     1      10.099  -3.837  24.313  0.00  0.00    -0.297 OA
ATOM     19  C   UNL     1       7.310  -0.176  24.964  0.00  0.00    +0.105 A 
ATOM     20  C   UNL     1       7.961   1.096  25.043  0.00  0.00    +0.135 A 
ATOM     21  C   UNL     1       8.895   1.568  24.052  0.00  0.00    +0.093 A 
ENDROOT
BRANCH   1  22
ATOM     22  O   UNL     1      10.106   1.135  21.996  0.00  0.00    -0.505 OA
ATOM     23  H   UNL     1       9.754   1.063  21.081  0.00  0.00    +0.292 HD
ENDBRANCH   1  22
BRANCH  20  24
ATOM     24  O   UNL     1       7.909   1.874  26.158  0.00  0.00    -0.506 OA
ATOM     25  H   UNL     1       8.809   2.017  26.500  0.00  0.00    +0.292 HD
ENDBRANCH  20  24
TORSDOF 2
ENDMDL
