MODEL 1
REMARK VINA RESULT:      -2.6      0.000      0.000
REMARK  Name = 
REMARK  1 active torsions:
REMARK  status: ('A' for Active; 'I' for Inactive)
REMARK    1  A    between atoms: C_1  and  C_2
REMARK                            x       y       z     vdW  Elec       q    Type
REMARK                         _______ _______ _______ _____ _____    ______ ____
ROOT
ATOM      1  C   UNL     1       9.446  -0.104  21.467  0.00  0.00    +0.109 C 
ATOM      2  C   UNL     1       9.083   1.352  21.530  0.00  0.00    +0.207 C 
ATOM      3  O   UNL     1       7.932   1.761  21.428  0.00  0.00    -0.276 OA
ATOM      4  N   UNL     1      10.124   2.209  21.711  0.00  0.00    -0.330 N 
ATOM      5  H   UNL     1       9.913   3.198  21.758  0.00  0.00    +0.145 HD
ATOM      6  H   UNL     1      11.084   1.911  21.799  0.00  0.00    +0.145 HD
ENDROOT
TORSDOF 0
ENDMDL
MODEL 2
REMARK VINA RESULT:      -2.5      1.764      1.764
REMARK  Name = 
REMARK  1 active torsions:
REMARK  status: ('A' for Active; 'I' for Inactive)
REMARK    1  A    between atoms: C_1  and  C_2
REMARK                            x       y       z     vdW  Elec       q    Type
REMARK                         _______ _______ _______ _____ _____    ______ ____
ROOT
ATOM      1  C   UNL     1       9.414  -0.164  21.405  0.00  0.00    +0.109 C 
ATOM      2  C   UNL     1       9.994   0.963  22.208  0.00  0.00    +0.207 C 
ATOM      3  O   UNL     1      10.474   0.813  23.326  0.00  0.00    -0.276 OA
ATOM      4  N   UNL     1       9.957   2.188  21.615  0.00  0.00    -0.330 N 
ATOM      5  H   UNL     1      10.341   2.970  22.130  0.00  0.00    +0.145 HD
ATOM      6  H   UNL     1       9.571   2.352  20.697  0.00  0.00    +0.145 HD
ENDROOT
TORSDOF 0
ENDMDL
MODEL 3
REMARK VINA RESULT:      -2.5      1.713      1.713
REMARK  Name = 
REMARK  1 active torsions:
REMARK  status: ('A' for Active; 'I' for Inactive)
REMARK    1  A    between atoms: C_1  and  C_2
REMARK                            x       y       z     vdW  Elec       q    Type
REMARK                         _______ _______ _______ _____ _____    ______ ____
ROOT
ATOM      1  C   UNL     1      10.369   0.571  23.420  0.00  0.00    +0.109 C 
ATOM      2  C   UNL     1       9.897   0.868  22.025  0.00  0.00    +0.207 C 
ATOM      3  O   UNL     1       9.464   0.008  21.267  0.00  0.00    -0.276 OA
ATOM      4  N   UNL     1       9.979   2.171  21.643  0.00  0.00    -0.330 N 
ATOM      5  H   UNL     1       9.669   2.405  20.708  0.00  0.00    +0.145 HD
ATOM      6  H   UNL     1      10.329   2.907  22.238  0.00  0.00    +0.145 HD
ENDROOT
TORSDOF 0
ENDMDL
MODEL 4
REMARK VINA RESULT:      -2.5      5.632      5.772
REMARK  Name = 
REMARK  1 active torsions:
REMARK  status: ('A' for Active; 'I' for Inactive)
REMARK    1  A    between atoms: C_1  and  C_2
REMARK                            x       y       z     vdW  Elec       q    Type
REMARK                         _______ _______ _______ _____ _____    ______ ____
ROOT
ATOM      1  C   UNL     1      13.324   5.620  21.963  0.00  0.00    +0.109 C 
ATOM      2  C   UNL     1      12.608   5.243  23.228  0.00  0.00    +0.207 C 
ATOM      3  O   UNL     1      12.024   4.176  23.377  0.00  0.00    -0.276 OA
ATOM      4  N   UNL     1      12.644   6.173  24.222  0.00  0.00    -0.330 N 
ATOM      5  H   UNL     1      12.172   5.950  25.089  0.00  0.00    +0.145 HD
ATOM      6  H   UNL     1      13.114   7.062  24.138  0.00  0.00    +0.145 HD
ENDROOT
TORSDOF 0
ENDMDL
MODEL 5
REMARK VINA RESULT:      -2.5      7.622      7.786
REMARK  Name = 
REMARK  1 active torsions:
REMARK  status: ('A' for Active; 'I' for Inactive)
REMARK    1  A    between atoms: C_1  and  C_2
REMARK                            x       y       z     vdW  Elec       q    Type
REMARK                         _______ _______ _______ _____ _____    ______ ____
ROOT
ATOM      1  C   UNL     1       8.036  -5.216  26.334  0.00  0.00    +0.109 C 
ATOM      2  C   UNL     1       9.049  -5.336  25.233  0.00  0.00    +0.207 C 
ATOM      3  O   UNL     1       8.758  -5.275  24.044  0.00  0.00    -0.276 OA
ATOM      4  N   UNL     1      10.336  -5.520  25.635  0.00  0.00    -0.330 N 
ATOM      5  H   UNL     1      11.044  -5.605  24.917  0.00  0.00    +0.145 HD
ATOM      6  H   UNL     1      10.616  -5.575  26.604  0.00  0.00    +0.145 HD
ENDROOT
TORSDOF 0
ENDMDL
MODEL 6
REMARK VINA RESULT:      -2.4      2.896      2.896
REMARK  Name = 
REMARK  1 active torsions:
REMARK  status: ('A' for Active; 'I' for Inactive)
REMARK    1  A    between atoms: C_1  and  C_2
REMARK                            x       y       z     vdW  Elec       q    Type
REMARK                         _______ _______ _______ _____ _____    ______ ____
ROOT
ATOM      1  C   UNL     1      10.413   1.447  24.094  0.00  0.00    +0.109 C 
ATOM      2  C   UNL     1      10.582   2.551  23.090  0.00  0.00    +0.207 C 
ATOM      3  O   UNL     1      11.074   3.639  23.366  0.00  0.00    -0.276 OA
ATOM      4  N   UNL     1      10.150   2.270  21.831  0.00  0.00    -0.330 N 
ATOM      5  H   UNL     1      10.250   2.993  21.129  0.00  0.00    +0.145 HD
ATOM      6  H   UNL     1       9.740   1.387  21.565  0.00  0.00    +0.145 HD
ENDROOT
TORSDOF 0
ENDMDL
MODEL 7
REMARK VINA RESULT:      -2.3      3.537      3.659
REMARK  Name = 
REMARK  1 active torsions:
REMARK  status: ('A' for Active; 'I' for Inactive)
REMARK    1  A    between atoms: C_1  and  C_2
REMARK                            x       y       z     vdW  Elec       q    Type
REMARK                         _______ _______ _______ _____ _____    ______ ____
ROOT
ATOM      1  C   UNL     1      10.487  -0.123  23.513  0.00  0.00    +0.109 C 
ATOM      2  C   UNL     1      10.277  -1.344  22.664  0.00  0.00    +0.207 C 
ATOM      3  O   UNL     1      10.457  -2.485  23.075  0.00  0.00    -0.276 OA
ATOM      4  N   UNL     1       9.868  -1.109  21.388  0.00  0.00    -0.330 N 
ATOM      5  H   UNL     1       9.717  -1.911  20.789  0.00  0.00    +0.145 HD
ATOM      6  H   UNL     1       9.709  -0.185  21.014  0.00  0.00    +0.145 HD
ENDROOT
TORSDOF 0
ENDMDL
MODEL 8
REMARK VINA RESULT:      -2.3      7.820      8.065
REMARK  Name = 
REMARK  1 active torsions:
REMARK  status: ('A' for Active; 'I' for Inactive)
REMARK    1  A    between atoms: C_1  and  C_2
REMARK                            x       y       z     vdW  Elec       q    Type
REMARK                         _______ _______ _______ _____ _____    ______ ____
ROOT
ATOM      1  C   UNL     1       8.594  -3.574  26.315  0.00  0.00    +0.109 C 
ATOM      2  C   UNL     1       8.693  -5.069  26.226  0.00  0.00    +0.207 C 
ATOM      3  O   UNL     1       7.789  -5.823  26.568  0.00  0.00    -0.276 OA
ATOM      4  N   UNL     1       9.867  -5.552  25.735  0.00  0.00    -0.330 N 
ATOM      5  H   UNL     1       9.967  -6.557  25.662  0.00  0.00    +0.145 HD
ATOM      6  H   UNL     1      10.634  -4.964  25.443  0.00  0.00    +0.145 HD
ENDROOT
TORSDOF 0
ENDMDL
MODEL 9
REMARK VINA RESULT:      -2.2      2.044      2.240
REMARK  Name = 
REMARK  1 active torsions:
REMARK  status: ('A' for Active; 'I' for Inactive)
REMARK    1  A    between atoms: C_1  and  C_2
REMARK                            x       y       z     vdW  Elec       q    Type
REMARK                         _______ _______ _______ _____ _____    ______ ____
ROOT
ATOM      1  C   UNL     1       9.835   1.317  21.899  0.00  0.00    +0.109 C 
ATOM      2  C   UNL     1       9.138  -0.013  21.913  0.00  0.00    +0.207 C 
ATOM      3  O   UNL     1       8.065  -0.202  22.473  0.00  0.00    -0.276 OA
ATOM      4  N   UNL     1       9.779  -1.018  21.256  0.00  0.00    -0.330 N 
ATOM      5  H   UNL     1       9.336  -1.928  21.245  0.00  0.00    +0.145 HD
ATOM      6  H   UNL     1      10.663  -0.901  20.783  0.00  0.00    +0.145 HD
ENDROOT
TORSDOF 0
ENDMDL
