MODEL 1
REMARK VINA RESULT:      -4.7      0.000      0.000
REMARK  Name = 
REMARK  9 active torsions:
REMARK  status: ('A' for Active; 'I' for Inactive)
REMARK    1  A    between atoms: O_1  and  C_2
REMARK    2  A    between atoms: C_2  and  C_4
REMARK    3  A    between atoms: C_2  and  C_13
REMARK    4  A    between atoms: C_4  and  O_6
REMARK    5  A    between atoms: C_4  and  C_7
REMARK    6  A    between atoms: C_7  and  O_9
REMARK    7  A    between atoms: C_7  and  C_10
REMARK    8  A    between atoms: C_13  and  O_15
REMARK    9  A    between atoms: C_13  and  C_16
REMARK                            x       y       z     vdW  Elec       q    Type
REMARK                         _______ _______ _______ _____ _____    ______ ____
ROOT
ATOM      1  C   UNL     1       8.989  -1.388  21.913  0.00  0.00    +0.180 C 
ENDROOT
BRANCH   1   2
ATOM      2  O   UNL     1      10.434  -1.593  22.013  0.00  0.00    -0.386 OA
ATOM      3  H   UNL     1      10.615  -2.244  21.302  0.00  0.00    +0.210 HD
ENDBRANCH   1   2
BRANCH   1   4
ATOM      4  C   UNL     1       8.366  -2.309  22.980  0.00  0.00    +0.191 C 
BRANCH   4   5
ATOM      5  C   UNL     1       9.262  -2.594  24.217  0.00  0.00    +0.073 C 
ATOM      6  O   UNL     1      10.100  -3.537  24.095  0.00  0.00    -0.547 OA
ATOM      7  O   UNL     1       8.986  -1.926  25.256  0.00  0.00    -0.547 OA
ENDBRANCH   4   5
BRANCH   4   8
ATOM      8  O   UNL     1       7.856  -3.525  22.356  0.00  0.00    -0.383 OA
ATOM      9  H   UNL     1       8.589  -4.159  22.443  0.00  0.00    +0.210 HD
ENDBRANCH   4   8
ENDBRANCH   1   4
BRANCH   1  10
ATOM     10  C   UNL     1       8.727   0.138  22.114  0.00  0.00    +0.180 C 
BRANCH  10  11
ATOM     11  O   UNL     1       7.975   0.253  23.349  0.00  0.00    -0.386 OA
ATOM     12  H   UNL     1       7.236   0.860  23.124  0.00  0.00    +0.210 HD
ENDBRANCH  10  11
BRANCH  10  13
ATOM     13  C   UNL     1      10.040   0.937  22.284  0.00  0.00    +0.191 C 
BRANCH  13  14
ATOM     14  C   UNL     1      10.334   1.314  23.769  0.00  0.00    +0.073 C 
ATOM     15  O   UNL     1      11.030   0.457  24.404  0.00  0.00    -0.547 OA
ATOM     16  O   UNL     1       9.895   2.425  24.188  0.00  0.00    -0.547 OA
ENDBRANCH  13  14
BRANCH  13  17
ATOM     17  O   UNL     1      10.055   2.133  21.459  0.00  0.00    -0.383 OA
ATOM     18  H   UNL     1       9.381   1.990  20.778  0.00  0.00    +0.210 HD
ENDBRANCH  13  17
ENDBRANCH  10  13
ENDBRANCH   1  10
TORSDOF 9
ENDMDL
MODEL 2
REMARK VINA RESULT:      -4.7      0.219      4.249
REMARK  Name = 
REMARK  9 active torsions:
REMARK  status: ('A' for Active; 'I' for Inactive)
REMARK    1  A    between atoms: O_1  and  C_2
REMARK    2  A    between atoms: C_2  and  C_4
REMARK    3  A    between atoms: C_2  and  C_13
REMARK    4  A    between atoms: C_4  and  O_6
REMARK    5  A    between atoms: C_4  and  C_7
REMARK    6  A    between atoms: C_7  and  O_9
REMARK    7  A    between atoms: C_7  and  C_10
REMARK    8  A    between atoms: C_13  and  O_15
REMARK    9  A    between atoms: C_13  and  C_16
REMARK                            x       y       z     vdW  Elec       q    Type
REMARK                         _______ _______ _______ _____ _____    ______ ____
ROOT
ATOM      1  C   UNL     1       8.869  -0.000  22.164  0.00  0.00    +0.180 C 
ENDROOT
BRANCH   1   2
ATOM      2  O   UNL     1       8.030   0.158  23.352  0.00  0.00    -0.386 OA
ATOM      3  H   UNL     1       8.685   0.229  24.078  0.00  0.00    +0.210 HD
ENDBRANCH   1   2
BRANCH   1   4
ATOM      4  C   UNL     1      10.090   0.910  22.397  0.00  0.00    +0.191 C 
BRANCH   4   5
ATOM      5  C   UNL     1      10.341   1.322  23.874  0.00  0.00    +0.073 C 
ATOM      6  O   UNL     1      11.004   0.501  24.577  0.00  0.00    -0.547 OA
ATOM      7  O   UNL     1       9.764   2.383  24.251  0.00  0.00    -0.547 OA
ENDBRANCH   4   5
BRANCH   4   8
ATOM      8  O   UNL     1      10.042   2.052  21.490  0.00  0.00    -0.383 OA
ATOM      9  H   UNL     1       9.299   2.586  21.821  0.00  0.00    +0.210 HD
ENDBRANCH   4   8
ENDBRANCH   1   4
BRANCH   1  10
ATOM     10  C   UNL     1       9.188  -1.523  22.030  0.00  0.00    +0.180 C 
BRANCH  10  11
ATOM     11  O   UNL     1      10.589  -1.667  22.380  0.00  0.00    -0.386 OA
ATOM     12  H   UNL     1      10.982  -2.132  21.609  0.00  0.00    +0.210 HD
ENDBRANCH  10  11
BRANCH  10  13
ATOM     13  C   UNL     1       8.363  -2.381  23.015  0.00  0.00    +0.191 C 
BRANCH  13  14
ATOM     14  C   UNL     1       9.165  -2.779  24.293  0.00  0.00    +0.073 C 
ATOM     15  O   UNL     1       9.059  -1.957  25.261  0.00  0.00    -0.547 OA
ATOM     16  O   UNL     1       9.804  -3.871  24.266  0.00  0.00    -0.547 OA
ENDBRANCH  13  14
BRANCH  13  17
ATOM     17  O   UNL     1       7.829  -3.572  22.378  0.00  0.00    -0.383 OA
ATOM     18  H   UNL     1       6.887  -3.590  22.604  0.00  0.00    +0.210 HD
ENDBRANCH  13  17
ENDBRANCH  10  13
ENDBRANCH   1  10
TORSDOF 9
ENDMDL
MODEL 3
REMARK VINA RESULT:      -4.6      2.238      5.336
REMARK  Name = 
REMARK  9 active torsions:
REMARK  status: ('A' for Active; 'I' for Inactive)
REMARK    1  A    between atoms: O_1  and  C_2
REMARK    2  A    between atoms: C_2  and  C_4
REMARK    3  A    between atoms: C_2  and  C_13
REMARK    4  A    between atoms: C_4  and  O_6
REMARK    5  A    between atoms: C_4  and  C_7
REMARK    6  A    between atoms: C_7  and  O_9
REMARK    7  A    between atoms: C_7  and  C_10
REMARK    8  A    between atoms: C_13  and  O_15
REMARK    9  A    between atoms: C_13  and  C_16
REMARK                            x       y       z     vdW  Elec       q    Type
REMARK                         _______ _______ _______ _____ _____    ______ ____
ROOT
ATOM      1  C   UNL     1       9.067  -2.787  23.493  0.00  0.00    +0.180 C 
ENDROOT
BRANCH   1   2
ATOM      2  O   UNL     1       7.824  -2.071  23.778  0.00  0.00    -0.386 OA
ATOM      3  H   UNL     1       7.368  -2.065  22.910  0.00  0.00    +0.210 HD
ENDBRANCH   1   2
BRANCH   1   4
ATOM      4  C   UNL     1      10.087  -1.703  23.093  0.00  0.00    +0.191 C 
BRANCH   4   5
ATOM      5  C   UNL     1       9.856  -0.305  23.731  0.00  0.00    +0.073 C 
ATOM      6  O   UNL     1      10.088  -0.214  24.974  0.00  0.00    -0.547 OA
ATOM      7  O   UNL     1       9.355   0.568  22.965  0.00  0.00    -0.547 OA
ENDBRANCH   4   5
BRANCH   4   8
ATOM      8  O   UNL     1      10.216  -1.650  21.640  0.00  0.00    -0.383 OA
ATOM      9  H   UNL     1      10.725  -0.837  21.478  0.00  0.00    +0.210 HD
ENDBRANCH   4   8
ENDBRANCH   1   4
BRANCH   1  10
ATOM     10  C   UNL     1       9.430  -3.603  24.774  0.00  0.00    +0.180 C 
BRANCH  10  11
ATOM     11  O   UNL     1       8.805  -2.904  25.880  0.00  0.00    -0.386 OA
ATOM     12  H   UNL     1       9.411  -3.062  26.637  0.00  0.00    +0.210 HD
ENDBRANCH  10  11
BRANCH  10  13
ATOM     13  C   UNL     1       8.853  -5.037  24.734  0.00  0.00    +0.191 C 
BRANCH  13  14
ATOM     14  C   UNL     1       7.551  -5.192  25.580  0.00  0.00    +0.073 C 
ATOM     15  O   UNL     1       6.513  -4.678  25.049  0.00  0.00    -0.547 OA
ATOM     16  O   UNL     1       7.634  -5.827  26.671  0.00  0.00    -0.547 OA
ENDBRANCH  13  14
BRANCH  13  17
ATOM     17  O   UNL     1       9.833  -6.025  25.153  0.00  0.00    -0.383 OA
ATOM     18  H   UNL     1       9.443  -6.887  24.942  0.00  0.00    +0.210 HD
ENDBRANCH  13  17
ENDBRANCH  10  13
ENDBRANCH   1  10
TORSDOF 9
ENDMDL
MODEL 4
REMARK VINA RESULT:      -4.5      2.261      3.421
REMARK  Name = 
REMARK  9 active torsions:
REMARK  status: ('A' for Active; 'I' for Inactive)
REMARK    1  A    between atoms: O_1  and  C_2
REMARK    2  A    between atoms: C_2  and  C_4
REMARK    3  A    between atoms: C_2  and  C_13
REMARK    4  A    between atoms: C_4  and  O_6
REMARK    5  A    between atoms: C_4  and  C_7
REMARK    6  A    between atoms: C_7  and  O_9
REMARK    7  A    between atoms: C_7  and  C_10
REMARK    8  A    between atoms: C_13  and  O_15
REMARK    9  A    between atoms: C_13  and  C_16
REMARK                            x       y       z     vdW  Elec       q    Type
REMARK                         _______ _______ _______ _____ _____    ______ ____
ROOT
ATOM      1  C   UNL     1       9.348  -3.603  24.709  0.00  0.00    +0.180 C 
ENDROOT
BRANCH   1   2
ATOM      2  O   UNL     1       8.755  -2.892  25.842  0.00  0.00    -0.386 OA
ATOM      3  H   UNL     1       9.515  -2.770  26.449  0.00  0.00    +0.210 HD
ENDBRANCH   1   2
BRANCH   1   4
ATOM      4  C   UNL     1       8.811  -5.045  24.801  0.00  0.00    +0.191 C 
BRANCH   4   5
ATOM      5  C   UNL     1       7.532  -5.225  25.665  0.00  0.00    +0.073 C 
ATOM      6  O   UNL     1       6.469  -4.712  25.203  0.00  0.00    -0.547 OA
ATOM      7  O   UNL     1       7.708  -5.770  26.794  0.00  0.00    -0.547 OA
ENDBRANCH   4   5
BRANCH   4   8
ATOM      8  O   UNL     1       9.886  -5.955  25.183  0.00  0.00    -0.383 OA
ATOM      9  H   UNL     1       9.473  -6.549  25.833  0.00  0.00    +0.210 HD
ENDBRANCH   4   8
ENDBRANCH   1   4
BRANCH   1  10
ATOM     10  C   UNL     1       8.946  -2.824  23.418  0.00  0.00    +0.180 C 
BRANCH  10  11
ATOM     11  O   UNL     1       7.649  -2.236  23.695  0.00  0.00    -0.386 OA
ATOM     12  H   UNL     1       7.825  -1.594  24.417  0.00  0.00    +0.210 HD
ENDBRANCH  10  11
BRANCH  10  13
ATOM     13  C   UNL     1       9.928  -1.673  23.101  0.00  0.00    +0.191 C 
BRANCH  13  14
ATOM     14  C   UNL     1       9.401  -0.279  23.564  0.00  0.00    +0.073 C 
ATOM     15  O   UNL     1       8.938   0.449  22.627  0.00  0.00    -0.547 OA
ATOM     16  O   UNL     1       9.448  -0.018  24.802  0.00  0.00    -0.547 OA
ENDBRANCH  13  14
BRANCH  13  17
ATOM     17  O   UNL     1      10.271  -1.627  21.691  0.00  0.00    -0.383 OA
ATOM     18  H   UNL     1      10.483  -2.539  21.442  0.00  0.00    +0.210 HD
ENDBRANCH  13  17
ENDBRANCH  10  13
ENDBRANCH   1  10
TORSDOF 9
ENDMDL
MODEL 5
REMARK VINA RESULT:      -4.5      1.083      2.262
REMARK  Name = 
REMARK  9 active torsions:
REMARK  status: ('A' for Active; 'I' for Inactive)
REMARK    1  A    between atoms: O_1  and  C_2
REMARK    2  A    between atoms: C_2  and  C_4
REMARK    3  A    between atoms: C_2  and  C_13
REMARK    4  A    between atoms: C_4  and  O_6
REMARK    5  A    between atoms: C_4  and  C_7
REMARK    6  A    between atoms: C_7  and  O_9
REMARK    7  A    between atoms: C_7  and  C_10
REMARK    8  A    between atoms: C_13  and  O_15
REMARK    9  A    between atoms: C_13  and  C_16
REMARK                            x       y       z     vdW  Elec       q    Type
REMARK                         _______ _______ _______ _____ _____    ______ ____
ROOT
ATOM      1  C   UNL     1       9.194  -0.421  21.750  0.00  0.00    +0.180 C 
ENDROOT
BRANCH   1   2
ATOM      2  O   UNL     1      10.140  -1.469  21.366  0.00  0.00    -0.386 OA
ATOM      3  H   UNL     1      10.751  -1.004  20.757  0.00  0.00    +0.210 HD
ENDBRANCH   1   2
BRANCH   1   4
ATOM      4  C   UNL     1       8.347  -1.026  22.886  0.00  0.00    +0.191 C 
BRANCH   4   5
ATOM      5  C   UNL     1       8.412  -2.573  23.013  0.00  0.00    +0.073 C 
ATOM      6  O   UNL     1       9.268  -3.031  23.828  0.00  0.00    -0.547 OA
ATOM      7  O   UNL     1       7.679  -3.218  22.208  0.00  0.00    -0.547 OA
ENDBRANCH   4   5
BRANCH   4   8
ATOM      8  O   UNL     1       6.980  -0.519  22.814  0.00  0.00    -0.383 OA
ATOM      9  H   UNL     1       7.058   0.297  22.292  0.00  0.00    +0.210 HD
ENDBRANCH   4   8
ENDBRANCH   1   4
BRANCH   1  10
ATOM     10  C   UNL     1      10.035   0.834  22.142  0.00  0.00    +0.180 C 
BRANCH  10  11
ATOM     11  O   UNL     1       9.505   1.930  21.353  0.00  0.00    -0.386 OA
ATOM     12  H   UNL     1       9.312   2.630  22.015  0.00  0.00    +0.210 HD
ENDBRANCH  10  11
BRANCH  10  13
ATOM     13  C   UNL     1       9.873   1.202  23.634  0.00  0.00    +0.191 C 
BRANCH  13  14
ATOM     14  C   UNL     1       9.011   2.485  23.853  0.00  0.00    +0.073 C 
ATOM     15  O   UNL     1       9.684   3.557  23.991  0.00  0.00    -0.547 OA
ATOM     16  O   UNL     1       7.752   2.352  23.840  0.00  0.00    -0.547 OA
ENDBRANCH  13  14
BRANCH  13  17
ATOM     17  O   UNL     1      11.156   1.353  24.297  0.00  0.00    -0.383 OA
ATOM     18  H   UNL     1      10.976   1.249  25.244  0.00  0.00    +0.210 HD
ENDBRANCH  13  17
ENDBRANCH  10  13
ENDBRANCH   1  10
TORSDOF 9
ENDMDL
MODEL 6
REMARK VINA RESULT:      -4.4      1.514      4.485
REMARK  Name = 
REMARK  9 active torsions:
REMARK  status: ('A' for Active; 'I' for Inactive)
REMARK    1  A    between atoms: O_1  and  C_2
REMARK    2  A    between atoms: C_2  and  C_4
REMARK    3  A    between atoms: C_2  and  C_13
REMARK    4  A    between atoms: C_4  and  O_6
REMARK    5  A    between atoms: C_4  and  C_7
REMARK    6  A    between atoms: C_7  and  O_9
REMARK    7  A    between atoms: C_7  and  C_10
REMARK    8  A    between atoms: C_13  and  O_15
REMARK    9  A    between atoms: C_13  and  C_16
REMARK                            x       y       z     vdW  Elec       q    Type
REMARK                         _______ _______ _______ _____ _____    ______ ____
ROOT
ATOM      1  C   UNL     1      10.028   1.520  22.959  0.00  0.00    +0.180 C 
ENDROOT
BRANCH   1   2
ATOM      2  O   UNL     1       9.780   1.517  21.517  0.00  0.00    -0.386 OA
ATOM      3  H   UNL     1      10.276   0.729  21.209  0.00  0.00    +0.210 HD
ENDBRANCH   1   2
BRANCH   1   4
ATOM      4  C   UNL     1       8.693   1.938  23.606  0.00  0.00    +0.191 C 
BRANCH   4   5
ATOM      5  C   UNL     1       7.624   2.494  22.625  0.00  0.00    +0.073 C 
ATOM      6  O   UNL     1       6.811   1.648  22.146  0.00  0.00    -0.547 OA
ATOM      7  O   UNL     1       7.746   3.717  22.321  0.00  0.00    -0.547 OA
ENDBRANCH   4   5
BRANCH   4   8
ATOM      8  O   UNL     1       8.942   2.825  24.738  0.00  0.00    -0.383 OA
ATOM      9  H   UNL     1       9.583   3.470  24.395  0.00  0.00    +0.210 HD
ENDBRANCH   4   8
ENDBRANCH   1   4
BRANCH   1  10
ATOM     10  C   UNL     1      10.535   0.094  23.340  0.00  0.00    +0.180 C 
BRANCH  10  11
ATOM     11  O   UNL     1      10.431   0.007  24.784  0.00  0.00    -0.386 OA
ATOM     12  H   UNL     1       9.474  -0.136  24.948  0.00  0.00    +0.210 HD
ENDBRANCH  10  11
BRANCH  10  13
ATOM     13  C   UNL     1       9.651  -1.021  22.735  0.00  0.00    +0.191 C 
BRANCH  13  14
ATOM     14  C   UNL     1       9.328  -2.160  23.751  0.00  0.00    +0.073 C 
ATOM     15  O   UNL     1      10.239  -3.044  23.861  0.00  0.00    -0.547 OA
ATOM     16  O   UNL     1       8.235  -2.086  24.384  0.00  0.00    -0.547 OA
ENDBRANCH  13  14
BRANCH  13  17
ATOM     17  O   UNL     1      10.241  -1.586  21.533  0.00  0.00    -0.383 OA
ATOM     18  H   UNL     1       9.845  -1.100  20.794  0.00  0.00    +0.210 HD
ENDBRANCH  13  17
ENDBRANCH  10  13
ENDBRANCH   1  10
TORSDOF 9
ENDMDL
MODEL 7
REMARK VINA RESULT:      -4.4      1.513      2.856
REMARK  Name = 
REMARK  9 active torsions:
REMARK  status: ('A' for Active; 'I' for Inactive)
REMARK    1  A    between atoms: O_1  and  C_2
REMARK    2  A    between atoms: C_2  and  C_4
REMARK    3  A    between atoms: C_2  and  C_13
REMARK    4  A    between atoms: C_4  and  O_6
REMARK    5  A    between atoms: C_4  and  C_7
REMARK    6  A    between atoms: C_7  and  O_9
REMARK    7  A    between atoms: C_7  and  C_10
REMARK    8  A    between atoms: C_13  and  O_15
REMARK    9  A    between atoms: C_13  and  C_16
REMARK                            x       y       z     vdW  Elec       q    Type
REMARK                         _______ _______ _______ _____ _____    ______ ____
ROOT
ATOM      1  C   UNL     1      10.505   0.071  23.292  0.00  0.00    +0.180 C 
ENDROOT
BRANCH   1   2
ATOM      2  O   UNL     1      10.408  -0.056  24.746  0.00  0.00    -0.386 OA
ATOM      3  H   UNL     1       9.732  -0.757  24.862  0.00  0.00    +0.210 HD
ENDBRANCH   1   2
BRANCH   1   4
ATOM      4  C   UNL     1       9.649  -1.074  22.719  0.00  0.00    +0.191 C 
BRANCH   4   5
ATOM      5  C   UNL     1       9.315  -2.218  23.716  0.00  0.00    +0.073 C 
ATOM      6  O   UNL     1       8.218  -2.111  24.343  0.00  0.00    -0.547 OA
ATOM      7  O   UNL     1      10.225  -3.082  23.880  0.00  0.00    -0.547 OA
ENDBRANCH   4   5
BRANCH   4   8
ATOM      8  O   UNL     1      10.232  -1.560  21.473  0.00  0.00    -0.383 OA
ATOM      9  H   UNL     1      10.070  -2.519  21.494  0.00  0.00    +0.210 HD
ENDBRANCH   4   8
ENDBRANCH   1   4
BRANCH   1  10
ATOM     10  C   UNL     1      10.024   1.511  22.925  0.00  0.00    +0.180 C 
BRANCH  10  11
ATOM     11  O   UNL     1       9.809   1.505  21.491  0.00  0.00    -0.386 OA
ATOM     12  H   UNL     1      10.029   2.420  21.211  0.00  0.00    +0.210 HD
ENDBRANCH  10  11
BRANCH  10  13
ATOM     13  C   UNL     1       8.682   1.868  23.603  0.00  0.00    +0.191 C 
BRANCH  13  14
ATOM     14  C   UNL     1       7.640   2.470  22.609  0.00  0.00    +0.073 C 
ATOM     15  O   UNL     1       6.751   1.648  22.214  0.00  0.00    -0.547 OA
ATOM     16  O   UNL     1       7.750   3.697  22.321  0.00  0.00    -0.547 OA
ENDBRANCH  13  14
BRANCH  13  17
ATOM     17  O   UNL     1       8.866   2.767  24.729  0.00  0.00    -0.383 OA
ATOM     18  H   UNL     1       9.816   2.956  24.760  0.00  0.00    +0.210 HD
ENDBRANCH  13  17
ENDBRANCH  10  13
ENDBRANCH   1  10
TORSDOF 9
ENDMDL
MODEL 8
REMARK VINA RESULT:      -4.4      1.425      4.812
REMARK  Name = 
REMARK  9 active torsions:
REMARK  status: ('A' for Active; 'I' for Inactive)
REMARK    1  A    between atoms: O_1  and  C_2
REMARK    2  A    between atoms: C_2  and  C_4
REMARK    3  A    between atoms: C_2  and  C_13
REMARK    4  A    between atoms: C_4  and  O_6
REMARK    5  A    between atoms: C_4  and  C_7
REMARK    6  A    between atoms: C_7  and  O_9
REMARK    7  A    between atoms: C_7  and  C_10
REMARK    8  A    between atoms: C_13  and  O_15
REMARK    9  A    between atoms: C_13  and  C_16
REMARK                            x       y       z     vdW  Elec       q    Type
REMARK                         _______ _______ _______ _____ _____    ______ ____
ROOT
ATOM      1  C   UNL     1       9.477   1.144  23.683  0.00  0.00    +0.180 C 
ENDROOT
BRANCH   1   2
ATOM      2  O   UNL     1       9.494   1.816  24.982  0.00  0.00    -0.386 OA
ATOM      3  H   UNL     1      10.105   1.261  25.511  0.00  0.00    +0.210 HD
ENDBRANCH   1   2
BRANCH   1   4
ATOM      4  C   UNL     1      10.180   2.109  22.709  0.00  0.00    +0.191 C 
BRANCH   4   5
ATOM      5  C   UNL     1      10.510   3.514  23.287  0.00  0.00    +0.073 C 
ATOM      6  O   UNL     1      11.734   3.747  23.521  0.00  0.00    -0.547 OA
ATOM      7  O   UNL     1       9.511   4.237  23.567  0.00  0.00    -0.547 OA
ENDBRANCH   4   5
BRANCH   4   8
ATOM      8  O   UNL     1       9.444   2.173  21.450  0.00  0.00    -0.383 OA
ATOM      9  H   UNL     1       8.963   3.017  21.499  0.00  0.00    +0.210 HD
ENDBRANCH   4   8
ENDBRANCH   1   4
BRANCH   1  10
ATOM     10  C   UNL     1      10.178  -0.238  23.873  0.00  0.00    +0.180 C 
BRANCH  10  11
ATOM     11  O   UNL     1       9.932  -0.622  25.250  0.00  0.00    -0.386 OA
ATOM     12  H   UNL     1      10.030  -1.600  25.248  0.00  0.00    +0.210 HD
ENDBRANCH  10  11
BRANCH  10  13
ATOM     13  C   UNL     1       9.571  -1.330  22.961  0.00  0.00    +0.191 C 
BRANCH  13  14
ATOM     14  C   UNL     1       9.181  -2.624  23.740  0.00  0.00    +0.073 C 
ATOM     15  O   UNL     1      10.163  -3.384  24.027  0.00  0.00    -0.547 OA
ATOM     16  O   UNL     1       7.962  -2.781  24.040  0.00  0.00    -0.547 OA
ENDBRANCH  13  14
BRANCH  13  17
ATOM     17  O   UNL     1      10.455  -1.665  21.859  0.00  0.00    -0.383 OA
ATOM     18  H   UNL     1       9.945  -2.256  21.284  0.00  0.00    +0.210 HD
ENDBRANCH  13  17
ENDBRANCH  10  13
ENDBRANCH   1  10
TORSDOF 9
ENDMDL
MODEL 9
REMARK VINA RESULT:      -4.3      1.619      2.622
REMARK  Name = 
REMARK  9 active torsions:
REMARK  status: ('A' for Active; 'I' for Inactive)
REMARK    1  A    between atoms: O_1  and  C_2
REMARK    2  A    between atoms: C_2  and  C_4
REMARK    3  A    between atoms: C_2  and  C_13
REMARK    4  A    between atoms: C_4  and  O_6
REMARK    5  A    between atoms: C_4  and  C_7
REMARK    6  A    between atoms: C_7  and  O_9
REMARK    7  A    between atoms: C_7  and  C_10
REMARK    8  A    between atoms: C_13  and  O_15
REMARK    9  A    between atoms: C_13  and  C_16
REMARK                            x       y       z     vdW  Elec       q    Type
REMARK                         _______ _______ _______ _____ _____    ______ ____
ROOT
ATOM      1  C   UNL     1       8.667   0.371  23.586  0.00  0.00    +0.180 C 
ENDROOT
BRANCH   1   2
ATOM      2  O   UNL     1       8.586   0.048  22.162  0.00  0.00    -0.386 OA
ATOM      3  H   UNL     1       7.816   0.575  21.859  0.00  0.00    +0.210 HD
ENDBRANCH   1   2
BRANCH   1   4
ATOM      4  C   UNL     1       9.803  -0.507  24.145  0.00  0.00    +0.191 C 
BRANCH   4   5
ATOM      5  C   UNL     1      10.017  -1.862  23.415  0.00  0.00    +0.073 C 
ATOM      6  O   UNL     1       9.619  -2.896  24.029  0.00  0.00    -0.547 OA
ATOM      7  O   UNL     1      10.667  -1.801  22.330  0.00  0.00    -0.547 OA
ENDBRANCH   4   5
BRANCH   4   8
ATOM      8  O   UNL     1       9.656  -0.657  25.589  0.00  0.00    -0.383 OA
ATOM      9  H   UNL     1       8.974  -1.345  25.686  0.00  0.00    +0.210 HD
ENDBRANCH   4   8
ENDBRANCH   1   4
BRANCH   1  10
ATOM     10  C   UNL     1       8.900   1.911  23.694  0.00  0.00    +0.180 C 
BRANCH  10  11
ATOM     11  O   UNL     1       8.979   2.203  25.113  0.00  0.00    -0.386 OA
ATOM     12  H   UNL     1       8.544   1.434  25.541  0.00  0.00    +0.210 HD
ENDBRANCH  10  11
BRANCH  10  13
ATOM     13  C   UNL     1      10.236   2.346  23.048  0.00  0.00    +0.191 C 
BRANCH  13  14
ATOM     14  C   UNL     1      10.682   3.777  23.478  0.00  0.00    +0.073 C 
ATOM     15  O   UNL     1      11.933   3.995  23.372  0.00  0.00    -0.547 OA
ATOM     16  O   UNL     1       9.780   4.583  23.851  0.00  0.00    -0.547 OA
ENDBRANCH  13  14
BRANCH  13  17
ATOM     17  O   UNL     1      10.188   2.260  21.598  0.00  0.00    -0.383 OA
ATOM     18  H   UNL     1      10.961   1.735  21.341  0.00  0.00    +0.210 HD
ENDBRANCH  13  17
ENDBRANCH  10  13
ENDBRANCH   1  10
TORSDOF 9
ENDMDL
