MODEL 1
REMARK VINA RESULT:      -4.6      0.000      0.000
REMARK  Name = 
REMARK  53 active torsions:
REMARK  status: ('A' for Active; 'I' for Inactive)
REMARK    1  A    between atoms: C_1  and  C_2
REMARK    2  A    between atoms: C_2  and  C_3
REMARK    3  A    between atoms: C_3  and  C_4
REMARK    4  A    between atoms: C_4  and  C_5
REMARK    5  A    between atoms: C_5  and  C_6
REMARK    6  A    between atoms: C_6  and  C_7
REMARK    7  A    between atoms: C_7  and  C_8
REMARK    8  A    between atoms: C_8  and  C_9
REMARK    9  A    between atoms: C_9  and  C_10
REMARK   10  A    between atoms: C_10  and  C_11
REMARK   11  A    between atoms: C_11  and  C_12
REMARK   12  A    between atoms: C_12  and  C_13
REMARK   13  A    between atoms: C_13  and  C_14
REMARK   14  A    between atoms: C_14  and  C_15
REMARK   15  A    between atoms: C_15  and  C_16
REMARK   16  A    between atoms: C_16  and  C_17
REMARK   17  A    between atoms: C_17  and  C_18
REMARK   18  A    between atoms: C_18  and  O_20
REMARK   19  A    between atoms: O_20  and  C_21
REMARK   20  A    between atoms: C_21  and  C_22
REMARK   21  A    between atoms: C_22  and  C_24
REMARK   22  A    between atoms: C_22  and  O_58
REMARK   23  A    between atoms: C_24  and  O_25
REMARK   24  A    between atoms: O_25  and  C_26
REMARK   25  A    between atoms: C_29  and  C_31
REMARK   26  A    between atoms: C_31  and  O_32
REMARK   27  A    between atoms: O_32  and  C_33
REMARK   28  A    between atoms: C_36  and  C_38
REMARK   29  A    between atoms: C_38  and  O_39
REMARK   30  A    between atoms: C_40  and  O_42
REMARK   31  A    between atoms: C_43  and  O_45
REMARK   32  A    between atoms: C_46  and  O_48
REMARK   33  A    between atoms: C_49  and  O_51
REMARK   34  A    between atoms: C_52  and  O_54
REMARK   35  A    between atoms: C_55  and  O_57
REMARK   36  A    between atoms: O_58  and  C_59
REMARK   37  A    between atoms: C_59  and  C_61
REMARK   38  A    between atoms: C_61  and  C_62
REMARK   39  A    between atoms: C_62  and  C_63
REMARK   40  A    between atoms: C_63  and  C_64
REMARK   41  A    between atoms: C_64  and  C_65
REMARK   42  A    between atoms: C_65  and  C_66
REMARK   43  A    between atoms: C_66  and  C_67
REMARK   44  A    between atoms: C_67  and  C_68
REMARK   45  A    between atoms: C_68  and  C_69
REMARK   46  A    between atoms: C_69  and  C_70
REMARK   47  A    between atoms: C_70  and  C_71
REMARK   48  A    between atoms: C_71  and  C_72
REMARK   49  A    between atoms: C_72  and  C_73
REMARK   50  A    between atoms: C_73  and  C_74
REMARK   51  A    between atoms: C_74  and  C_75
REMARK   52  A    between atoms: C_75  and  C_76
REMARK   53  A    between atoms: C_76  and  C_77
REMARK                            x       y       z     vdW  Elec       q    Type
REMARK                         _______ _______ _______ _____ _____    ______ ____
ROOT
ATOM      1  C   UNL     1       6.629  -3.748  22.715  0.00  0.00    +0.239 C 
ENDROOT
BRANCH   1   2
ATOM      2  C   UNL     1       5.174  -4.048  22.400  0.00  0.00    +0.211 C 
BRANCH   2   3
ATOM      3  O   UNL     1       4.470  -4.758  23.432  0.00  0.00    -0.345 OA
BRANCH   3   4
ATOM      4  C   UNL     1       4.147  -6.123  23.122  0.00  0.00    +0.282 C 
ATOM      5  C   UNL     1       2.622  -6.325  23.266  0.00  0.00    +0.201 C 
ATOM      6  C   UNL     1       2.206  -6.312  24.753  0.00  0.00    +0.179 C 
ATOM      7  C   UNL     1       3.070  -7.264  25.593  0.00  0.00    +0.177 C 
ATOM      8  C   UNL     1       4.565  -7.078  25.317  0.00  0.00    +0.178 C 
ATOM      9  O   UNL     1       4.890  -7.050  23.921  0.00  0.00    -0.341 OA
BRANCH   5  10
ATOM     10  O   UNL     1       2.227  -7.533  22.604  0.00  0.00    -0.384 OA
ATOM     11  H   UNL     1       2.922  -7.785  21.968  0.00  0.00    +0.210 HD
ENDBRANCH   5  10
BRANCH   6  12
ATOM     12  O   UNL     1       2.236  -4.990  25.306  0.00  0.00    -0.386 OA
ATOM     13  H   UNL     1       2.164  -5.056  26.278  0.00  0.00    +0.210 HD
ENDBRANCH   6  12
BRANCH   7  14
ATOM     14  O   UNL     1       2.681  -8.615  25.281  0.00  0.00    -0.386 OA
ATOM     15  H   UNL     1       3.488  -9.105  25.025  0.00  0.00    +0.210 HD
ENDBRANCH   7  14
BRANCH   8  16
ATOM     16  C   UNL     1       5.169  -5.861  26.023  0.00  0.00    +0.197 C 
BRANCH  16  17
ATOM     17  O   UNL     1       4.357  -5.233  26.992  0.00  0.00    -0.346 OA
BRANCH  17  18
ATOM     18  C   UNL     1       5.095  -4.621  28.044  0.00  0.00    +0.282 C 
ATOM     19  C   UNL     1       4.379  -5.008  29.351  0.00  0.00    +0.201 C 
ATOM     20  C   UNL     1       3.058  -4.222  29.462  0.00  0.00    +0.179 C 
ATOM     21  C   UNL     1       3.304  -2.717  29.264  0.00  0.00    +0.177 C 
ATOM     22  C   UNL     1       4.059  -2.410  27.957  0.00  0.00    +0.178 C 
ATOM     23  O   UNL     1       5.246  -3.211  27.850  0.00  0.00    -0.341 OA
BRANCH  19  24
ATOM     24  O   UNL     1       5.240  -4.820  30.478  0.00  0.00    -0.384 OA
ATOM     25  H   UNL     1       5.500  -5.706  30.800  0.00  0.00    +0.210 HD
ENDBRANCH  19  24
BRANCH  20  26
ATOM     26  O   UNL     1       2.066  -4.703  28.553  0.00  0.00    -0.386 OA
ATOM     27  H   UNL     1       1.201  -4.715  29.009  0.00  0.00    +0.210 HD
ENDBRANCH  20  26
BRANCH  21  28
ATOM     28  O   UNL     1       4.103  -2.277  30.385  0.00  0.00    -0.386 OA
ATOM     29  H   UNL     1       3.703  -2.638  31.198  0.00  0.00    +0.210 HD
ENDBRANCH  21  28
BRANCH  22  30
ATOM     30  C   UNL     1       3.184  -2.398  26.690  0.00  0.00    +0.190 C 
BRANCH  30  31
ATOM     31  O   UNL     1       3.946  -2.580  25.509  0.00  0.00    -0.392 OA
ATOM     32  H   UNL     1       4.661  -1.920  25.505  0.00  0.00    +0.210 HD
ENDBRANCH  30  31
ENDBRANCH  22  30
ENDBRANCH  17  18
ENDBRANCH  16  17
ENDBRANCH   8  16
ENDBRANCH   3   4
ENDBRANCH   2   3
ENDBRANCH   1   2
BRANCH   1  33
ATOM     33  C   UNL     1       6.858  -3.817  24.229  0.00  0.00    +0.279 C 
BRANCH  33  34
ATOM     34  O   UNL     1       7.935  -4.714  24.540  0.00  0.00    -0.461 OA
BRANCH  34  35
ATOM     35  C   UNL     1       9.025  -4.143  25.128  0.00  0.00    +0.307 C 
ATOM     36  O   UNL     1      10.186  -4.417  24.871  0.00  0.00    -0.251 OA
BRANCH  35  37
ATOM     37  C   UNL     1       8.554  -3.173  26.182  0.00  0.00    +0.120 C 
BRANCH  37  38
ATOM     38  C   UNL     1       8.743  -1.711  25.800  0.00  0.00    +0.011 C 
BRANCH  38  39
ATOM     39  C   UNL     1       8.975  -0.799  27.007  0.00  0.00    +0.001 C 
BRANCH  39  40
ATOM     40  C   UNL     1       7.721   0.030  27.282  0.00  0.00    +0.000 C 
BRANCH  40  41
ATOM     41  C   UNL     1       7.269   0.816  26.054  0.00  0.00    +0.000 C 
BRANCH  41  42
ATOM     42  C   UNL     1       5.782   0.577  25.818  0.00  0.00    +0.000 C 
BRANCH  42  43
ATOM     43  C   UNL     1       5.248   1.385  24.640  0.00  0.00    -0.000 C 
BRANCH  43  44
ATOM     44  C   UNL     1       6.376   2.219  24.042  0.00  0.00    -0.000 C 
BRANCH  44  45
ATOM     45  C   UNL     1       6.205   2.393  22.540  0.00  0.00    -0.000 C 
BRANCH  45  46
ATOM     46  C   UNL     1       6.957   3.633  22.067  0.00  0.00    -0.000 C 
BRANCH  46  47
ATOM     47  C   UNL     1       7.209   4.586  23.228  0.00  0.00    -0.000 C 
BRANCH  47  48
ATOM     48  C   UNL     1       6.627   5.963  22.932  0.00  0.00    -0.000 C 
BRANCH  48  49
ATOM     49  C   UNL     1       5.198   6.063  23.451  0.00  0.00    -0.000 C 
BRANCH  49  50
ATOM     50  C   UNL     1       4.258   6.571  22.363  0.00  0.00    -0.000 C 
BRANCH  50  51
ATOM     51  C   UNL     1       2.949   5.788  22.377  0.00  0.00    -0.000 C 
BRANCH  51  53
ATOM     52  C   UNL     1       2.658   3.304  22.169  0.00  0.00    +0.004 C 
ATOM     53  C   UNL     1       3.121   4.437  23.067  0.00  0.00    -0.003 C 
ENDBRANCH  51  53
ENDBRANCH  50  51
ENDBRANCH  49  50
ENDBRANCH  48  49
ENDBRANCH  47  48
ENDBRANCH  46  47
ENDBRANCH  45  46
ENDBRANCH  44  45
ENDBRANCH  43  44
ENDBRANCH  42  43
ENDBRANCH  41  42
ENDBRANCH  40  41
ENDBRANCH  39  40
ENDBRANCH  38  39
ENDBRANCH  37  38
ENDBRANCH  35  37
ENDBRANCH  34  35
ENDBRANCH  33  34
ENDBRANCH   1  33
BRANCH   1  54
ATOM     54  O   UNL     1       6.872  -2.400  22.285  0.00  0.00    -0.456 OA
BRANCH  54  55
ATOM     55  C   UNL     1       8.174  -2.013  22.226  0.00  0.00    +0.308 C 
ATOM     56  O   UNL     1       9.127  -2.727  21.956  0.00  0.00    -0.251 OA
BRANCH  55  57
ATOM     57  C   UNL     1       8.275  -0.546  22.508  0.00  0.00    +0.120 C 
BRANCH  57  58
ATOM     58  C   UNL     1       9.155   0.107  21.457  0.00  0.00    +0.011 C 
BRANCH  58  59
ATOM     59  C   UNL     1       9.855   1.333  22.012  0.00  0.00    +0.001 C 
BRANCH  59  60
ATOM     60  C   UNL     1       9.945   1.220  23.524  0.00  0.00    +0.000 C 
BRANCH  60  61
ATOM     61  C   UNL     1      10.897   2.264  24.079  0.00  0.00    +0.000 C 
BRANCH  61  62
ATOM     62  C   UNL     1      10.723   3.579  23.333  0.00  0.00    +0.000 C 
BRANCH  62  63
ATOM     63  C   UNL     1      12.031   4.355  23.324  0.00  0.00    -0.000 C 
BRANCH  63  64
ATOM     64  C   UNL     1      11.802   5.786  23.782  0.00  0.00    -0.000 C 
BRANCH  64  65
ATOM     65  C   UNL     1      10.341   6.173  23.598  0.00  0.00    -0.000 C 
BRANCH  65  66
ATOM     66  C   UNL     1       9.839   6.956  24.804  0.00  0.00    -0.000 C 
BRANCH  66  67
ATOM     67  C   UNL     1       9.224   6.018  25.831  0.00  0.00    -0.000 C 
BRANCH  67  68
ATOM     68  C   UNL     1       8.166   6.745  26.660  0.00  0.00    -0.000 C 
BRANCH  68  69
ATOM     69  C   UNL     1       6.885   5.927  26.737  0.00  0.00    -0.000 C 
BRANCH  69  70
ATOM     70  C   UNL     1       7.200   4.440  26.882  0.00  0.00    -0.000 C 
BRANCH  70  71
ATOM     71  C   UNL     1       6.335   3.807  27.969  0.00  0.00    -0.000 C 
BRANCH  71  72
ATOM     72  C   UNL     1       4.861   3.802  27.572  0.00  0.00    -0.003 C 
ATOM     73  C   UNL     1       4.107   2.692  28.284  0.00  0.00    +0.004 C 
ENDBRANCH  71  72
ENDBRANCH  70  71
ENDBRANCH  69  70
ENDBRANCH  68  69
ENDBRANCH  67  68
ENDBRANCH  66  67
ENDBRANCH  65  66
ENDBRANCH  64  65
ENDBRANCH  63  64
ENDBRANCH  62  63
ENDBRANCH  61  62
ENDBRANCH  60  61
ENDBRANCH  59  60
ENDBRANCH  58  59
ENDBRANCH  57  58
ENDBRANCH  55  57
ENDBRANCH  54  55
ENDBRANCH   1  54
TORSDOF 51
ENDMDL
MODEL 2
REMARK VINA RESULT:      -4.0      1.670      5.861
REMARK  Name = 
REMARK  53 active torsions:
REMARK  status: ('A' for Active; 'I' for Inactive)
REMARK    1  A    between atoms: C_1  and  C_2
REMARK    2  A    between atoms: C_2  and  C_3
REMARK    3  A    between atoms: C_3  and  C_4
REMARK    4  A    between atoms: C_4  and  C_5
REMARK    5  A    between atoms: C_5  and  C_6
REMARK    6  A    between atoms: C_6  and  C_7
REMARK    7  A    between atoms: C_7  and  C_8
REMARK    8  A    between atoms: C_8  and  C_9
REMARK    9  A    between atoms: C_9  and  C_10
REMARK   10  A    between atoms: C_10  and  C_11
REMARK   11  A    between atoms: C_11  and  C_12
REMARK   12  A    between atoms: C_12  and  C_13
REMARK   13  A    between atoms: C_13  and  C_14
REMARK   14  A    between atoms: C_14  and  C_15
REMARK   15  A    between atoms: C_15  and  C_16
REMARK   16  A    between atoms: C_16  and  C_17
REMARK   17  A    between atoms: C_17  and  C_18
REMARK   18  A    between atoms: C_18  and  O_20
REMARK   19  A    between atoms: O_20  and  C_21
REMARK   20  A    between atoms: C_21  and  C_22
REMARK   21  A    between atoms: C_22  and  C_24
REMARK   22  A    between atoms: C_22  and  O_58
REMARK   23  A    between atoms: C_24  and  O_25
REMARK   24  A    between atoms: O_25  and  C_26
REMARK   25  A    between atoms: C_29  and  C_31
REMARK   26  A    between atoms: C_31  and  O_32
REMARK   27  A    between atoms: O_32  and  C_33
REMARK   28  A    between atoms: C_36  and  C_38
REMARK   29  A    between atoms: C_38  and  O_39
REMARK   30  A    between atoms: C_40  and  O_42
REMARK   31  A    between atoms: C_43  and  O_45
REMARK   32  A    between atoms: C_46  and  O_48
REMARK   33  A    between atoms: C_49  and  O_51
REMARK   34  A    between atoms: C_52  and  O_54
REMARK   35  A    between atoms: C_55  and  O_57
REMARK   36  A    between atoms: O_58  and  C_59
REMARK   37  A    between atoms: C_59  and  C_61
REMARK   38  A    between atoms: C_61  and  C_62
REMARK   39  A    between atoms: C_62  and  C_63
REMARK   40  A    between atoms: C_63  and  C_64
REMARK   41  A    between atoms: C_64  and  C_65
REMARK   42  A    between atoms: C_65  and  C_66
REMARK   43  A    between atoms: C_66  and  C_67
REMARK   44  A    between atoms: C_67  and  C_68
REMARK   45  A    between atoms: C_68  and  C_69
REMARK   46  A    between atoms: C_69  and  C_70
REMARK   47  A    between atoms: C_70  and  C_71
REMARK   48  A    between atoms: C_71  and  C_72
REMARK   49  A    between atoms: C_72  and  C_73
REMARK   50  A    between atoms: C_73  and  C_74
REMARK   51  A    between atoms: C_74  and  C_75
REMARK   52  A    between atoms: C_75  and  C_76
REMARK   53  A    between atoms: C_76  and  C_77
REMARK                            x       y       z     vdW  Elec       q    Type
REMARK                         _______ _______ _______ _____ _____    ______ ____
ROOT
ATOM      1  C   UNL     1       6.402  -0.595  23.913  0.00  0.00    +0.239 C 
ENDROOT
BRANCH   1   2
ATOM      2  C   UNL     1       6.059  -1.396  25.156  0.00  0.00    +0.211 C 
BRANCH   2   3
ATOM      3  O   UNL     1       4.652  -1.561  25.396  0.00  0.00    -0.345 OA
BRANCH   3   4
ATOM      4  C   UNL     1       4.147  -0.876  26.554  0.00  0.00    +0.282 C 
ATOM      5  C   UNL     1       4.923  -1.356  27.801  0.00  0.00    +0.201 C 
ATOM      6  C   UNL     1       4.517  -2.797  28.178  0.00  0.00    +0.179 C 
ATOM      7  C   UNL     1       2.991  -2.952  28.263  0.00  0.00    +0.177 C 
ATOM      8  C   UNL     1       2.284  -2.358  27.040  0.00  0.00    +0.178 C 
ATOM      9  O   UNL     1       2.733  -1.038  26.706  0.00  0.00    -0.341 OA
BRANCH   5  10
ATOM     10  O   UNL     1       4.723  -0.436  28.882  0.00  0.00    -0.384 OA
ATOM     11  H   UNL     1       4.822   0.473  28.544  0.00  0.00    +0.210 HD
ENDBRANCH   5  10
BRANCH   6  12
ATOM     12  O   UNL     1       5.068  -3.763  27.276  0.00  0.00    -0.386 OA
ATOM     13  H   UNL     1       5.837  -4.188  27.704  0.00  0.00    +0.210 HD
ENDBRANCH   6  12
BRANCH   7  14
ATOM     14  O   UNL     1       2.538  -2.290  29.458  0.00  0.00    -0.386 OA
ATOM     15  H   UNL     1       1.824  -1.672  29.203  0.00  0.00    +0.210 HD
ENDBRANCH   7  14
BRANCH   8  16
ATOM     16  C   UNL     1       2.337  -3.261  25.805  0.00  0.00    +0.197 C 
BRANCH  16  17
ATOM     17  O   UNL     1       3.054  -4.470  25.944  0.00  0.00    -0.346 OA
BRANCH  17  18
ATOM     18  C   UNL     1       2.220  -5.607  26.139  0.00  0.00    +0.282 C 
ATOM     19  C   UNL     1       3.067  -6.632  26.914  0.00  0.00    +0.201 C 
ATOM     20  C   UNL     1       4.126  -7.237  25.971  0.00  0.00    +0.179 C 
ATOM     21  C   UNL     1       3.470  -7.762  24.683  0.00  0.00    +0.177 C 
ATOM     22  C   UNL     1       2.607  -6.694  23.985  0.00  0.00    +0.178 C 
ATOM     23  O   UNL     1       1.680  -6.099  24.906  0.00  0.00    -0.341 OA
BRANCH  19  24
ATOM     24  O   UNL     1       2.233  -7.619  27.529  0.00  0.00    -0.384 OA
ATOM     25  H   UNL     1       2.037  -7.313  28.437  0.00  0.00    +0.210 HD
ENDBRANCH  19  24
BRANCH  20  26
ATOM     26  O   UNL     1       5.174  -6.312  25.673  0.00  0.00    -0.386 OA
ATOM     27  H   UNL     1       5.929  -6.805  25.295  0.00  0.00    +0.210 HD
ENDBRANCH  20  26
BRANCH  21  28
ATOM     28  O   UNL     1       2.628  -8.870  25.070  0.00  0.00    -0.386 OA
ATOM     29  H   UNL     1       3.176  -9.504  25.569  0.00  0.00    +0.210 HD
ENDBRANCH  21  28
BRANCH  22  30
ATOM     30  C   UNL     1       3.393  -5.682  23.131  0.00  0.00    +0.190 C 
BRANCH  30  31
ATOM     31  O   UNL     1       4.582  -6.240  22.596  0.00  0.00    -0.392 OA
ATOM     32  H   UNL     1       4.971  -5.592  21.984  0.00  0.00    +0.210 HD
ENDBRANCH  30  31
ENDBRANCH  22  30
ENDBRANCH  17  18
ENDBRANCH  16  17
ENDBRANCH   8  16
ENDBRANCH   3   4
ENDBRANCH   2   3
ENDBRANCH   1   2
BRANCH   1  33
ATOM     33  C   UNL     1       7.482  -1.326  23.107  0.00  0.00    +0.279 C 
BRANCH  33  34
ATOM     34  O   UNL     1       8.098  -2.354  23.896  0.00  0.00    -0.461 OA
BRANCH  34  35
ATOM     35  C   UNL     1       9.460  -2.397  23.848  0.00  0.00    +0.307 C 
ATOM     36  O   UNL     1      10.140  -3.385  24.075  0.00  0.00    -0.251 OA
BRANCH  35  37
ATOM     37  C   UNL     1       9.978  -1.016  23.534  0.00  0.00    +0.120 C 
BRANCH  37  38
ATOM     38  C   UNL     1      10.273  -0.175  24.769  0.00  0.00    +0.011 C 
BRANCH  38  39
ATOM     39  C   UNL     1      10.546   1.295  24.444  0.00  0.00    +0.001 C 
BRANCH  39  40
ATOM     40  C   UNL     1      10.181   1.583  22.988  0.00  0.00    +0.000 C 
BRANCH  40  41
ATOM     41  C   UNL     1       9.301   2.821  22.848  0.00  0.00    +0.000 C 
BRANCH  41  42
ATOM     42  C   UNL     1       8.160   2.527  21.881  0.00  0.00    +0.000 C 
BRANCH  42  43
ATOM     43  C   UNL     1       7.084   3.608  21.910  0.00  0.00    -0.000 C 
BRANCH  43  44
ATOM     44  C   UNL     1       7.488   4.699  22.897  0.00  0.00    -0.000 C 
BRANCH  44  45
ATOM     45  C   UNL     1       7.323   6.086  22.291  0.00  0.00    -0.000 C 
BRANCH  45  46
ATOM     46  C   UNL     1       6.962   7.092  23.379  0.00  0.00    -0.000 C 
BRANCH  46  47
ATOM     47  C   UNL     1       6.887   6.412  24.739  0.00  0.00    -0.000 C 
BRANCH  47  48
ATOM     48  C   UNL     1       7.839   7.077  25.727  0.00  0.00    -0.000 C 
BRANCH  48  49
ATOM     49  C   UNL     1       9.092   6.231  25.914  0.00  0.00    -0.000 C 
BRANCH  49  50
ATOM     50  C   UNL     1      10.291   6.872  25.224  0.00  0.00    -0.000 C 
BRANCH  50  51
ATOM     51  C   UNL     1      10.786   5.993  24.080  0.00  0.00    -0.000 C 
BRANCH  51  53
ATOM     52  C   UNL     1      12.801   5.005  22.956  0.00  0.00    +0.004 C 
ATOM     53  C   UNL     1      12.312   5.959  24.032  0.00  0.00    -0.003 C 
ENDBRANCH  51  53
ENDBRANCH  50  51
ENDBRANCH  49  50
ENDBRANCH  48  49
ENDBRANCH  47  48
ENDBRANCH  46  47
ENDBRANCH  45  46
ENDBRANCH  44  45
ENDBRANCH  43  44
ENDBRANCH  42  43
ENDBRANCH  41  42
ENDBRANCH  40  41
ENDBRANCH  39  40
ENDBRANCH  38  39
ENDBRANCH  37  38
ENDBRANCH  35  37
ENDBRANCH  34  35
ENDBRANCH  33  34
ENDBRANCH   1  33
BRANCH   1  54
ATOM     54  O   UNL     1       6.947   0.653  24.366  0.00  0.00    -0.456 OA
BRANCH  54  55
ATOM     55  C   UNL     1       6.049   1.612  24.715  0.00  0.00    +0.308 C 
ATOM     56  O   UNL     1       4.894   1.693  24.325  0.00  0.00    -0.251 OA
BRANCH  55  57
ATOM     57  C   UNL     1       6.674   2.553  25.697  0.00  0.00    +0.120 C 
BRANCH  57  58
ATOM     58  C   UNL     1       7.076   1.785  26.942  0.00  0.00    +0.011 C 
BRANCH  58  59
ATOM     59  C   UNL     1       6.902   2.632  28.189  0.00  0.00    +0.001 C 
BRANCH  59  60
ATOM     60  C   UNL     1       6.658   4.075  27.787  0.00  0.00    +0.000 C 
BRANCH  60  61
ATOM     61  C   UNL     1       6.771   4.989  28.994  0.00  0.00    +0.000 C 
BRANCH  61  62
ATOM     62  C   UNL     1       5.894   4.471  30.125  0.00  0.00    +0.000 C 
BRANCH  62  63
ATOM     63  C   UNL     1       4.509   5.094  30.044  0.00  0.00    -0.000 C 
BRANCH  63  64
ATOM     64  C   UNL     1       3.452   4.095  30.485  0.00  0.00    -0.000 C 
BRANCH  64  65
ATOM     65  C   UNL     1       3.658   2.761  29.782  0.00  0.00    -0.000 C 
BRANCH  65  66
ATOM     66  C   UNL     1       2.636   2.577  28.669  0.00  0.00    -0.000 C 
BRANCH  66  67
ATOM     67  C   UNL     1       3.294   2.739  27.307  0.00  0.00    -0.000 C 
BRANCH  67  68
ATOM     68  C   UNL     1       3.134   4.170  26.796  0.00  0.00    -0.000 C 
BRANCH  68  69
ATOM     69  C   UNL     1       2.260   4.204  25.551  0.00  0.00    -0.000 C 
BRANCH  69  70
ATOM     70  C   UNL     1       2.688   5.335  24.619  0.00  0.00    -0.000 C 
BRANCH  70  71
ATOM     71  C   UNL     1       3.878   4.909  23.763  0.00  0.00    -0.000 C 
BRANCH  71  72
ATOM     72  C   UNL     1       3.505   4.856  22.284  0.00  0.00    -0.003 C 
ATOM     73  C   UNL     1       3.098   3.451  21.873  0.00  0.00    +0.004 C 
ENDBRANCH  71  72
ENDBRANCH  70  71
ENDBRANCH  69  70
ENDBRANCH  68  69
ENDBRANCH  67  68
ENDBRANCH  66  67
ENDBRANCH  65  66
ENDBRANCH  64  65
ENDBRANCH  63  64
ENDBRANCH  62  63
ENDBRANCH  61  62
ENDBRANCH  60  61
ENDBRANCH  59  60
ENDBRANCH  58  59
ENDBRANCH  57  58
ENDBRANCH  55  57
ENDBRANCH  54  55
ENDBRANCH   1  54
TORSDOF 51
ENDMDL
MODEL 3
REMARK VINA RESULT:      -4.0      2.574      8.967
REMARK  Name = 
REMARK  53 active torsions:
REMARK  status: ('A' for Active; 'I' for Inactive)
REMARK    1  A    between atoms: C_1  and  C_2
REMARK    2  A    between atoms: C_2  and  C_3
REMARK    3  A    between atoms: C_3  and  C_4
REMARK    4  A    between atoms: C_4  and  C_5
REMARK    5  A    between atoms: C_5  and  C_6
REMARK    6  A    between atoms: C_6  and  C_7
REMARK    7  A    between atoms: C_7  and  C_8
REMARK    8  A    between atoms: C_8  and  C_9
REMARK    9  A    between atoms: C_9  and  C_10
REMARK   10  A    between atoms: C_10  and  C_11
REMARK   11  A    between atoms: C_11  and  C_12
REMARK   12  A    between atoms: C_12  and  C_13
REMARK   13  A    between atoms: C_13  and  C_14
REMARK   14  A    between atoms: C_14  and  C_15
REMARK   15  A    between atoms: C_15  and  C_16
REMARK   16  A    between atoms: C_16  and  C_17
REMARK   17  A    between atoms: C_17  and  C_18
REMARK   18  A    between atoms: C_18  and  O_20
REMARK   19  A    between atoms: O_20  and  C_21
REMARK   20  A    between atoms: C_21  and  C_22
REMARK   21  A    between atoms: C_22  and  C_24
REMARK   22  A    between atoms: C_22  and  O_58
REMARK   23  A    between atoms: C_24  and  O_25
REMARK   24  A    between atoms: O_25  and  C_26
REMARK   25  A    between atoms: C_29  and  C_31
REMARK   26  A    between atoms: C_31  and  O_32
REMARK   27  A    between atoms: O_32  and  C_33
REMARK   28  A    between atoms: C_36  and  C_38
REMARK   29  A    between atoms: C_38  and  O_39
REMARK   30  A    between atoms: C_40  and  O_42
REMARK   31  A    between atoms: C_43  and  O_45
REMARK   32  A    between atoms: C_46  and  O_48
REMARK   33  A    between atoms: C_49  and  O_51
REMARK   34  A    between atoms: C_52  and  O_54
REMARK   35  A    between atoms: C_55  and  O_57
REMARK   36  A    between atoms: O_58  and  C_59
REMARK   37  A    between atoms: C_59  and  C_61
REMARK   38  A    between atoms: C_61  and  C_62
REMARK   39  A    between atoms: C_62  and  C_63
REMARK   40  A    between atoms: C_63  and  C_64
REMARK   41  A    between atoms: C_64  and  C_65
REMARK   42  A    between atoms: C_65  and  C_66
REMARK   43  A    between atoms: C_66  and  C_67
REMARK   44  A    between atoms: C_67  and  C_68
REMARK   45  A    between atoms: C_68  and  C_69
REMARK   46  A    between atoms: C_69  and  C_70
REMARK   47  A    between atoms: C_70  and  C_71
REMARK   48  A    between atoms: C_71  and  C_72
REMARK   49  A    between atoms: C_72  and  C_73
REMARK   50  A    between atoms: C_73  and  C_74
REMARK   51  A    between atoms: C_74  and  C_75
REMARK   52  A    between atoms: C_75  and  C_76
REMARK   53  A    between atoms: C_76  and  C_77
REMARK                            x       y       z     vdW  Elec       q    Type
REMARK                         _______ _______ _______ _____ _____    ______ ____
ROOT
ATOM      1  C   UNL     1       7.054   2.977  25.749  0.00  0.00    +0.239 C 
ENDROOT
BRANCH   1   2
ATOM      2  C   UNL     1       8.365   3.019  24.984  0.00  0.00    +0.211 C 
BRANCH   2   3
ATOM      3  O   UNL     1       9.080   1.773  24.948  0.00  0.00    -0.345 OA
BRANCH   3   4
ATOM      4  C   UNL     1      10.013   1.637  23.864  0.00  0.00    +0.282 C 
ATOM      5  C   UNL     1       9.240   1.677  22.527  0.00  0.00    +0.201 C 
ATOM      6  C   UNL     1       8.438   0.375  22.318  0.00  0.00    +0.179 C 
ATOM      7  C   UNL     1       9.314  -0.870  22.526  0.00  0.00    +0.177 C 
ATOM      8  C   UNL     1      10.131  -0.789  23.820  0.00  0.00    +0.178 C 
ATOM      9  O   UNL     1      10.817   0.459  23.985  0.00  0.00    -0.341 OA
BRANCH   5  10
ATOM     10  O   UNL     1      10.148   1.933  21.448  0.00  0.00    -0.384 OA
ATOM     11  H   UNL     1      10.132   2.885  21.242  0.00  0.00    +0.210 HD
ENDBRANCH   5  10
BRANCH   6  12
ATOM     12  O   UNL     1       7.280   0.317  23.160  0.00  0.00    -0.386 OA
ATOM     13  H   UNL     1       7.234  -0.569  23.569  0.00  0.00    +0.210 HD
ENDBRANCH   6  12
BRANCH   7  14
ATOM     14  O   UNL     1      10.199  -0.989  21.397  0.00  0.00    -0.386 OA
ATOM     15  H   UNL     1      11.088  -0.699  21.684  0.00  0.00    +0.210 HD
ENDBRANCH   7  14
BRANCH   8  16
ATOM     16  C   UNL     1       9.319  -1.116  25.076  0.00  0.00    +0.197 C 
BRANCH  16  17
ATOM     17  O   UNL     1       8.319  -2.103  24.935  0.00  0.00    -0.346 OA
BRANCH  17  18
ATOM     18  C   UNL     1       8.137  -2.899  26.102  0.00  0.00    +0.282 C 
ATOM     19  C   UNL     1       8.954  -4.184  25.875  0.00  0.00    +0.201 C 
ATOM     20  C   UNL     1       8.237  -5.068  24.836  0.00  0.00    +0.179 C 
ATOM     21  C   UNL     1       6.765  -5.281  25.227  0.00  0.00    +0.177 C 
ATOM     22  C   UNL     1       6.024  -3.954  25.477  0.00  0.00    +0.178 C 
ATOM     23  O   UNL     1       6.753  -3.123  26.393  0.00  0.00    -0.341 OA
BRANCH  19  24
ATOM     24  O   UNL     1       9.195  -4.858  27.114  0.00  0.00    -0.384 OA
ATOM     25  H   UNL     1       8.740  -4.353  27.817  0.00  0.00    +0.210 HD
ENDBRANCH  19  24
BRANCH  20  26
ATOM     26  O   UNL     1       8.344  -4.540  23.512  0.00  0.00    -0.386 OA
ATOM     27  H   UNL     1       8.893  -5.146  22.976  0.00  0.00    +0.210 HD
ENDBRANCH  20  26
BRANCH  21  28
ATOM     28  O   UNL     1       6.769  -6.056  26.447  0.00  0.00    -0.386 OA
ATOM     29  H   UNL     1       7.329  -5.591  27.096  0.00  0.00    +0.210 HD
ENDBRANCH  21  28
BRANCH  22  30
ATOM     30  C   UNL     1       5.545  -3.230  24.205  0.00  0.00    +0.190 C 
BRANCH  30  31
ATOM     31  O   UNL     1       5.532  -1.821  24.362  0.00  0.00    -0.392 OA
ATOM     32  H   UNL     1       5.460  -1.623  25.311  0.00  0.00    +0.210 HD
ENDBRANCH  30  31
ENDBRANCH  22  30
ENDBRANCH  17  18
ENDBRANCH  16  17
ENDBRANCH   8  16
ENDBRANCH   3   4
ENDBRANCH   2   3
ENDBRANCH   1   2
BRANCH   1  33
ATOM     33  C   UNL     1       7.175   3.807  27.032  0.00  0.00    +0.279 C 
BRANCH  33  34
ATOM     34  O   UNL     1       6.114   4.770  27.117  0.00  0.00    -0.461 OA
BRANCH  34  35
ATOM     35  C   UNL     1       6.390   5.998  26.592  0.00  0.00    +0.307 C 
ATOM     36  O   UNL     1       5.571   6.741  26.075  0.00  0.00    -0.251 OA
BRANCH  35  37
ATOM     37  C   UNL     1       7.873   6.249  26.701  0.00  0.00    +0.120 C 
BRANCH  37  38
ATOM     38  C   UNL     1       8.435   7.107  25.575  0.00  0.00    +0.011 C 
BRANCH  38  39
ATOM     39  C   UNL     1       9.654   6.481  24.894  0.00  0.00    +0.001 C 
BRANCH  39  40
ATOM     40  C   UNL     1       9.417   6.387  23.387  0.00  0.00    +0.000 C 
BRANCH  40  41
ATOM     41  C   UNL     1       7.973   6.703  23.010  0.00  0.00    +0.000 C 
BRANCH  41  42
ATOM     42  C   UNL     1       7.372   5.518  22.262  0.00  0.00    +0.000 C 
BRANCH  42  43
ATOM     43  C   UNL     1       6.069   5.038  22.892  0.00  0.00    -0.000 C 
BRANCH  43  44
ATOM     44  C   UNL     1       4.991   6.101  22.700  0.00  0.00    -0.000 C 
BRANCH  44  45
ATOM     45  C   UNL     1       3.603   5.481  22.634  0.00  0.00    -0.000 C 
BRANCH  45  46
ATOM     46  C   UNL     1       3.692   3.973  22.843  0.00  0.00    -0.000 C 
BRANCH  46  47
ATOM     47  C   UNL     1       2.312   3.335  22.758  0.00  0.00    -0.000 C 
BRANCH  47  48
ATOM     48  C   UNL     1       1.509   3.617  24.023  0.00  0.00    -0.000 C 
BRANCH  48  49
ATOM     49  C   UNL     1       2.247   3.100  25.251  0.00  0.00    -0.000 C 
BRANCH  49  50
ATOM     50  C   UNL     1       1.282   2.439  26.229  0.00  0.00    -0.000 C 
BRANCH  50  51
ATOM     51  C   UNL     1       1.687   2.738  27.669  0.00  0.00    -0.000 C 
BRANCH  51  53
ATOM     52  C   UNL     1       3.137   4.145  29.157  0.00  0.00    +0.004 C 
ATOM     53  C   UNL     1       2.817   3.762  27.723  0.00  0.00    -0.003 C 
ENDBRANCH  51  53
ENDBRANCH  50  51
ENDBRANCH  49  50
ENDBRANCH  48  49
ENDBRANCH  47  48
ENDBRANCH  46  47
ENDBRANCH  45  46
ENDBRANCH  44  45
ENDBRANCH  43  44
ENDBRANCH  42  43
ENDBRANCH  41  42
ENDBRANCH  40  41
ENDBRANCH  39  40
ENDBRANCH  38  39
ENDBRANCH  37  38
ENDBRANCH  35  37
ENDBRANCH  34  35
ENDBRANCH  33  34
ENDBRANCH   1  33
BRANCH   1  54
ATOM     54  O   UNL     1       6.838   1.607  26.119  0.00  0.00    -0.456 OA
BRANCH  54  55
ATOM     55  C   UNL     1       5.570   1.137  25.974  0.00  0.00    +0.308 C 
ATOM     56  O   UNL     1       4.963   1.015  24.921  0.00  0.00    -0.251 OA
BRANCH  55  57
ATOM     57  C   UNL     1       5.023   0.745  27.311  0.00  0.00    +0.120 C 
BRANCH  57  58
ATOM     58  C   UNL     1       3.849  -0.197  27.116  0.00  0.00    +0.011 C 
BRANCH  58  59
ATOM     59  C   UNL     1       4.119  -1.548  27.751  0.00  0.00    +0.001 C 
BRANCH  59  60
ATOM     60  C   UNL     1       2.801  -2.263  27.992  0.00  0.00    +0.000 C 
BRANCH  60  61
ATOM     61  C   UNL     1       2.889  -3.137  29.230  0.00  0.00    +0.000 C 
BRANCH  61  62
ATOM     62  C   UNL     1       2.461  -4.558  28.898  0.00  0.00    +0.000 C 
BRANCH  62  63
ATOM     63  C   UNL     1       3.548  -5.262  28.101  0.00  0.00    -0.000 C 
BRANCH  63  64
ATOM     64  C   UNL     1       2.974  -5.849  26.822  0.00  0.00    -0.000 C 
BRANCH  64  65
ATOM     65  C   UNL     1       1.459  -5.692  26.802  0.00  0.00    -0.000 C 
BRANCH  65  66
ATOM     66  C   UNL     1       0.997  -5.120  25.469  0.00  0.00    -0.000 C 
BRANCH  66  67
ATOM     67  C   UNL     1       2.178  -4.560  24.690  0.00  0.00    -0.000 C 
BRANCH  67  68
ATOM     68  C   UNL     1       2.253  -5.187  23.299  0.00  0.00    -0.000 C 
BRANCH  68  69
ATOM     69  C   UNL     1       1.049  -6.081  23.044  0.00  0.00    -0.000 C 
BRANCH  69  70
ATOM     70  C   UNL     1       1.484  -7.421  22.456  0.00  0.00    -0.000 C 
BRANCH  70  71
ATOM     71  C   UNL     1       0.933  -8.579  23.285  0.00  0.00    -0.000 C 
BRANCH  71  72
ATOM     72  C   UNL     1       1.727  -8.765  24.574  0.00  0.00    -0.003 C 
ATOM     73  C   UNL     1       0.808  -9.084  25.742  0.00  0.00    +0.004 C 
ENDBRANCH  71  72
ENDBRANCH  70  71
ENDBRANCH  69  70
ENDBRANCH  68  69
ENDBRANCH  67  68
ENDBRANCH  66  67
ENDBRANCH  65  66
ENDBRANCH  64  65
ENDBRANCH  63  64
ENDBRANCH  62  63
ENDBRANCH  61  62
ENDBRANCH  60  61
ENDBRANCH  59  60
ENDBRANCH  58  59
ENDBRANCH  57  58
ENDBRANCH  55  57
ENDBRANCH  54  55
ENDBRANCH   1  54
TORSDOF 51
ENDMDL
MODEL 4
REMARK VINA RESULT:      -3.9      2.644      8.764
REMARK  Name = 
REMARK  53 active torsions:
REMARK  status: ('A' for Active; 'I' for Inactive)
REMARK    1  A    between atoms: C_1  and  C_2
REMARK    2  A    between atoms: C_2  and  C_3
REMARK    3  A    between atoms: C_3  and  C_4
REMARK    4  A    between atoms: C_4  and  C_5
REMARK    5  A    between atoms: C_5  and  C_6
REMARK    6  A    between atoms: C_6  and  C_7
REMARK    7  A    between atoms: C_7  and  C_8
REMARK    8  A    between atoms: C_8  and  C_9
REMARK    9  A    between atoms: C_9  and  C_10
REMARK   10  A    between atoms: C_10  and  C_11
REMARK   11  A    between atoms: C_11  and  C_12
REMARK   12  A    between atoms: C_12  and  C_13
REMARK   13  A    between atoms: C_13  and  C_14
REMARK   14  A    between atoms: C_14  and  C_15
REMARK   15  A    between atoms: C_15  and  C_16
REMARK   16  A    between atoms: C_16  and  C_17
REMARK   17  A    between atoms: C_17  and  C_18
REMARK   18  A    between atoms: C_18  and  O_20
REMARK   19  A    between atoms: O_20  and  C_21
REMARK   20  A    between atoms: C_21  and  C_22
REMARK   21  A    between atoms: C_22  and  C_24
REMARK   22  A    between atoms: C_22  and  O_58
REMARK   23  A    between atoms: C_24  and  O_25
REMARK   24  A    between atoms: O_25  and  C_26
REMARK   25  A    between atoms: C_29  and  C_31
REMARK   26  A    between atoms: C_31  and  O_32
REMARK   27  A    between atoms: O_32  and  C_33
REMARK   28  A    between atoms: C_36  and  C_38
REMARK   29  A    between atoms: C_38  and  O_39
REMARK   30  A    between atoms: C_40  and  O_42
REMARK   31  A    between atoms: C_43  and  O_45
REMARK   32  A    between atoms: C_46  and  O_48
REMARK   33  A    between atoms: C_49  and  O_51
REMARK   34  A    between atoms: C_52  and  O_54
REMARK   35  A    between atoms: C_55  and  O_57
REMARK   36  A    between atoms: O_58  and  C_59
REMARK   37  A    between atoms: C_59  and  C_61
REMARK   38  A    between atoms: C_61  and  C_62
REMARK   39  A    between atoms: C_62  and  C_63
REMARK   40  A    between atoms: C_63  and  C_64
REMARK   41  A    between atoms: C_64  and  C_65
REMARK   42  A    between atoms: C_65  and  C_66
REMARK   43  A    between atoms: C_66  and  C_67
REMARK   44  A    between atoms: C_67  and  C_68
REMARK   45  A    between atoms: C_68  and  C_69
REMARK   46  A    between atoms: C_69  and  C_70
REMARK   47  A    between atoms: C_70  and  C_71
REMARK   48  A    between atoms: C_71  and  C_72
REMARK   49  A    between atoms: C_72  and  C_73
REMARK   50  A    between atoms: C_73  and  C_74
REMARK   51  A    between atoms: C_74  and  C_75
REMARK   52  A    between atoms: C_75  and  C_76
REMARK   53  A    between atoms: C_76  and  C_77
REMARK                            x       y       z     vdW  Elec       q    Type
REMARK                         _______ _______ _______ _____ _____    ______ ____
ROOT
ATOM      1  C   UNL     1       7.043   2.827  25.854  0.00  0.00    +0.239 C 
ENDROOT
BRANCH   1   2
ATOM      2  C   UNL     1       8.357   2.948  25.105  0.00  0.00    +0.211 C 
BRANCH   2   3
ATOM      3  O   UNL     1       9.077   1.715  24.950  0.00  0.00    -0.345 OA
BRANCH   3   4
ATOM      4  C   UNL     1       9.889   1.627  23.767  0.00  0.00    +0.282 C 
ATOM      5  C   UNL     1       8.973   1.674  22.524  0.00  0.00    +0.201 C 
ATOM      6  C   UNL     1       8.187   0.353  22.373  0.00  0.00    +0.179 C 
ATOM      7  C   UNL     1       9.112  -0.870  22.454  0.00  0.00    +0.177 C 
ATOM      8  C   UNL     1      10.063  -0.793  23.653  0.00  0.00    +0.178 C 
ATOM      9  O   UNL     1      10.731   0.470  23.772  0.00  0.00    -0.341 OA
BRANCH   5  10
ATOM     10  O   UNL     1       9.750   1.977  21.358  0.00  0.00    -0.384 OA
ATOM     11  H   UNL     1       9.742   2.941  21.218  0.00  0.00    +0.210 HD
ENDBRANCH   5  10
BRANCH   6  12
ATOM     12  O   UNL     1       7.130   0.246  23.335  0.00  0.00    -0.386 OA
ATOM     13  H   UNL     1       6.309  -0.008  22.871  0.00  0.00    +0.210 HD
ENDBRANCH   6  12
BRANCH   7  14
ATOM     14  O   UNL     1       9.870  -0.941  21.233  0.00  0.00    -0.386 OA
ATOM     15  H   UNL     1      10.543  -1.642  21.340  0.00  0.00    +0.210 HD
ENDBRANCH   7  14
BRANCH   8  16
ATOM     16  C   UNL     1       9.403  -1.168  24.982  0.00  0.00    +0.197 C 
BRANCH  16  17
ATOM     17  O   UNL     1       8.228  -1.948  24.899  0.00  0.00    -0.346 OA
BRANCH  17  18
ATOM     18  C   UNL     1       8.005  -2.764  26.043  0.00  0.00    +0.282 C 
ATOM     19  C   UNL     1       8.882  -4.015  25.854  0.00  0.00    +0.201 C 
ATOM     20  C   UNL     1       8.265  -4.912  24.763  0.00  0.00    +0.179 C 
ATOM     21  C   UNL     1       6.781  -5.185  25.060  0.00  0.00    +0.177 C 
ATOM     22  C   UNL     1       5.977  -3.890  25.276  0.00  0.00    +0.178 C 
ATOM     23  O   UNL     1       6.615  -3.044  26.245  0.00  0.00    -0.341 OA
BRANCH  19  24
ATOM     24  O   UNL     1       9.073  -4.695  27.099  0.00  0.00    -0.384 OA
ATOM     25  H   UNL     1      10.014  -4.598  27.345  0.00  0.00    +0.210 HD
ENDBRANCH  19  24
BRANCH  20  26
ATOM     26  O   UNL     1       8.435  -4.363  23.455  0.00  0.00    -0.386 OA
ATOM     27  H   UNL     1       8.780  -3.452  23.538  0.00  0.00    +0.210 HD
ENDBRANCH  20  26
BRANCH  21  28
ATOM     28  O   UNL     1       6.740  -5.975  26.269  0.00  0.00    -0.386 OA
ATOM     29  H   UNL     1       6.007  -6.612  26.186  0.00  0.00    +0.210 HD
ENDBRANCH  21  28
BRANCH  22  30
ATOM     30  C   UNL     1       5.550  -3.168  23.985  0.00  0.00    +0.190 C 
BRANCH  30  31
ATOM     31  O   UNL     1       5.171  -1.823  24.222  0.00  0.00    -0.392 OA
ATOM     32  H   UNL     1       4.680  -1.505  23.445  0.00  0.00    +0.210 HD
ENDBRANCH  30  31
ENDBRANCH  22  30
ENDBRANCH  17  18
ENDBRANCH  16  17
ENDBRANCH   8  16
ENDBRANCH   3   4
ENDBRANCH   2   3
ENDBRANCH   1   2
BRANCH   1  33
ATOM     33  C   UNL     1       7.094   3.668  27.134  0.00  0.00    +0.279 C 
BRANCH  33  34
ATOM     34  O   UNL     1       6.052   4.655  27.138  0.00  0.00    -0.461 OA
BRANCH  34  35
ATOM     35  C   UNL     1       6.389   5.869  26.618  0.00  0.00    +0.307 C 
ATOM     36  O   UNL     1       5.643   6.590  25.975  0.00  0.00    -0.251 OA
BRANCH  35  37
ATOM     37  C   UNL     1       7.843   6.137  26.916  0.00  0.00    +0.120 C 
BRANCH  37  38
ATOM     38  C   UNL     1       8.512   7.073  25.919  0.00  0.00    +0.011 C 
BRANCH  38  39
ATOM     39  C   UNL     1       9.708   6.437  25.205  0.00  0.00    +0.001 C 
BRANCH  39  40
ATOM     40  C   UNL     1       9.361   6.177  23.740  0.00  0.00    +0.000 C 
BRANCH  40  41
ATOM     41  C   UNL     1       8.130   6.958  23.291  0.00  0.00    +0.000 C 
BRANCH  41  42
ATOM     42  C   UNL     1       7.108   5.995  22.696  0.00  0.00    +0.000 C 
BRANCH  42  43
ATOM     43  C   UNL     1       5.783   6.681  22.382  0.00  0.00    -0.000 C 
BRANCH  43  44
ATOM     44  C   UNL     1       4.631   5.739  22.718  0.00  0.00    -0.000 C 
BRANCH  44  45
ATOM     45  C   UNL     1       5.137   4.358  23.110  0.00  0.00    -0.000 C 
BRANCH  45  46
ATOM     46  C   UNL     1       4.209   3.283  22.554  0.00  0.00    -0.000 C 
BRANCH  46  47
ATOM     47  C   UNL     1       3.022   3.913  21.838  0.00  0.00    -0.000 C 
BRANCH  47  48
ATOM     48  C   UNL     1       1.800   3.006  21.921  0.00  0.00    -0.000 C 
BRANCH  48  49
ATOM     49  C   UNL     1       1.410   2.507  20.535  0.00  0.00    -0.000 C 
BRANCH  49  50
ATOM     50  C   UNL     1       1.986   3.408  19.449  0.00  0.00    -0.000 C 
BRANCH  50  51
ATOM     51  C   UNL     1       0.925   4.377  18.936  0.00  0.00    -0.000 C 
BRANCH  51  53
ATOM     52  C   UNL     1       2.001   6.408  17.930  0.00  0.00    +0.004 C 
ATOM     53  C   UNL     1       1.375   5.054  17.644  0.00  0.00    -0.003 C 
ENDBRANCH  51  53
ENDBRANCH  50  51
ENDBRANCH  49  50
ENDBRANCH  48  49
ENDBRANCH  47  48
ENDBRANCH  46  47
ENDBRANCH  45  46
ENDBRANCH  44  45
ENDBRANCH  43  44
ENDBRANCH  42  43
ENDBRANCH  41  42
ENDBRANCH  40  41
ENDBRANCH  39  40
ENDBRANCH  38  39
ENDBRANCH  37  38
ENDBRANCH  35  37
ENDBRANCH  34  35
ENDBRANCH  33  34
ENDBRANCH   1  33
BRANCH   1  54
ATOM     54  O   UNL     1       6.909   1.447  26.228  0.00  0.00    -0.456 OA
BRANCH  54  55
ATOM     55  C   UNL     1       5.647   0.942  26.227  0.00  0.00    +0.308 C 
ATOM     56  O   UNL     1       4.923   0.814  25.251  0.00  0.00    -0.251 OA
BRANCH  55  57
ATOM     57  C   UNL     1       5.272   0.520  27.613  0.00  0.00    +0.120 C 
BRANCH  57  58
ATOM     58  C   UNL     1       4.388  -0.712  27.540  0.00  0.00    +0.011 C 
BRANCH  58  59
ATOM     59  C   UNL     1       4.098  -1.261  28.925  0.00  0.00    +0.001 C 
BRANCH  59  60
ATOM     60  C   UNL     1       2.638  -1.668  29.010  0.00  0.00    +0.000 C 
BRANCH  60  61
ATOM     61  C   UNL     1       2.328  -2.251  30.377  0.00  0.00    +0.000 C 
BRANCH  61  62
ATOM     62  C   UNL     1       1.975  -3.725  30.248  0.00  0.00    +0.000 C 
BRANCH  62  63
ATOM     63  C   UNL     1       3.231  -4.546  29.999  0.00  0.00    -0.000 C 
BRANCH  63  64
ATOM     64  C   UNL     1       2.955  -5.641  28.981  0.00  0.00    -0.000 C 
BRANCH  64  65
ATOM     65  C   UNL     1       1.552  -5.491  28.409  0.00  0.00    -0.000 C 
BRANCH  65  66
ATOM     66  C   UNL     1       1.593  -5.468  26.887  0.00  0.00    -0.000 C 
BRANCH  66  67
ATOM     67  C   UNL     1       2.412  -4.284  26.394  0.00  0.00    -0.000 C 
BRANCH  67  68
ATOM     68  C   UNL     1       1.888  -3.790  25.046  0.00  0.00    -0.000 C 
BRANCH  68  69
ATOM     69  C   UNL     1       1.599  -4.961  24.118  0.00  0.00    -0.000 C 
BRANCH  69  70
ATOM     70  C   UNL     1       2.867  -5.402  23.391  0.00  0.00    -0.000 C 
BRANCH  70  71
ATOM     71  C   UNL     1       3.240  -6.832  23.775  0.00  0.00    -0.000 C 
BRANCH  71  72
ATOM     72  C   UNL     1       2.016  -7.743  23.775  0.00  0.00    -0.003 C 
ATOM     73  C   UNL     1       2.000  -8.639  25.002  0.00  0.00    +0.004 C 
ENDBRANCH  71  72
ENDBRANCH  70  71
ENDBRANCH  69  70
ENDBRANCH  68  69
ENDBRANCH  67  68
ENDBRANCH  66  67
ENDBRANCH  65  66
ENDBRANCH  64  65
ENDBRANCH  63  64
ENDBRANCH  62  63
ENDBRANCH  61  62
ENDBRANCH  60  61
ENDBRANCH  59  60
ENDBRANCH  58  59
ENDBRANCH  57  58
ENDBRANCH  55  57
ENDBRANCH  54  55
ENDBRANCH   1  54
TORSDOF 51
ENDMDL
MODEL 5
REMARK VINA RESULT:      -3.9      2.685      8.453
REMARK  Name = 
REMARK  53 active torsions:
REMARK  status: ('A' for Active; 'I' for Inactive)
REMARK    1  A    between atoms: C_1  and  C_2
REMARK    2  A    between atoms: C_2  and  C_3
REMARK    3  A    between atoms: C_3  and  C_4
REMARK    4  A    between atoms: C_4  and  C_5
REMARK    5  A    between atoms: C_5  and  C_6
REMARK    6  A    between atoms: C_6  and  C_7
REMARK    7  A    between atoms: C_7  and  C_8
REMARK    8  A    between atoms: C_8  and  C_9
REMARK    9  A    between atoms: C_9  and  C_10
REMARK   10  A    between atoms: C_10  and  C_11
REMARK   11  A    between atoms: C_11  and  C_12
REMARK   12  A    between atoms: C_12  and  C_13
REMARK   13  A    between atoms: C_13  and  C_14
REMARK   14  A    between atoms: C_14  and  C_15
REMARK   15  A    between atoms: C_15  and  C_16
REMARK   16  A    between atoms: C_16  and  C_17
REMARK   17  A    between atoms: C_17  and  C_18
REMARK   18  A    between atoms: C_18  and  O_20
REMARK   19  A    between atoms: O_20  and  C_21
REMARK   20  A    between atoms: C_21  and  C_22
REMARK   21  A    between atoms: C_22  and  C_24
REMARK   22  A    between atoms: C_22  and  O_58
REMARK   23  A    between atoms: C_24  and  O_25
REMARK   24  A    between atoms: O_25  and  C_26
REMARK   25  A    between atoms: C_29  and  C_31
REMARK   26  A    between atoms: C_31  and  O_32
REMARK   27  A    between atoms: O_32  and  C_33
REMARK   28  A    between atoms: C_36  and  C_38
REMARK   29  A    between atoms: C_38  and  O_39
REMARK   30  A    between atoms: C_40  and  O_42
REMARK   31  A    between atoms: C_43  and  O_45
REMARK   32  A    between atoms: C_46  and  O_48
REMARK   33  A    between atoms: C_49  and  O_51
REMARK   34  A    between atoms: C_52  and  O_54
REMARK   35  A    between atoms: C_55  and  O_57
REMARK   36  A    between atoms: O_58  and  C_59
REMARK   37  A    between atoms: C_59  and  C_61
REMARK   38  A    between atoms: C_61  and  C_62
REMARK   39  A    between atoms: C_62  and  C_63
REMARK   40  A    between atoms: C_63  and  C_64
REMARK   41  A    between atoms: C_64  and  C_65
REMARK   42  A    between atoms: C_65  and  C_66
REMARK   43  A    between atoms: C_66  and  C_67
REMARK   44  A    between atoms: C_67  and  C_68
REMARK   45  A    between atoms: C_68  and  C_69
REMARK   46  A    between atoms: C_69  and  C_70
REMARK   47  A    between atoms: C_70  and  C_71
REMARK   48  A    between atoms: C_71  and  C_72
REMARK   49  A    between atoms: C_72  and  C_73
REMARK   50  A    between atoms: C_73  and  C_74
REMARK   51  A    between atoms: C_74  and  C_75
REMARK   52  A    between atoms: C_75  and  C_76
REMARK   53  A    between atoms: C_76  and  C_77
REMARK                            x       y       z     vdW  Elec       q    Type
REMARK                         _______ _______ _______ _____ _____    ______ ____
ROOT
ATOM      1  C   UNL     1       7.095   3.270  25.989  0.00  0.00    +0.239 C 
ENDROOT
BRANCH   1   2
ATOM      2  C   UNL     1       8.311   3.239  25.081  0.00  0.00    +0.211 C 
BRANCH   2   3
ATOM      3  O   UNL     1       8.953   1.958  24.978  0.00  0.00    -0.345 OA
BRANCH   3   4
ATOM      4  C   UNL     1       9.834   1.806  23.853  0.00  0.00    +0.282 C 
ATOM      5  C   UNL     1       8.996   1.806  22.554  0.00  0.00    +0.201 C 
ATOM      6  C   UNL     1       8.201   0.491  22.416  0.00  0.00    +0.179 C 
ATOM      7  C   UNL     1       9.101  -0.740  22.609  0.00  0.00    +0.177 C 
ATOM      8  C   UNL     1       9.978  -0.619  23.859  0.00  0.00    +0.178 C 
ATOM      9  O   UNL     1      10.657   0.640  23.962  0.00  0.00    -0.341 OA
BRANCH   5  10
ATOM     10  O   UNL     1       9.848   2.046  21.426  0.00  0.00    -0.384 OA
ATOM     11  H   UNL     1       9.305   2.048  20.617  0.00  0.00    +0.210 HD
ENDBRANCH   5  10
BRANCH   6  12
ATOM     12  O   UNL     1       7.086   0.441  23.314  0.00  0.00    -0.386 OA
ATOM     13  H   UNL     1       6.263   0.411  22.790  0.00  0.00    +0.210 HD
ENDBRANCH   6  12
BRANCH   7  14
ATOM     14  O   UNL     1       9.931  -0.876  21.441  0.00  0.00    -0.386 OA
ATOM     15  H   UNL     1       9.808  -1.781  21.092  0.00  0.00    +0.210 HD
ENDBRANCH   7  14
BRANCH   8  16
ATOM     16  C   UNL     1       9.232  -0.924  25.161  0.00  0.00    +0.197 C 
BRANCH  16  17
ATOM     17  O   UNL     1       8.170  -1.850  25.070  0.00  0.00    -0.346 OA
BRANCH  17  18
ATOM     18  C   UNL     1       8.074  -2.718  26.194  0.00  0.00    +0.282 C 
ATOM     19  C   UNL     1       8.911  -3.962  25.847  0.00  0.00    +0.201 C 
ATOM     20  C   UNL     1       8.162  -4.805  24.796  0.00  0.00    +0.179 C 
ATOM     21  C   UNL     1       6.720  -5.085  25.252  0.00  0.00    +0.177 C 
ATOM     22  C   UNL     1       5.959  -3.798  25.621  0.00  0.00    +0.178 C 
ATOM     23  O   UNL     1       6.715  -3.001  26.545  0.00  0.00    -0.341 OA
BRANCH  19  24
ATOM     24  O   UNL     1       9.239  -4.701  27.028  0.00  0.00    -0.384 OA
ATOM     25  H   UNL     1       9.863  -5.407  26.768  0.00  0.00    +0.210 HD
ENDBRANCH  19  24
BRANCH  20  26
ATOM     26  O   UNL     1       8.182  -4.197  23.503  0.00  0.00    -0.386 OA
ATOM     27  H   UNL     1       9.103  -3.951  23.285  0.00  0.00    +0.210 HD
ENDBRANCH  20  26
BRANCH  21  28
ATOM     28  O   UNL     1       6.813  -5.930  26.420  0.00  0.00    -0.386 OA
ATOM     29  H   UNL     1       7.479  -5.543  27.018  0.00  0.00    +0.210 HD
ENDBRANCH  21  28
BRANCH  22  30
ATOM     30  C   UNL     1       5.391  -3.015  24.422  0.00  0.00    +0.190 C 
BRANCH  30  31
ATOM     31  O   UNL     1       5.224  -1.638  24.712  0.00  0.00    -0.392 OA
ATOM     32  H   UNL     1       4.996  -1.551  25.653  0.00  0.00    +0.210 HD
ENDBRANCH  30  31
ENDBRANCH  22  30
ENDBRANCH  17  18
ENDBRANCH  16  17
ENDBRANCH   8  16
ENDBRANCH   3   4
ENDBRANCH   2   3
ENDBRANCH   1   2
BRANCH   1  33
ATOM     33  C   UNL     1       7.155   4.504  26.895  0.00  0.00    +0.279 C 
BRANCH  33  34
ATOM     34  O   UNL     1       7.211   4.119  28.277  0.00  0.00    -0.461 OA
BRANCH  34  35
ATOM     35  C   UNL     1       7.111   5.138  29.177  0.00  0.00    +0.307 C 
ATOM     36  O   UNL     1       7.889   6.075  29.266  0.00  0.00    -0.251 OA
BRANCH  35  37
ATOM     37  C   UNL     1       5.927   4.878  30.075  0.00  0.00    +0.120 C 
BRANCH  37  38
ATOM     38  C   UNL     1       5.517   3.413  30.140  0.00  0.00    +0.011 C 
BRANCH  38  39
ATOM     39  C   UNL     1       4.019   3.198  29.908  0.00  0.00    +0.001 C 
BRANCH  39  40
ATOM     40  C   UNL     1       3.648   3.611  28.485  0.00  0.00    +0.000 C 
BRANCH  40  41
ATOM     41  C   UNL     1       2.147   3.822  28.318  0.00  0.00    +0.000 C 
BRANCH  41  42
ATOM     42  C   UNL     1       1.568   2.701  27.462  0.00  0.00    +0.000 C 
BRANCH  42  43
ATOM     43  C   UNL     1       2.141   2.699  26.049  0.00  0.00    -0.000 C 
BRANCH  43  44
ATOM     44  C   UNL     1       1.000   2.775  25.038  0.00  0.00    -0.000 C 
BRANCH  44  45
ATOM     45  C   UNL     1       0.816   4.192  24.511  0.00  0.00    -0.000 C 
BRANCH  45  46
ATOM     46  C   UNL     1       0.750   4.179  22.988  0.00  0.00    -0.000 C 
BRANCH  46  47
ATOM     47  C   UNL     1       1.652   3.092  22.418  0.00  0.00    -0.000 C 
BRANCH  47  48
ATOM     48  C   UNL     1       2.965   3.686  21.924  0.00  0.00    -0.000 C 
BRANCH  48  49
ATOM     49  C   UNL     1       4.122   3.241  22.810  0.00  0.00    -0.000 C 
BRANCH  49  50
ATOM     50  C   UNL     1       4.576   4.373  23.724  0.00  0.00    -0.000 C 
BRANCH  50  51
ATOM     51  C   UNL     1       4.129   5.722  23.171  0.00  0.00    -0.000 C 
BRANCH  51  53
ATOM     52  C   UNL     1       3.824   6.027  25.643  0.00  0.00    +0.004 C 
ATOM     53  C   UNL     1       3.880   6.724  24.295  0.00  0.00    -0.003 C 
ENDBRANCH  51  53
ENDBRANCH  50  51
ENDBRANCH  49  50
ENDBRANCH  48  49
ENDBRANCH  47  48
ENDBRANCH  46  47
ENDBRANCH  45  46
ENDBRANCH  44  45
ENDBRANCH  43  44
ENDBRANCH  42  43
ENDBRANCH  41  42
ENDBRANCH  40  41
ENDBRANCH  39  40
ENDBRANCH  38  39
ENDBRANCH  37  38
ENDBRANCH  35  37
ENDBRANCH  34  35
ENDBRANCH  33  34
ENDBRANCH   1  33
BRANCH   1  54
ATOM     54  O   UNL     1       7.172   2.100  26.818  0.00  0.00    -0.456 OA
BRANCH  54  55
ATOM     55  C   UNL     1       6.195   1.171  26.642  0.00  0.00    +0.308 C 
ATOM     56  O   UNL     1       5.412   1.118  25.707  0.00  0.00    -0.251 OA
BRANCH  55  57
ATOM     57  C   UNL     1       6.238   0.178  27.761  0.00  0.00    +0.120 C 
BRANCH  57  58
ATOM     58  C   UNL     1       4.875   0.111  28.425  0.00  0.00    +0.011 C 
BRANCH  58  59
ATOM     59  C   UNL     1       4.134  -1.153  28.029  0.00  0.00    +0.001 C 
BRANCH  59  60
ATOM     60  C   UNL     1       2.800  -0.780  27.409  0.00  0.00    +0.000 C 
BRANCH  60  61
ATOM     61  C   UNL     1       1.679  -0.941  28.420  0.00  0.00    +0.000 C 
BRANCH  61  62
ATOM     62  C   UNL     1       0.601  -1.859  27.864  0.00  0.00    +0.000 C 
BRANCH  62  63
ATOM     63  C   UNL     1       0.835  -2.107  26.382  0.00  0.00    -0.000 C 
BRANCH  63  64
ATOM     64  C   UNL     1       0.790  -3.595  26.079  0.00  0.00    -0.000 C 
BRANCH  64  65
ATOM     65  C   UNL     1       1.777  -3.940  24.972  0.00  0.00    -0.000 C 
BRANCH  65  66
ATOM     66  C   UNL     1       1.689  -5.418  24.617  0.00  0.00    -0.000 C 
BRANCH  66  67
ATOM     67  C   UNL     1       3.080  -6.001  24.411  0.00  0.00    -0.000 C 
BRANCH  67  68
ATOM     68  C   UNL     1       3.500  -6.834  25.621  0.00  0.00    -0.000 C 
BRANCH  68  69
ATOM     69  C   UNL     1       2.312  -7.096  26.535  0.00  0.00    -0.000 C 
BRANCH  69  70
ATOM     70  C   UNL     1       2.638  -6.699  27.973  0.00  0.00    -0.000 C 
BRANCH  70  71
ATOM     71  C   UNL     1       3.429  -5.394  28.009  0.00  0.00    -0.000 C 
BRANCH  71  72
ATOM     72  C   UNL     1       2.943  -4.481  29.131  0.00  0.00    -0.003 C 
ATOM     73  C   UNL     1       4.037  -4.248  30.159  0.00  0.00    +0.004 C 
ENDBRANCH  71  72
ENDBRANCH  70  71
ENDBRANCH  69  70
ENDBRANCH  68  69
ENDBRANCH  67  68
ENDBRANCH  66  67
ENDBRANCH  65  66
ENDBRANCH  64  65
ENDBRANCH  63  64
ENDBRANCH  62  63
ENDBRANCH  61  62
ENDBRANCH  60  61
ENDBRANCH  59  60
ENDBRANCH  58  59
ENDBRANCH  57  58
ENDBRANCH  55  57
ENDBRANCH  54  55
ENDBRANCH   1  54
TORSDOF 51
ENDMDL
MODEL 6
REMARK VINA RESULT:      -3.8      3.146      9.084
REMARK  Name = 
REMARK  53 active torsions:
REMARK  status: ('A' for Active; 'I' for Inactive)
REMARK    1  A    between atoms: C_1  and  C_2
REMARK    2  A    between atoms: C_2  and  C_3
REMARK    3  A    between atoms: C_3  and  C_4
REMARK    4  A    between atoms: C_4  and  C_5
REMARK    5  A    between atoms: C_5  and  C_6
REMARK    6  A    between atoms: C_6  and  C_7
REMARK    7  A    between atoms: C_7  and  C_8
REMARK    8  A    between atoms: C_8  and  C_9
REMARK    9  A    between atoms: C_9  and  C_10
REMARK   10  A    between atoms: C_10  and  C_11
REMARK   11  A    between atoms: C_11  and  C_12
REMARK   12  A    between atoms: C_12  and  C_13
REMARK   13  A    between atoms: C_13  and  C_14
REMARK   14  A    between atoms: C_14  and  C_15
REMARK   15  A    between atoms: C_15  and  C_16
REMARK   16  A    between atoms: C_16  and  C_17
REMARK   17  A    between atoms: C_17  and  C_18
REMARK   18  A    between atoms: C_18  and  O_20
REMARK   19  A    between atoms: O_20  and  C_21
REMARK   20  A    between atoms: C_21  and  C_22
REMARK   21  A    between atoms: C_22  and  C_24
REMARK   22  A    between atoms: C_22  and  O_58
REMARK   23  A    between atoms: C_24  and  O_25
REMARK   24  A    between atoms: O_25  and  C_26
REMARK   25  A    between atoms: C_29  and  C_31
REMARK   26  A    between atoms: C_31  and  O_32
REMARK   27  A    between atoms: O_32  and  C_33
REMARK   28  A    between atoms: C_36  and  C_38
REMARK   29  A    between atoms: C_38  and  O_39
REMARK   30  A    between atoms: C_40  and  O_42
REMARK   31  A    between atoms: C_43  and  O_45
REMARK   32  A    between atoms: C_46  and  O_48
REMARK   33  A    between atoms: C_49  and  O_51
REMARK   34  A    between atoms: C_52  and  O_54
REMARK   35  A    between atoms: C_55  and  O_57
REMARK   36  A    between atoms: O_58  and  C_59
REMARK   37  A    between atoms: C_59  and  C_61
REMARK   38  A    between atoms: C_61  and  C_62
REMARK   39  A    between atoms: C_62  and  C_63
REMARK   40  A    between atoms: C_63  and  C_64
REMARK   41  A    between atoms: C_64  and  C_65
REMARK   42  A    between atoms: C_65  and  C_66
REMARK   43  A    between atoms: C_66  and  C_67
REMARK   44  A    between atoms: C_67  and  C_68
REMARK   45  A    between atoms: C_68  and  C_69
REMARK   46  A    between atoms: C_69  and  C_70
REMARK   47  A    between atoms: C_70  and  C_71
REMARK   48  A    between atoms: C_71  and  C_72
REMARK   49  A    between atoms: C_72  and  C_73
REMARK   50  A    between atoms: C_73  and  C_74
REMARK   51  A    between atoms: C_74  and  C_75
REMARK   52  A    between atoms: C_75  and  C_76
REMARK   53  A    between atoms: C_76  and  C_77
REMARK                            x       y       z     vdW  Elec       q    Type
REMARK                         _______ _______ _______ _____ _____    ______ ____
ROOT
ATOM      1  C   UNL     1       7.327  -2.552  22.765  0.00  0.00    +0.239 C 
ENDROOT
BRANCH   1   2
ATOM      2  C   UNL     1       6.476  -1.344  23.111  0.00  0.00    +0.211 C 
BRANCH   2   3
ATOM      3  O   UNL     1       7.218  -0.153  23.417  0.00  0.00    -0.345 OA
BRANCH   3   4
ATOM      4  C   UNL     1       8.508  -0.059  22.791  0.00  0.00    +0.282 C 
ATOM      5  C   UNL     1       9.557   0.332  23.856  0.00  0.00    +0.201 C 
ATOM      6  C   UNL     1       9.387   1.807  24.276  0.00  0.00    +0.179 C 
ATOM      7  C   UNL     1       9.319   2.741  23.058  0.00  0.00    +0.177 C 
ATOM      8  C   UNL     1       8.336   2.231  21.998  0.00  0.00    +0.178 C 
ATOM      9  O   UNL     1       8.507   0.843  21.680  0.00  0.00    -0.341 OA
BRANCH   5  10
ATOM     10  O   UNL     1      10.875   0.056  23.363  0.00  0.00    -0.384 OA
ATOM     11  H   UNL     1      11.419  -0.285  24.096  0.00  0.00    +0.210 HD
ENDBRANCH   5  10
BRANCH   6  12
ATOM     12  O   UNL     1       8.242   1.997  25.116  0.00  0.00    -0.386 OA
ATOM     13  H   UNL     1       8.481   1.752  26.031  0.00  0.00    +0.210 HD
ENDBRANCH   6  12
BRANCH   7  14
ATOM     14  O   UNL     1      10.639   2.837  22.492  0.00  0.00    -0.386 OA
ATOM     15  H   UNL     1      11.019   1.936  22.470  0.00  0.00    +0.210 HD
ENDBRANCH   7  14
BRANCH   8  16
ATOM     16  C   UNL     1       6.871   2.518  22.337  0.00  0.00    +0.197 C 
BRANCH  16  17
ATOM     17  O   UNL     1       6.502   3.879  22.415  0.00  0.00    -0.346 OA
BRANCH  17  18
ATOM     18  C   UNL     1       6.252   4.326  23.743  0.00  0.00    +0.282 C 
ATOM     19  C   UNL     1       4.734   4.191  23.961  0.00  0.00    +0.201 C 
ATOM     20  C   UNL     1       4.004   5.293  23.168  0.00  0.00    +0.179 C 
ATOM     21  C   UNL     1       4.597   6.676  23.488  0.00  0.00    +0.177 C 
ATOM     22  C   UNL     1       6.123   6.722  23.285  0.00  0.00    +0.178 C 
ATOM     23  O   UNL     1       6.767   5.641  23.977  0.00  0.00    -0.341 OA
BRANCH  19  24
ATOM     24  O   UNL     1       4.418   4.202  25.357  0.00  0.00    -0.384 OA
ATOM     25  H   UNL     1       4.610   5.099  25.694  0.00  0.00    +0.210 HD
ENDBRANCH  19  24
BRANCH  20  26
ATOM     26  O   UNL     1       4.015   5.043  21.761  0.00  0.00    -0.386 OA
ATOM     27  H   UNL     1       3.247   5.492  21.356  0.00  0.00    +0.210 HD
ENDBRANCH  20  26
BRANCH  21  28
ATOM     28  O   UNL     1       4.297   6.944  24.876  0.00  0.00    -0.386 OA
ATOM     29  H   UNL     1       3.785   7.772  24.917  0.00  0.00    +0.210 HD
ENDBRANCH  21  28
BRANCH  22  30
ATOM     30  C   UNL     1       6.578   6.903  21.825  0.00  0.00    +0.190 C 
BRANCH  30  31
ATOM     31  O   UNL     1       7.843   6.313  21.580  0.00  0.00    -0.392 OA
ATOM     32  H   UNL     1       8.521   7.007  21.655  0.00  0.00    +0.210 HD
ENDBRANCH  30  31
ENDBRANCH  22  30
ENDBRANCH  17  18
ENDBRANCH  16  17
ENDBRANCH   8  16
ENDBRANCH   3   4
ENDBRANCH   2   3
ENDBRANCH   1   2
BRANCH   1  33
ATOM     33  C   UNL     1       6.628  -3.389  21.689  0.00  0.00    +0.279 C 
BRANCH  33  34
ATOM     34  O   UNL     1       5.600  -4.207  22.269  0.00  0.00    -0.461 OA
BRANCH  34  35
ATOM     35  C   UNL     1       5.694  -5.543  22.011  0.00  0.00    +0.307 C 
ATOM     36  O   UNL     1       6.342  -6.039  21.103  0.00  0.00    -0.251 OA
BRANCH  35  37
ATOM     37  C   UNL     1       4.819  -6.288  22.988  0.00  0.00    +0.120 C 
BRANCH  37  38
ATOM     38  C   UNL     1       4.936  -5.788  24.421  0.00  0.00    +0.011 C 
BRANCH  38  39
ATOM     39  C   UNL     1       4.652  -6.874  25.462  0.00  0.00    +0.001 C 
BRANCH  39  40
ATOM     40  C   UNL     1       3.284  -7.502  25.199  0.00  0.00    +0.000 C 
BRANCH  40  41
ATOM     41  C   UNL     1       2.145  -6.654  25.756  0.00  0.00    +0.000 C 
BRANCH  41  42
ATOM     42  C   UNL     1       1.039  -6.540  24.712  0.00  0.00    +0.000 C 
BRANCH  42  43
ATOM     43  C   UNL     1       1.163  -5.271  23.876  0.00  0.00    -0.000 C 
BRANCH  43  44
ATOM     44  C   UNL     1       1.625  -4.120  24.765  0.00  0.00    -0.000 C 
BRANCH  44  45
ATOM     45  C   UNL     1       0.493  -3.140  25.040  0.00  0.00    -0.000 C 
BRANCH  45  46
ATOM     46  C   UNL     1       0.696  -2.473  26.397  0.00  0.00    -0.000 C 
BRANCH  46  47
ATOM     47  C   UNL     1       1.198  -3.481  27.422  0.00  0.00    -0.000 C 
BRANCH  47  48
ATOM     48  C   UNL     1       1.180  -2.879  28.823  0.00  0.00    -0.000 C 
BRANCH  48  49
ATOM     49  C   UNL     1       1.543  -3.932  29.862  0.00  0.00    -0.000 C 
BRANCH  49  50
ATOM     50  C   UNL     1       1.949  -5.240  29.194  0.00  0.00    -0.000 C 
BRANCH  50  51
ATOM     51  C   UNL     1       1.749  -6.415  30.146  0.00  0.00    -0.000 C 
BRANCH  51  53
ATOM     52  C   UNL     1       3.973  -6.911  29.095  0.00  0.00    +0.004 C 
ATOM     53  C   UNL     1       2.885  -7.427  30.020  0.00  0.00    -0.003 C 
ENDBRANCH  51  53
ENDBRANCH  50  51
ENDBRANCH  49  50
ENDBRANCH  48  49
ENDBRANCH  47  48
ENDBRANCH  46  47
ENDBRANCH  45  46
ENDBRANCH  44  45
ENDBRANCH  43  44
ENDBRANCH  42  43
ENDBRANCH  41  42
ENDBRANCH  40  41
ENDBRANCH  39  40
ENDBRANCH  38  39
ENDBRANCH  37  38
ENDBRANCH  35  37
ENDBRANCH  34  35
ENDBRANCH  33  34
ENDBRANCH   1  33
BRANCH   1  54
ATOM     54  O   UNL     1       7.421  -3.343  23.959  0.00  0.00    -0.456 OA
BRANCH  54  55
ATOM     55  C   UNL     1       8.657  -3.813  24.275  0.00  0.00    +0.308 C 
ATOM     56  O   UNL     1       9.720  -3.254  24.050  0.00  0.00    -0.251 OA
BRANCH  55  57
ATOM     57  C   UNL     1       8.530  -5.124  24.987  0.00  0.00    +0.120 C 
BRANCH  57  58
ATOM     58  C   UNL     1       8.442  -4.877  26.481  0.00  0.00    +0.011 C 
BRANCH  58  59
ATOM     59  C   UNL     1       7.398  -3.824  26.802  0.00  0.00    +0.001 C 
BRANCH  59  60
ATOM     60  C   UNL     1       6.317  -4.436  27.675  0.00  0.00    +0.000 C 
BRANCH  60  61
ATOM     61  C   UNL     1       5.092  -3.541  27.710  0.00  0.00    +0.000 C 
BRANCH  61  62
ATOM     62  C   UNL     1       4.696  -3.142  26.296  0.00  0.00    +0.000 C 
BRANCH  62  63
ATOM     63  C   UNL     1       4.530  -1.633  26.202  0.00  0.00    -0.000 C 
BRANCH  63  64
ATOM     64  C   UNL     1       4.000  -1.074  27.513  0.00  0.00    -0.000 C 
BRANCH  64  65
ATOM     65  C   UNL     1       3.293   0.253  27.275  0.00  0.00    -0.000 C 
BRANCH  65  66
ATOM     66  C   UNL     1       2.498   0.665  28.507  0.00  0.00    -0.000 C 
BRANCH  66  67
ATOM     67  C   UNL     1       3.166   0.146  29.771  0.00  0.00    -0.000 C 
BRANCH  67  68
ATOM     68  C   UNL     1       3.920   1.268  30.483  0.00  0.00    -0.000 C 
BRANCH  68  69
ATOM     69  C   UNL     1       3.748   2.587  29.744  0.00  0.00    -0.000 C 
BRANCH  69  70
ATOM     70  C   UNL     1       5.092   3.291  29.572  0.00  0.00    -0.000 C 
BRANCH  70  71
ATOM     71  C   UNL     1       5.867   2.698  28.397  0.00  0.00    -0.000 C 
BRANCH  71  72
ATOM     72  C   UNL     1       6.997   1.793  28.879  0.00  0.00    -0.003 C 
ATOM     73  C   UNL     1       7.131   0.567  27.992  0.00  0.00    +0.004 C 
ENDBRANCH  71  72
ENDBRANCH  70  71
ENDBRANCH  69  70
ENDBRANCH  68  69
ENDBRANCH  67  68
ENDBRANCH  66  67
ENDBRANCH  65  66
ENDBRANCH  64  65
ENDBRANCH  63  64
ENDBRANCH  62  63
ENDBRANCH  61  62
ENDBRANCH  60  61
ENDBRANCH  59  60
ENDBRANCH  58  59
ENDBRANCH  57  58
ENDBRANCH  55  57
ENDBRANCH  54  55
ENDBRANCH   1  54
TORSDOF 51
ENDMDL
MODEL 7
REMARK VINA RESULT:      -3.8      1.906      5.520
REMARK  Name = 
REMARK  53 active torsions:
REMARK  status: ('A' for Active; 'I' for Inactive)
REMARK    1  A    between atoms: C_1  and  C_2
REMARK    2  A    between atoms: C_2  and  C_3
REMARK    3  A    between atoms: C_3  and  C_4
REMARK    4  A    between atoms: C_4  and  C_5
REMARK    5  A    between atoms: C_5  and  C_6
REMARK    6  A    between atoms: C_6  and  C_7
REMARK    7  A    between atoms: C_7  and  C_8
REMARK    8  A    between atoms: C_8  and  C_9
REMARK    9  A    between atoms: C_9  and  C_10
REMARK   10  A    between atoms: C_10  and  C_11
REMARK   11  A    between atoms: C_11  and  C_12
REMARK   12  A    between atoms: C_12  and  C_13
REMARK   13  A    between atoms: C_13  and  C_14
REMARK   14  A    between atoms: C_14  and  C_15
REMARK   15  A    between atoms: C_15  and  C_16
REMARK   16  A    between atoms: C_16  and  C_17
REMARK   17  A    between atoms: C_17  and  C_18
REMARK   18  A    between atoms: C_18  and  O_20
REMARK   19  A    between atoms: O_20  and  C_21
REMARK   20  A    between atoms: C_21  and  C_22
REMARK   21  A    between atoms: C_22  and  C_24
REMARK   22  A    between atoms: C_22  and  O_58
REMARK   23  A    between atoms: C_24  and  O_25
REMARK   24  A    between atoms: O_25  and  C_26
REMARK   25  A    between atoms: C_29  and  C_31
REMARK   26  A    between atoms: C_31  and  O_32
REMARK   27  A    between atoms: O_32  and  C_33
REMARK   28  A    between atoms: C_36  and  C_38
REMARK   29  A    between atoms: C_38  and  O_39
REMARK   30  A    between atoms: C_40  and  O_42
REMARK   31  A    between atoms: C_43  and  O_45
REMARK   32  A    between atoms: C_46  and  O_48
REMARK   33  A    between atoms: C_49  and  O_51
REMARK   34  A    between atoms: C_52  and  O_54
REMARK   35  A    between atoms: C_55  and  O_57
REMARK   36  A    between atoms: O_58  and  C_59
REMARK   37  A    between atoms: C_59  and  C_61
REMARK   38  A    between atoms: C_61  and  C_62
REMARK   39  A    between atoms: C_62  and  C_63
REMARK   40  A    between atoms: C_63  and  C_64
REMARK   41  A    between atoms: C_64  and  C_65
REMARK   42  A    between atoms: C_65  and  C_66
REMARK   43  A    between atoms: C_66  and  C_67
REMARK   44  A    between atoms: C_67  and  C_68
REMARK   45  A    between atoms: C_68  and  C_69
REMARK   46  A    between atoms: C_69  and  C_70
REMARK   47  A    between atoms: C_70  and  C_71
REMARK   48  A    between atoms: C_71  and  C_72
REMARK   49  A    between atoms: C_72  and  C_73
REMARK   50  A    between atoms: C_73  and  C_74
REMARK   51  A    between atoms: C_74  and  C_75
REMARK   52  A    between atoms: C_75  and  C_76
REMARK   53  A    between atoms: C_76  and  C_77
REMARK                            x       y       z     vdW  Elec       q    Type
REMARK                         _______ _______ _______ _____ _____    ______ ____
ROOT
ATOM      1  C   UNL     1       6.766  -0.484  23.848  0.00  0.00    +0.239 C 
ENDROOT
BRANCH   1   2
ATOM      2  C   UNL     1       7.724  -1.142  24.823  0.00  0.00    +0.211 C 
BRANCH   2   3
ATOM      3  O   UNL     1       7.778  -2.575  24.740  0.00  0.00    -0.345 OA
BRANCH   3   4
ATOM      4  C   UNL     1       8.579  -3.215  25.747  0.00  0.00    +0.282 C 
ATOM      5  C   UNL     1       8.937  -4.642  25.273  0.00  0.00    +0.201 C 
ATOM      6  C   UNL     1       7.700  -5.564  25.329  0.00  0.00    +0.179 C 
ATOM      7  C   UNL     1       6.998  -5.489  26.693  0.00  0.00    +0.177 C 
ATOM      8  C   UNL     1       6.773  -4.042  27.145  0.00  0.00    +0.178 C 
ATOM      9  O   UNL     1       7.941  -3.218  27.027  0.00  0.00    -0.341 OA
BRANCH   5  10
ATOM     10  O   UNL     1      10.029  -5.152  26.049  0.00  0.00    -0.384 OA
ATOM     11  H   UNL     1      10.829  -4.634  25.844  0.00  0.00    +0.210 HD
ENDBRANCH   5  10
BRANCH   6  12
ATOM     12  O   UNL     1       6.773  -5.282  24.273  0.00  0.00    -0.386 OA
ATOM     13  H   UNL     1       5.873  -5.513  24.577  0.00  0.00    +0.210 HD
ENDBRANCH   6  12
BRANCH   7  14
ATOM     14  O   UNL     1       7.814  -6.179  27.657  0.00  0.00    -0.386 OA
ATOM     15  H   UNL     1       8.721  -5.818  27.591  0.00  0.00    +0.210 HD
ENDBRANCH   7  14
BRANCH   8  16
ATOM     16  C   UNL     1       5.580  -3.367  26.462  0.00  0.00    +0.197 C 
BRANCH  16  17
ATOM     17  O   UNL     1       4.567  -4.225  25.981  0.00  0.00    -0.346 OA
BRANCH  17  18
ATOM     18  C   UNL     1       3.611  -3.570  25.155  0.00  0.00    +0.282 C 
ATOM     19  C   UNL     1       2.366  -3.350  26.033  0.00  0.00    +0.201 C 
ATOM     20  C   UNL     1       1.649  -4.698  26.251  0.00  0.00    +0.179 C 
ATOM     21  C   UNL     1       1.394  -5.400  24.907  0.00  0.00    +0.177 C 
ATOM     22  C   UNL     1       2.676  -5.548  24.067  0.00  0.00    +0.178 C 
ATOM     23  O   UNL     1       3.358  -4.290  23.944  0.00  0.00    -0.341 OA
BRANCH  19  24
ATOM     24  O   UNL     1       1.515  -2.348  25.468  0.00  0.00    -0.384 OA
ATOM     25  H   UNL     1       1.955  -1.484  25.595  0.00  0.00    +0.210 HD
ENDBRANCH  19  24
BRANCH  20  26
ATOM     26  O   UNL     1       2.365  -5.550  27.148  0.00  0.00    -0.386 OA
ATOM     27  H   UNL     1       1.984  -5.454  28.043  0.00  0.00    +0.210 HD
ENDBRANCH  20  26
BRANCH  21  28
ATOM     28  O   UNL     1       0.449  -4.580  24.185  0.00  0.00    -0.386 OA
ATOM     29  H   UNL     1       0.612  -3.650  24.427  0.00  0.00    +0.210 HD
ENDBRANCH  21  28
BRANCH  22  30
ATOM     30  C   UNL     1       3.583  -6.726  24.471  0.00  0.00    +0.190 C 
BRANCH  30  31
ATOM     31  O   UNL     1       3.186  -7.943  23.862  0.00  0.00    -0.392 OA
ATOM     32  H   UNL     1       3.986  -8.464  23.678  0.00  0.00    +0.210 HD
ENDBRANCH  30  31
ENDBRANCH  22  30
ENDBRANCH  17  18
ENDBRANCH  16  17
ENDBRANCH   8  16
ENDBRANCH   3   4
ENDBRANCH   2   3
ENDBRANCH   1   2
BRANCH   1  33
ATOM     33  C   UNL     1       7.510  -0.111  22.561  0.00  0.00    +0.279 C 
BRANCH  33  34
ATOM     34  O   UNL     1       8.834  -0.667  22.559  0.00  0.00    -0.461 OA
BRANCH  34  35
ATOM     35  C   UNL     1       9.843   0.215  22.808  0.00  0.00    +0.307 C 
ATOM     36  O   UNL     1      10.885  -0.054  23.384  0.00  0.00    -0.251 OA
BRANCH  35  37
ATOM     37  C   UNL     1       9.428   1.579  22.314  0.00  0.00    +0.120 C 
BRANCH  37  38
ATOM     38  C   UNL     1      10.583   2.563  22.188  0.00  0.00    +0.011 C 
BRANCH  38  39
ATOM     39  C   UNL     1      10.896   3.294  23.496  0.00  0.00    +0.001 C 
BRANCH  39  40
ATOM     40  C   UNL     1      11.948   4.374  23.251  0.00  0.00    +0.000 C 
BRANCH  40  41
ATOM     41  C   UNL     1      11.383   5.780  23.430  0.00  0.00    +0.000 C 
BRANCH  41  42
ATOM     42  C   UNL     1      11.867   6.357  24.756  0.00  0.00    +0.000 C 
BRANCH  42  43
ATOM     43  C   UNL     1      10.735   6.990  25.558  0.00  0.00    -0.000 C 
BRANCH  43  44
ATOM     44  C   UNL     1       9.485   7.080  24.688  0.00  0.00    -0.000 C 
BRANCH  44  45
ATOM     45  C   UNL     1       8.271   6.495  25.396  0.00  0.00    -0.000 C 
BRANCH  45  46
ATOM     46  C   UNL     1       8.469   5.001  25.628  0.00  0.00    -0.000 C 
BRANCH  46  47
ATOM     47  C   UNL     1       7.512   4.189  24.766  0.00  0.00    -0.000 C 
BRANCH  47  48
ATOM     48  C   UNL     1       7.561   4.660  23.317  0.00  0.00    -0.000 C 
BRANCH  48  49
ATOM     49  C   UNL     1       6.159   4.709  22.723  0.00  0.00    -0.000 C 
BRANCH  49  50
ATOM     50  C   UNL     1       5.667   3.310  22.369  0.00  0.00    -0.000 C 
BRANCH  50  51
ATOM     51  C   UNL     1       4.272   3.072  22.937  0.00  0.00    -0.000 C 
BRANCH  51  53
ATOM     52  C   UNL     1       1.805   3.279  22.521  0.00  0.00    +0.004 C 
ATOM     53  C   UNL     1       3.193   3.508  21.949  0.00  0.00    -0.003 C 
ENDBRANCH  51  53
ENDBRANCH  50  51
ENDBRANCH  49  50
ENDBRANCH  48  49
ENDBRANCH  47  48
ENDBRANCH  46  47
ENDBRANCH  45  46
ENDBRANCH  44  45
ENDBRANCH  43  44
ENDBRANCH  42  43
ENDBRANCH  41  42
ENDBRANCH  40  41
ENDBRANCH  39  40
ENDBRANCH  38  39
ENDBRANCH  37  38
ENDBRANCH  35  37
ENDBRANCH  34  35
ENDBRANCH  33  34
ENDBRANCH   1  33
BRANCH   1  54
ATOM     54  O   UNL     1       6.312   0.728  24.471  0.00  0.00    -0.456 OA
BRANCH  54  55
ATOM     55  C   UNL     1       5.475   0.583  25.532  0.00  0.00    +0.308 C 
ATOM     56  O   UNL     1       4.484  -0.130  25.575  0.00  0.00    -0.251 OA
BRANCH  55  57
ATOM     57  C   UNL     1       5.969   1.408  26.680  0.00  0.00    +0.120 C 
BRANCH  57  58
ATOM     58  C   UNL     1       6.241   0.502  27.867  0.00  0.00    +0.011 C 
BRANCH  58  59
ATOM     59  C   UNL     1       7.402   1.019  28.696  0.00  0.00    +0.001 C 
BRANCH  59  60
ATOM     60  C   UNL     1       6.886   1.499  30.041  0.00  0.00    +0.000 C 
BRANCH  60  61
ATOM     61  C   UNL     1       7.180   2.977  30.225  0.00  0.00    +0.000 C 
BRANCH  61  62
ATOM     62  C   UNL     1       6.057   3.812  29.628  0.00  0.00    +0.000 C 
BRANCH  62  63
ATOM     63  C   UNL     1       6.605   5.125  29.092  0.00  0.00    -0.000 C 
BRANCH  63  64
ATOM     64  C   UNL     1       5.714   5.658  27.982  0.00  0.00    -0.000 C 
BRANCH  64  65
ATOM     65  C   UNL     1       4.490   4.768  27.812  0.00  0.00    -0.000 C 
BRANCH  65  66
ATOM     66  C   UNL     1       4.216   4.510  26.337  0.00  0.00    -0.000 C 
BRANCH  66  67
ATOM     67  C   UNL     1       2.727   4.306  26.099  0.00  0.00    -0.000 C 
BRANCH  67  68
ATOM     68  C   UNL     1       2.367   2.823  26.171  0.00  0.00    -0.000 C 
BRANCH  68  69
ATOM     69  C   UNL     1       1.049   2.622  26.905  0.00  0.00    -0.000 C 
BRANCH  69  70
ATOM     70  C   UNL     1       1.267   1.863  28.212  0.00  0.00    -0.000 C 
BRANCH  70  71
ATOM     71  C   UNL     1       2.730   1.452  28.361  0.00  0.00    -0.000 C 
BRANCH  71  72
ATOM     72  C   UNL     1       3.175   1.510  29.820  0.00  0.00    -0.003 C 
ATOM     73  C   UNL     1       3.483   0.121  30.354  0.00  0.00    +0.004 C 
ENDBRANCH  71  72
ENDBRANCH  70  71
ENDBRANCH  69  70
ENDBRANCH  68  69
ENDBRANCH  67  68
ENDBRANCH  66  67
ENDBRANCH  65  66
ENDBRANCH  64  65
ENDBRANCH  63  64
ENDBRANCH  62  63
ENDBRANCH  61  62
ENDBRANCH  60  61
ENDBRANCH  59  60
ENDBRANCH  58  59
ENDBRANCH  57  58
ENDBRANCH  55  57
ENDBRANCH  54  55
ENDBRANCH   1  54
TORSDOF 51
ENDMDL
MODEL 8
REMARK VINA RESULT:      -3.6      1.501      2.722
REMARK  Name = 
REMARK  53 active torsions:
REMARK  status: ('A' for Active; 'I' for Inactive)
REMARK    1  A    between atoms: C_1  and  C_2
REMARK    2  A    between atoms: C_2  and  C_3
REMARK    3  A    between atoms: C_3  and  C_4
REMARK    4  A    between atoms: C_4  and  C_5
REMARK    5  A    between atoms: C_5  and  C_6
REMARK    6  A    between atoms: C_6  and  C_7
REMARK    7  A    between atoms: C_7  and  C_8
REMARK    8  A    between atoms: C_8  and  C_9
REMARK    9  A    between atoms: C_9  and  C_10
REMARK   10  A    between atoms: C_10  and  C_11
REMARK   11  A    between atoms: C_11  and  C_12
REMARK   12  A    between atoms: C_12  and  C_13
REMARK   13  A    between atoms: C_13  and  C_14
REMARK   14  A    between atoms: C_14  and  C_15
REMARK   15  A    between atoms: C_15  and  C_16
REMARK   16  A    between atoms: C_16  and  C_17
REMARK   17  A    between atoms: C_17  and  C_18
REMARK   18  A    between atoms: C_18  and  O_20
REMARK   19  A    between atoms: O_20  and  C_21
REMARK   20  A    between atoms: C_21  and  C_22
REMARK   21  A    between atoms: C_22  and  C_24
REMARK   22  A    between atoms: C_22  and  O_58
REMARK   23  A    between atoms: C_24  and  O_25
REMARK   24  A    between atoms: O_25  and  C_26
REMARK   25  A    between atoms: C_29  and  C_31
REMARK   26  A    between atoms: C_31  and  O_32
REMARK   27  A    between atoms: O_32  and  C_33
REMARK   28  A    between atoms: C_36  and  C_38
REMARK   29  A    between atoms: C_38  and  O_39
REMARK   30  A    between atoms: C_40  and  O_42
REMARK   31  A    between atoms: C_43  and  O_45
REMARK   32  A    between atoms: C_46  and  O_48
REMARK   33  A    between atoms: C_49  and  O_51
REMARK   34  A    between atoms: C_52  and  O_54
REMARK   35  A    between atoms: C_55  and  O_57
REMARK   36  A    between atoms: O_58  and  C_59
REMARK   37  A    between atoms: C_59  and  C_61
REMARK   38  A    between atoms: C_61  and  C_62
REMARK   39  A    between atoms: C_62  and  C_63
REMARK   40  A    between atoms: C_63  and  C_64
REMARK   41  A    between atoms: C_64  and  C_65
REMARK   42  A    between atoms: C_65  and  C_66
REMARK   43  A    between atoms: C_66  and  C_67
REMARK   44  A    between atoms: C_67  and  C_68
REMARK   45  A    between atoms: C_68  and  C_69
REMARK   46  A    between atoms: C_69  and  C_70
REMARK   47  A    between atoms: C_70  and  C_71
REMARK   48  A    between atoms: C_71  and  C_72
REMARK   49  A    between atoms: C_72  and  C_73
REMARK   50  A    between atoms: C_73  and  C_74
REMARK   51  A    between atoms: C_74  and  C_75
REMARK   52  A    between atoms: C_75  and  C_76
REMARK   53  A    between atoms: C_76  and  C_77
REMARK                            x       y       z     vdW  Elec       q    Type
REMARK                         _______ _______ _______ _____ _____    ______ ____
ROOT
ATOM      1  C   UNL     1       6.545  -3.760  23.594  0.00  0.00    +0.239 C 
ENDROOT
BRANCH   1   2
ATOM      2  C   UNL     1       5.397  -4.573  23.026  0.00  0.00    +0.211 C 
BRANCH   2   3
ATOM      3  O   UNL     1       4.276  -4.732  23.910  0.00  0.00    -0.345 OA
BRANCH   3   4
ATOM      4  C   UNL     1       4.071  -6.066  24.403  0.00  0.00    +0.282 C 
ATOM      5  C   UNL     1       3.011  -6.769  23.525  0.00  0.00    +0.201 C 
ATOM      6  C   UNL     1       1.605  -6.194  23.800  0.00  0.00    +0.179 C 
ATOM      7  C   UNL     1       1.288  -6.163  25.302  0.00  0.00    +0.177 C 
ATOM      8  C   UNL     1       2.431  -5.549  26.118  0.00  0.00    +0.178 C 
ATOM      9  O   UNL     1       3.719  -6.085  25.789  0.00  0.00    -0.341 OA
BRANCH   5  10
ATOM     10  O   UNL     1       3.068  -8.186  23.735  0.00  0.00    -0.384 OA
ATOM     11  H   UNL     1       2.754  -8.636  22.930  0.00  0.00    +0.210 HD
ENDBRANCH   5  10
BRANCH   6  12
ATOM     12  O   UNL     1       1.437  -4.892  23.226  0.00  0.00    -0.386 OA
ATOM     13  H   UNL     1       2.271  -4.394  23.330  0.00  0.00    +0.210 HD
ENDBRANCH   6  12
BRANCH   7  14
ATOM     14  O   UNL     1       1.048  -7.513  25.738  0.00  0.00    -0.386 OA
ATOM     15  H   UNL     1       0.362  -7.484  26.435  0.00  0.00    +0.210 HD
ENDBRANCH   7  14
BRANCH   8  16
ATOM     16  C   UNL     1       2.466  -4.019  26.064  0.00  0.00    +0.197 C 
BRANCH  16  17
ATOM     17  O   UNL     1       2.139  -3.343  27.260  0.00  0.00    -0.346 OA
BRANCH  17  18
ATOM     18  C   UNL     1       2.081  -1.928  27.116  0.00  0.00    +0.282 C 
ATOM     19  C   UNL     1       3.534  -1.457  26.928  0.00  0.00    +0.201 C 
ATOM     20  C   UNL     1       4.282  -1.557  28.272  0.00  0.00    +0.179 C 
ATOM     21  C   UNL     1       3.496  -0.844  29.385  0.00  0.00    +0.177 C 
ATOM     22  C   UNL     1       2.041  -1.339  29.487  0.00  0.00    +0.178 C 
ATOM     23  O   UNL     1       1.394  -1.302  28.205  0.00  0.00    -0.341 OA
BRANCH  19  24
ATOM     24  O   UNL     1       3.574  -0.144  26.360  0.00  0.00    -0.384 OA
ATOM     25  H   UNL     1       4.077  -0.201  25.524  0.00  0.00    +0.210 HD
ENDBRANCH  19  24
BRANCH  20  26
ATOM     26  O   UNL     1       4.568  -2.910  28.631  0.00  0.00    -0.386 OA
ATOM     27  H   UNL     1       5.087  -2.913  29.460  0.00  0.00    +0.210 HD
ENDBRANCH  20  26
BRANCH  21  28
ATOM     28  O   UNL     1       3.494   0.562  29.055  0.00  0.00    -0.386 OA
ATOM     29  H   UNL     1       4.393   0.803  28.765  0.00  0.00    +0.210 HD
ENDBRANCH  21  28
BRANCH  22  30
ATOM     30  C   UNL     1       1.859  -2.663  30.253  0.00  0.00    +0.190 C 
BRANCH  30  31
ATOM     31  O   UNL     1       0.658  -3.328  29.897  0.00  0.00    -0.392 OA
ATOM     32  H   UNL     1       0.569  -3.294  28.930  0.00  0.00    +0.210 HD
ENDBRANCH  30  31
ENDBRANCH  22  30
ENDBRANCH  17  18
ENDBRANCH  16  17
ENDBRANCH   8  16
ENDBRANCH   3   4
ENDBRANCH   2   3
ENDBRANCH   1   2
BRANCH   1  33
ATOM     33  C   UNL     1       6.012  -2.754  24.620  0.00  0.00    +0.279 C 
BRANCH  33  34
ATOM     34  O   UNL     1       6.437  -3.105  25.946  0.00  0.00    -0.461 OA
BRANCH  34  35
ATOM     35  C   UNL     1       7.618  -2.555  26.350  0.00  0.00    +0.307 C 
ATOM     36  O   UNL     1       8.693  -3.131  26.364  0.00  0.00    -0.251 OA
BRANCH  35  37
ATOM     37  C   UNL     1       7.357  -1.149  26.832  0.00  0.00    +0.120 C 
BRANCH  37  38
ATOM     38  C   UNL     1       7.929  -0.072  25.921  0.00  0.00    +0.011 C 
BRANCH  38  39
ATOM     39  C   UNL     1       7.149   1.244  25.984  0.00  0.00    +0.001 C 
BRANCH  39  40
ATOM     40  C   UNL     1       7.389   2.053  24.710  0.00  0.00    +0.000 C 
BRANCH  40  41
ATOM     41  C   UNL     1       6.253   1.893  23.704  0.00  0.00    +0.000 C 
BRANCH  41  42
ATOM     42  C   UNL     1       6.725   2.350  22.328  0.00  0.00    +0.000 C 
BRANCH  42  43
ATOM     43  C   UNL     1       7.030   3.843  22.289  0.00  0.00    -0.000 C 
BRANCH  43  44
ATOM     44  C   UNL     1       5.755   4.630  22.578  0.00  0.00    -0.000 C 
BRANCH  44  45
ATOM     45  C   UNL     1       6.005   6.131  22.538  0.00  0.00    -0.000 C 
BRANCH  45  46
ATOM     46  C   UNL     1       4.681   6.884  22.622  0.00  0.00    -0.000 C 
BRANCH  46  47
ATOM     47  C   UNL     1       3.520   5.978  22.236  0.00  0.00    -0.000 C 
BRANCH  47  48
ATOM     48  C   UNL     1       2.411   6.049  23.280  0.00  0.00    -0.000 C 
BRANCH  48  49
ATOM     49  C   UNL     1       1.545   4.797  23.227  0.00  0.00    -0.000 C 
BRANCH  49  50
ATOM     50  C   UNL     1       1.961   3.895  22.070  0.00  0.00    -0.000 C 
BRANCH  50  51
ATOM     51  C   UNL     1       1.115   2.626  22.047  0.00  0.00    -0.000 C 
BRANCH  51  53
ATOM     52  C   UNL     1       1.568   3.021  19.610  0.00  0.00    +0.004 C 
ATOM     53  C   UNL     1       0.749   2.233  20.618  0.00  0.00    -0.003 C 
ENDBRANCH  51  53
ENDBRANCH  50  51
ENDBRANCH  49  50
ENDBRANCH  48  49
ENDBRANCH  47  48
ENDBRANCH  46  47
ENDBRANCH  45  46
ENDBRANCH  44  45
ENDBRANCH  43  44
ENDBRANCH  42  43
ENDBRANCH  41  42
ENDBRANCH  40  41
ENDBRANCH  39  40
ENDBRANCH  38  39
ENDBRANCH  37  38
ENDBRANCH  35  37
ENDBRANCH  34  35
ENDBRANCH  33  34
ENDBRANCH   1  33
BRANCH   1  54
ATOM     54  O   UNL     1       7.111  -3.026  22.497  0.00  0.00    -0.456 OA
BRANCH  54  55
ATOM     55  C   UNL     1       8.290  -2.395  22.740  0.00  0.00    +0.308 C 
ATOM     56  O   UNL     1       9.304  -2.909  23.187  0.00  0.00    -0.251 OA
BRANCH  55  57
ATOM     57  C   UNL     1       8.183  -0.956  22.338  0.00  0.00    +0.120 C 
BRANCH  57  58
ATOM     58  C   UNL     1       9.389  -0.579  21.498  0.00  0.00    +0.011 C 
BRANCH  58  59
ATOM     59  C   UNL     1       9.928   0.783  21.892  0.00  0.00    +0.001 C 
BRANCH  59  60
ATOM     60  C   UNL     1      10.194   0.806  23.387  0.00  0.00    +0.000 C 
BRANCH  60  61
ATOM     61  C   UNL     1      11.176   1.910  23.735  0.00  0.00    +0.000 C 
BRANCH  61  62
ATOM     62  C   UNL     1      10.593   3.264  23.360  0.00  0.00    +0.000 C 
BRANCH  62  63
ATOM     63  C   UNL     1      11.687   4.320  23.341  0.00  0.00    -0.000 C 
BRANCH  63  64
ATOM     64  C   UNL     1      11.182   5.620  23.945  0.00  0.00    -0.000 C 
BRANCH  64  65
ATOM     65  C   UNL     1       9.805   5.960  23.392  0.00  0.00    -0.000 C 
BRANCH  65  66
ATOM     66  C   UNL     1       9.069   6.906  24.332  0.00  0.00    -0.000 C 
BRANCH  66  67
ATOM     67  C   UNL     1       9.560   6.728  25.761  0.00  0.00    -0.000 C 
BRANCH  67  68
ATOM     68  C   UNL     1       8.397   6.387  26.692  0.00  0.00    -0.000 C 
BRANCH  68  69
ATOM     69  C   UNL     1       7.088   6.324  25.920  0.00  0.00    -0.000 C 
BRANCH  69  70
ATOM     70  C   UNL     1       6.340   5.029  26.226  0.00  0.00    -0.000 C 
BRANCH  70  71
ATOM     71  C   UNL     1       4.834   5.224  26.071  0.00  0.00    -0.000 C 
BRANCH  71  72
ATOM     72  C   UNL     1       4.123   3.893  25.844  0.00  0.00    -0.003 C 
ATOM     73  C   UNL     1       2.792   3.852  26.576  0.00  0.00    +0.004 C 
ENDBRANCH  71  72
ENDBRANCH  70  71
ENDBRANCH  69  70
ENDBRANCH  68  69
ENDBRANCH  67  68
ENDBRANCH  66  67
ENDBRANCH  65  66
ENDBRANCH  64  65
ENDBRANCH  63  64
ENDBRANCH  62  63
ENDBRANCH  61  62
ENDBRANCH  60  61
ENDBRANCH  59  60
ENDBRANCH  58  59
ENDBRANCH  57  58
ENDBRANCH  55  57
ENDBRANCH  54  55
ENDBRANCH   1  54
TORSDOF 51
ENDMDL
MODEL 9
REMARK VINA RESULT:      -3.6      3.431      9.576
REMARK  Name = 
REMARK  53 active torsions:
REMARK  status: ('A' for Active; 'I' for Inactive)
REMARK    1  A    between atoms: C_1  and  C_2
REMARK    2  A    between atoms: C_2  and  C_3
REMARK    3  A    between atoms: C_3  and  C_4
REMARK    4  A    between atoms: C_4  and  C_5
REMARK    5  A    between atoms: C_5  and  C_6
REMARK    6  A    between atoms: C_6  and  C_7
REMARK    7  A    between atoms: C_7  and  C_8
REMARK    8  A    between atoms: C_8  and  C_9
REMARK    9  A    between atoms: C_9  and  C_10
REMARK   10  A    between atoms: C_10  and  C_11
REMARK   11  A    between atoms: C_11  and  C_12
REMARK   12  A    between atoms: C_12  and  C_13
REMARK   13  A    between atoms: C_13  and  C_14
REMARK   14  A    between atoms: C_14  and  C_15
REMARK   15  A    between atoms: C_15  and  C_16
REMARK   16  A    between atoms: C_16  and  C_17
REMARK   17  A    between atoms: C_17  and  C_18
REMARK   18  A    between atoms: C_18  and  O_20
REMARK   19  A    between atoms: O_20  and  C_21
REMARK   20  A    between atoms: C_21  and  C_22
REMARK   21  A    between atoms: C_22  and  C_24
REMARK   22  A    between atoms: C_22  and  O_58
REMARK   23  A    between atoms: C_24  and  O_25
REMARK   24  A    between atoms: O_25  and  C_26
REMARK   25  A    between atoms: C_29  and  C_31
REMARK   26  A    between atoms: C_31  and  O_32
REMARK   27  A    between atoms: O_32  and  C_33
REMARK   28  A    between atoms: C_36  and  C_38
REMARK   29  A    between atoms: C_38  and  O_39
REMARK   30  A    between atoms: C_40  and  O_42
REMARK   31  A    between atoms: C_43  and  O_45
REMARK   32  A    between atoms: C_46  and  O_48
REMARK   33  A    between atoms: C_49  and  O_51
REMARK   34  A    between atoms: C_52  and  O_54
REMARK   35  A    between atoms: C_55  and  O_57
REMARK   36  A    between atoms: O_58  and  C_59
REMARK   37  A    between atoms: C_59  and  C_61
REMARK   38  A    between atoms: C_61  and  C_62
REMARK   39  A    between atoms: C_62  and  C_63
REMARK   40  A    between atoms: C_63  and  C_64
REMARK   41  A    between atoms: C_64  and  C_65
REMARK   42  A    between atoms: C_65  and  C_66
REMARK   43  A    between atoms: C_66  and  C_67
REMARK   44  A    between atoms: C_67  and  C_68
REMARK   45  A    between atoms: C_68  and  C_69
REMARK   46  A    between atoms: C_69  and  C_70
REMARK   47  A    between atoms: C_70  and  C_71
REMARK   48  A    between atoms: C_71  and  C_72
REMARK   49  A    between atoms: C_72  and  C_73
REMARK   50  A    between atoms: C_73  and  C_74
REMARK   51  A    between atoms: C_74  and  C_75
REMARK   52  A    between atoms: C_75  and  C_76
REMARK   53  A    between atoms: C_76  and  C_77
REMARK                            x       y       z     vdW  Elec       q    Type
REMARK                         _______ _______ _______ _____ _____    ______ ____
ROOT
ATOM      1  C   UNL     1       8.725   0.633  23.764  0.00  0.00    +0.239 C 
ENDROOT
BRANCH   1   2
ATOM      2  C   UNL     1       9.332   2.021  23.671  0.00  0.00    +0.211 C 
BRANCH   2   3
ATOM      3  O   UNL     1       8.591   3.048  24.348  0.00  0.00    -0.345 OA
BRANCH   3   4
ATOM      4  C   UNL     1       7.326   3.381  23.753  0.00  0.00    +0.282 C 
ATOM      5  C   UNL     1       7.571   4.287  22.525  0.00  0.00    +0.201 C 
ATOM      6  C   UNL     1       8.008   5.700  22.966  0.00  0.00    +0.179 C 
ATOM      7  C   UNL     1       7.061   6.284  24.025  0.00  0.00    +0.177 C 
ATOM      8  C   UNL     1       6.782   5.288  25.156  0.00  0.00    +0.178 C 
ATOM      9  O   UNL     1       6.427   3.980  24.692  0.00  0.00    -0.341 OA
BRANCH   5  10
ATOM     10  O   UNL     1       6.399   4.314  21.701  0.00  0.00    -0.384 OA
ATOM     11  H   UNL     1       6.664   4.181  20.773  0.00  0.00    +0.210 HD
ENDBRANCH   5  10
BRANCH   6  12
ATOM     12  O   UNL     1       9.360   5.720  23.439  0.00  0.00    -0.386 OA
ATOM     13  H   UNL     1       9.624   4.809  23.672  0.00  0.00    +0.210 HD
ENDBRANCH   6  12
BRANCH   7  14
ATOM     14  O   UNL     1       5.828   6.641  23.375  0.00  0.00    -0.386 OA
ATOM     15  H   UNL     1       5.245   7.048  24.047  0.00  0.00    +0.210 HD
ENDBRANCH   7  14
BRANCH   8  16
ATOM     16  C   UNL     1       7.916   5.195  26.180  0.00  0.00    +0.197 C 
BRANCH  16  17
ATOM     17  O   UNL     1       7.569   4.695  27.455  0.00  0.00    -0.346 OA
BRANCH  17  18
ATOM     18  C   UNL     1       6.182   4.806  27.751  0.00  0.00    +0.282 C 
ATOM     19  C   UNL     1       6.089   5.556  29.092  0.00  0.00    +0.201 C 
ATOM     20  C   UNL     1       6.530   4.619  30.233  0.00  0.00    +0.179 C 
ATOM     21  C   UNL     1       5.765   3.287  30.168  0.00  0.00    +0.177 C 
ATOM     22  C   UNL     1       5.871   2.615  28.786  0.00  0.00    +0.178 C 
ATOM     23  O   UNL     1       5.523   3.535  27.740  0.00  0.00    -0.341 OA
BRANCH  19  24
ATOM     24  O   UNL     1       4.776   6.095  29.284  0.00  0.00    -0.384 OA
ATOM     25  H   UNL     1       4.312   6.048  28.424  0.00  0.00    +0.210 HD
ENDBRANCH  19  24
BRANCH  20  26
ATOM     26  O   UNL     1       7.942   4.401  30.237  0.00  0.00    -0.386 OA
ATOM     27  H   UNL     1       8.112   3.439  30.207  0.00  0.00    +0.210 HD
ENDBRANCH  20  26
BRANCH  21  28
ATOM     28  O   UNL     1       4.379   3.591  30.441  0.00  0.00    -0.386 OA
ATOM     29  H   UNL     1       3.991   2.828  30.907  0.00  0.00    +0.210 HD
ENDBRANCH  21  28
BRANCH  22  30
ATOM     30  C   UNL     1       7.177   1.838  28.541  0.00  0.00    +0.190 C 
BRANCH  30  31
ATOM     31  O   UNL     1       7.866   1.551  29.746  0.00  0.00    -0.392 OA
ATOM     32  H   UNL     1       8.414   2.322  29.973  0.00  0.00    +0.210 HD
ENDBRANCH  30  31
ENDBRANCH  22  30
ENDBRANCH  17  18
ENDBRANCH  16  17
ENDBRANCH   8  16
ENDBRANCH   3   4
ENDBRANCH   2   3
ENDBRANCH   1   2
BRANCH   1  33
ATOM     33  C   UNL     1       8.186   0.395  25.179  0.00  0.00    +0.279 C 
BRANCH  33  34
ATOM     34  O   UNL     1       6.756   0.272  25.165  0.00  0.00    -0.461 OA
BRANCH  34  35
ATOM     35  C   UNL     1       6.276  -0.993  24.993  0.00  0.00    +0.307 C 
ATOM     36  O   UNL     1       6.005  -1.500  23.916  0.00  0.00    -0.251 OA
BRANCH  35  37
ATOM     37  C   UNL     1       6.078  -1.625  26.348  0.00  0.00    +0.120 C 
BRANCH  37  38
ATOM     38  C   UNL     1       5.182  -2.855  26.327  0.00  0.00    +0.011 C 
BRANCH  38  39
ATOM     39  C   UNL     1       3.834  -2.605  25.644  0.00  0.00    +0.001 C 
BRANCH  39  40
ATOM     40  C   UNL     1       2.810  -3.634  26.121  0.00  0.00    +0.000 C 
BRANCH  40  41
ATOM     41  C   UNL     1       1.400  -3.056  26.184  0.00  0.00    +0.000 C 
BRANCH  41  42
ATOM     42  C   UNL     1       0.681  -3.326  24.867  0.00  0.00    +0.000 C 
BRANCH  42  43
ATOM     43  C   UNL     1       0.443  -4.814  24.632  0.00  0.00    -0.000 C 
BRANCH  43  44
ATOM     44  C   UNL     1       1.126  -5.238  23.335  0.00  0.00    -0.000 C 
BRANCH  44  45
ATOM     45  C   UNL     1       1.699  -6.645  23.442  0.00  0.00    -0.000 C 
BRANCH  45  46
ATOM     46  C   UNL     1       1.515  -7.179  24.858  0.00  0.00    -0.000 C 
BRANCH  46  47
ATOM     47  C   UNL     1       2.864  -7.418  25.523  0.00  0.00    -0.000 C 
BRANCH  47  48
ATOM     48  C   UNL     1       3.989  -7.358  24.496  0.00  0.00    -0.000 C 
BRANCH  48  49
ATOM     49  C   UNL     1       4.968  -6.243  24.840  0.00  0.00    -0.000 C 
BRANCH  49  50
ATOM     50  C   UNL     1       5.230  -5.355  23.628  0.00  0.00    -0.000 C 
BRANCH  50  51
ATOM     51  C   UNL     1       5.874  -6.159  22.502  0.00  0.00    -0.000 C 
BRANCH  51  53
ATOM     52  C   UNL     1       6.292  -3.913  21.465  0.00  0.00    +0.004 C 
ATOM     53  C   UNL     1       6.854  -5.303  21.704  0.00  0.00    -0.003 C 
ENDBRANCH  51  53
ENDBRANCH  50  51
ENDBRANCH  49  50
ENDBRANCH  48  49
ENDBRANCH  47  48
ENDBRANCH  46  47
ENDBRANCH  45  46
ENDBRANCH  44  45
ENDBRANCH  43  44
ENDBRANCH  42  43
ENDBRANCH  41  42
ENDBRANCH  40  41
ENDBRANCH  39  40
ENDBRANCH  38  39
ENDBRANCH  37  38
ENDBRANCH  35  37
ENDBRANCH  34  35
ENDBRANCH  33  34
ENDBRANCH   1  33
BRANCH   1  54
ATOM     54  O   UNL     1       9.792  -0.299  23.527  0.00  0.00    -0.456 OA
BRANCH  54  55
ATOM     55  C   UNL     1       9.442  -1.483  22.960  0.00  0.00    +0.308 C 
ATOM     56  O   UNL     1       8.814  -1.628  21.922  0.00  0.00    -0.251 OA
BRANCH  55  57
ATOM     57  C   UNL     1       9.978  -2.613  23.784  0.00  0.00    +0.120 C 
BRANCH  57  58
ATOM     58  C   UNL     1       8.823  -3.460  24.285  0.00  0.00    +0.011 C 
BRANCH  58  59
ATOM     59  C   UNL     1       9.321  -4.635  25.106  0.00  0.00    +0.001 C 
BRANCH  59  60
ATOM     60  C   UNL     1       8.790  -4.521  26.524  0.00  0.00    +0.000 C 
BRANCH  60  61
ATOM     61  C   UNL     1       7.738  -5.584  26.784  0.00  0.00    +0.000 C 
BRANCH  61  62
ATOM     62  C   UNL     1       6.719  -5.074  27.792  0.00  0.00    +0.000 C 
BRANCH  62  63
ATOM     63  C   UNL     1       6.380  -6.165  28.795  0.00  0.00    -0.000 C 
BRANCH  63  64
ATOM     64  C   UNL     1       5.065  -6.834  28.429  0.00  0.00    -0.000 C 
BRANCH  64  65
ATOM     65  C   UNL     1       4.046  -6.643  29.543  0.00  0.00    -0.000 C 
BRANCH  65  66
ATOM     66  C   UNL     1       2.877  -5.795  29.061  0.00  0.00    -0.000 C 
BRANCH  66  67
ATOM     67  C   UNL     1       2.395  -4.869  30.168  0.00  0.00    -0.000 C 
BRANCH  67  68
ATOM     68  C   UNL     1       2.318  -3.427  29.671  0.00  0.00    -0.000 C 
BRANCH  68  69
ATOM     69  C   UNL     1       3.651  -2.718  29.864  0.00  0.00    -0.000 C 
BRANCH  69  70
ATOM     70  C   UNL     1       3.619  -1.325  29.241  0.00  0.00    -0.000 C 
BRANCH  70  71
ATOM     71  C   UNL     1       2.200  -0.761  29.250  0.00  0.00    -0.000 C 
BRANCH  71  72
ATOM     72  C   UNL     1       1.929   0.076  28.003  0.00  0.00    -0.003 C 
ATOM     73  C   UNL     1       3.226   0.490  27.330  0.00  0.00    +0.004 C 
ENDBRANCH  71  72
ENDBRANCH  70  71
ENDBRANCH  69  70
ENDBRANCH  68  69
ENDBRANCH  67  68
ENDBRANCH  66  67
ENDBRANCH  65  66
ENDBRANCH  64  65
ENDBRANCH  63  64
ENDBRANCH  62  63
ENDBRANCH  61  62
ENDBRANCH  60  61
ENDBRANCH  59  60
ENDBRANCH  58  59
ENDBRANCH  57  58
ENDBRANCH  55  57
ENDBRANCH  54  55
ENDBRANCH   1  54
TORSDOF 51
ENDMDL
