MODEL 1
REMARK VINA RESULT:      -6.8      0.000      0.000
REMARK  Name = 
REMARK  11 active torsions:
REMARK  status: ('A' for Active; 'I' for Inactive)
REMARK    1  A    between atoms: N_8  and  C_9
REMARK    2  A    between atoms: C_12  and  C_14
REMARK    3  A    between atoms: C_14  and  O_15
REMARK    4  A    between atoms: O_15  and  P_16
REMARK    5  A    between atoms: P_16  and  O_17
REMARK    6  A    between atoms: P_16  and  O_19
REMARK    7  A    between atoms: O_19  and  P_20
REMARK    8  A    between atoms: P_20  and  N_21
REMARK    9  A    between atoms: P_20  and  O_22
REMARK   10  A    between atoms: C_24  and  O_26
REMARK   11  A    between atoms: C_27  and  O_29
REMARK                            x       y       z     vdW  Elec       q    Type
REMARK                         _______ _______ _______ _____ _____    ______ ____
ROOT
ATOM      1  C   UNL     1       8.467  -2.823  24.257  0.00  0.00    +0.253 C 
ATOM      2  C   UNL     1       7.992  -2.749  22.793  0.00  0.00    +0.195 C 
ATOM      3  C   UNL     1       6.827  -1.741  22.807  0.00  0.00    +0.178 C 
ATOM      4  C   UNL     1       6.709  -1.357  24.282  0.00  0.00    +0.178 C 
ATOM      5  O   UNL     1       8.016  -1.581  24.840  0.00  0.00    -0.346 OA
ENDROOT
BRANCH   1  17
ATOM      6  N   UNL     1       4.542  -6.182  22.919  0.00  0.00    -0.329 N 
ATOM      7  H   UNL     1       3.569  -6.392  23.100  0.00  0.00    +0.145 HD
ATOM      8  H   UNL     1       4.667  -5.525  22.152  0.00  0.00    +0.145 HD
ATOM      9  C   UNL     1       5.321  -5.868  23.981  0.00  0.00    +0.195 A 
ATOM     10  N   UNL     1       5.031  -6.501  25.172  0.00  0.00    -0.293 N 
ATOM     11  H   UNL     1       4.295  -7.184  25.215  0.00  0.00    +0.172 HD
ATOM     12  C   UNL     1       5.733  -6.313  26.354  0.00  0.00    +0.280 A 
ATOM     13  O   UNL     1       5.433  -6.902  27.389  0.00  0.00    -0.265 OA
ATOM     14  C   UNL     1       6.805  -5.351  26.206  0.00  0.00    +0.172 A 
ATOM     15  N   UNL     1       7.690  -4.859  27.129  0.00  0.00    -0.229 NA
ATOM     16  C   UNL     1       8.392  -3.969  26.460  0.00  0.00    +0.203 A 
ATOM     17  N   UNL     1       7.994  -3.869  25.140  0.00  0.00    -0.285 N 
ATOM     18  C   UNL     1       6.986  -4.771  24.970  0.00  0.00    +0.171 A 
ATOM     19  N   UNL     1       6.282  -4.998  23.841  0.00  0.00    -0.196 NA
ENDBRANCH   1  17
BRANCH   2  20
ATOM     20  O   UNL     1       9.063  -2.226  21.970  0.00  0.00    -0.385 OA
ATOM     21  H   UNL     1       8.934  -1.266  21.869  0.00  0.00    +0.210 HD
ENDBRANCH   2  20
BRANCH   3  22
ATOM     22  O   UNL     1       5.624  -2.324  22.308  0.00  0.00    -0.386 OA
ATOM     23  H   UNL     1       5.787  -3.275  22.184  0.00  0.00    +0.210 HD
ENDBRANCH   3  22
BRANCH   4  24
ATOM     24  C   UNL     1       6.325   0.079  24.584  0.00  0.00    +0.206 C 
BRANCH  24  25
ATOM     25  O   UNL     1       7.104   1.008  23.857  0.00  0.00    -0.284 OA
BRANCH  25  26
ATOM     26  P   UNL     1       7.962   2.061  24.718  0.00  0.00    +0.483 P 
ATOM     27  O   UNL     1       7.168   3.175  25.301  0.00  0.00    -0.227 OA
BRANCH  26  28
ATOM     28  O   UNL     1       8.669   1.156  25.830  0.00  0.00    -0.302 OA
ATOM     29  H   UNL     1       9.563   0.884  25.544  0.00  0.00    +0.222 HD
ENDBRANCH  26  28
BRANCH  26  30
ATOM     30  O   UNL     1       9.154   2.548  23.738  0.00  0.00    -0.196 OA
BRANCH  30  31
ATOM     31  P   UNL     1       9.012   1.519  22.353  0.00  0.00    +0.411 P 
ATOM     32  O   UNL     1       8.885   0.600  21.114  0.00  0.00    -0.240 OA
BRANCH  31  33
ATOM     33  N   UNL     1      10.375   2.308  21.762  0.00  0.00    -0.236 NA
ATOM     34  H   UNL     1      10.958   1.617  21.297  0.00  0.00    +0.130 HD
ATOM     35  H   UNL     1      10.115   2.993  21.061  0.00  0.00    +0.130 HD
ENDBRANCH  31  33
BRANCH  31  36
ATOM     36  O   UNL     1       9.869   0.417  23.212  0.00  0.00    -0.312 OA
ATOM     37  H   UNL     1      10.314  -0.142  22.544  0.00  0.00    +0.221 HD
ENDBRANCH  31  36
ENDBRANCH  30  31
ENDBRANCH  26  30
ENDBRANCH  25  26
ENDBRANCH  24  25
ENDBRANCH   4  24
TORSDOF 11
ENDMDL
MODEL 2
REMARK VINA RESULT:      -6.8      2.141      3.119
REMARK  Name = 
REMARK  11 active torsions:
REMARK  status: ('A' for Active; 'I' for Inactive)
REMARK    1  A    between atoms: N_8  and  C_9
REMARK    2  A    between atoms: C_12  and  C_14
REMARK    3  A    between atoms: C_14  and  O_15
REMARK    4  A    between atoms: O_15  and  P_16
REMARK    5  A    between atoms: P_16  and  O_17
REMARK    6  A    between atoms: P_16  and  O_19
REMARK    7  A    between atoms: O_19  and  P_20
REMARK    8  A    between atoms: P_20  and  N_21
REMARK    9  A    between atoms: P_20  and  O_22
REMARK   10  A    between atoms: C_24  and  O_26
REMARK   11  A    between atoms: C_27  and  O_29
REMARK                            x       y       z     vdW  Elec       q    Type
REMARK                         _______ _______ _______ _____ _____    ______ ____
ROOT
ATOM      1  C   UNL     1       8.193  -5.116  25.777  0.00  0.00    +0.253 C 
ATOM      2  C   UNL     1       9.278  -4.774  24.738  0.00  0.00    +0.195 C 
ATOM      3  C   UNL     1       9.324  -3.234  24.708  0.00  0.00    +0.178 C 
ATOM      4  C   UNL     1       8.235  -2.829  25.700  0.00  0.00    +0.178 C 
ATOM      5  O   UNL     1       8.113  -3.938  26.609  0.00  0.00    -0.346 OA
ENDROOT
BRANCH   1  17
ATOM      6  N   UNL     1       4.607  -7.381  29.017  0.00  0.00    -0.329 N 
ATOM      7  H   UNL     1       4.120  -8.249  29.191  0.00  0.00    +0.145 HD
ATOM      8  H   UNL     1       5.489  -7.315  29.522  0.00  0.00    +0.145 HD
ATOM      9  C   UNL     1       4.737  -6.984  27.728  0.00  0.00    +0.195 A 
ATOM     10  N   UNL     1       3.698  -7.298  26.875  0.00  0.00    -0.293 N 
ATOM     11  H   UNL     1       2.881  -7.768  27.226  0.00  0.00    +0.172 HD
ATOM     12  C   UNL     1       3.655  -6.958  25.531  0.00  0.00    +0.280 A 
ATOM     13  O   UNL     1       2.705  -7.262  24.815  0.00  0.00    -0.265 OA
ATOM     14  C   UNL     1       4.842  -6.247  25.108  0.00  0.00    +0.172 A 
ATOM     15  N   UNL     1       5.205  -5.780  23.872  0.00  0.00    -0.229 NA
ATOM     16  C   UNL     1       6.407  -5.278  24.057  0.00  0.00    +0.203 A 
ATOM     17  N   UNL     1       6.834  -5.402  25.365  0.00  0.00    -0.285 N 
ATOM     18  C   UNL     1       5.820  -6.007  26.047  0.00  0.00    +0.171 A 
ATOM     19  N   UNL     1       5.811  -6.347  27.353  0.00  0.00    -0.196 NA
ENDBRANCH   1  17
BRANCH   2  20
ATOM     20  O   UNL     1      10.555  -5.279  25.199  0.00  0.00    -0.385 OA
ATOM     21  H   UNL     1      10.420  -6.168  25.571  0.00  0.00    +0.210 HD
ENDBRANCH   2  20
BRANCH   3  22
ATOM     22  O   UNL     1       9.071  -2.727  23.399  0.00  0.00    -0.386 OA
ATOM     23  H   UNL     1       8.107  -2.718  23.269  0.00  0.00    +0.210 HD
ENDBRANCH   3  22
BRANCH   4  24
ATOM     24  C   UNL     1       8.497  -1.587  26.532  0.00  0.00    +0.206 C 
BRANCH  24  25
ATOM     25  O   UNL     1       9.196  -0.594  25.810  0.00  0.00    -0.284 OA
BRANCH  25  26
ATOM     26  P   UNL     1       8.304   0.517  25.065  0.00  0.00    +0.483 P 
ATOM     27  O   UNL     1       6.971   0.754  25.679  0.00  0.00    -0.227 OA
BRANCH  26  28
ATOM     28  O   UNL     1       9.232   1.820  25.077  0.00  0.00    -0.302 OA
ATOM     29  H   UNL     1       9.290   2.200  25.975  0.00  0.00    +0.222 HD
ENDBRANCH  26  28
BRANCH  26  30
ATOM     30  O   UNL     1       8.239   0.050  23.516  0.00  0.00    -0.196 OA
BRANCH  30  31
ATOM     31  P   UNL     1       9.388   1.068  22.717  0.00  0.00    +0.411 P 
ATOM     32  O   UNL     1      10.415   1.980  22.003  0.00  0.00    -0.240 OA
BRANCH  31  33
ATOM     33  N   UNL     1      10.559  -0.011  23.259  0.00  0.00    -0.236 NA
ATOM     34  H   UNL     1      10.752  -0.664  22.504  0.00  0.00    +0.130 HD
ATOM     35  H   UNL     1      11.427   0.476  23.456  0.00  0.00    +0.130 HD
ENDBRANCH  31  33
BRANCH  31  36
ATOM     36  O   UNL     1       9.048   0.213  21.361  0.00  0.00    -0.312 OA
ATOM     37  H   UNL     1       9.069  -0.726  21.636  0.00  0.00    +0.221 HD
ENDBRANCH  31  36
ENDBRANCH  30  31
ENDBRANCH  26  30
ENDBRANCH  25  26
ENDBRANCH  24  25
ENDBRANCH   4  24
TORSDOF 11
ENDMDL
MODEL 3
REMARK VINA RESULT:      -6.7      2.114      2.966
REMARK  Name = 
REMARK  11 active torsions:
REMARK  status: ('A' for Active; 'I' for Inactive)
REMARK    1  A    between atoms: N_8  and  C_9
REMARK    2  A    between atoms: C_12  and  C_14
REMARK    3  A    between atoms: C_14  and  O_15
REMARK    4  A    between atoms: O_15  and  P_16
REMARK    5  A    between atoms: P_16  and  O_17
REMARK    6  A    between atoms: P_16  and  O_19
REMARK    7  A    between atoms: O_19  and  P_20
REMARK    8  A    between atoms: P_20  and  N_21
REMARK    9  A    between atoms: P_20  and  O_22
REMARK   10  A    between atoms: C_24  and  O_26
REMARK   11  A    between atoms: C_27  and  O_29
REMARK                            x       y       z     vdW  Elec       q    Type
REMARK                         _______ _______ _______ _____ _____    ______ ____
ROOT
ATOM      1  C   UNL     1       7.958  -5.317  26.230  0.00  0.00    +0.253 C 
ATOM      2  C   UNL     1       9.053  -5.232  25.150  0.00  0.00    +0.195 C 
ATOM      3  C   UNL     1       9.136  -3.737  24.788  0.00  0.00    +0.178 C 
ATOM      4  C   UNL     1       8.055  -3.102  25.662  0.00  0.00    +0.178 C 
ATOM      5  O   UNL     1       7.905  -3.985  26.787  0.00  0.00    -0.346 OA
ENDROOT
BRANCH   1  17
ATOM      6  N   UNL     1       6.301  -5.800  21.180  0.00  0.00    -0.329 N 
ATOM      7  H   UNL     1       5.754  -5.336  20.468  0.00  0.00    +0.145 HD
ATOM      8  H   UNL     1       7.282  -5.529  21.164  0.00  0.00    +0.145 HD
ATOM      9  C   UNL     1       5.805  -5.813  22.441  0.00  0.00    +0.195 A 
ATOM     10  N   UNL     1       4.433  -5.879  22.566  0.00  0.00    -0.293 N 
ATOM     11  H   UNL     1       3.853  -5.951  21.747  0.00  0.00    +0.172 HD
ATOM     12  C   UNL     1       3.755  -5.917  23.776  0.00  0.00    +0.280 A 
ATOM     13  O   UNL     1       2.530  -5.977  23.832  0.00  0.00    -0.265 OA
ATOM     14  C   UNL     1       4.654  -5.856  24.908  0.00  0.00    +0.172 A 
ATOM     15  N   UNL     1       4.389  -5.824  26.253  0.00  0.00    -0.229 NA
ATOM     16  C   UNL     1       5.574  -5.701  26.812  0.00  0.00    +0.203 A 
ATOM     17  N   UNL     1       6.593  -5.654  25.881  0.00  0.00    -0.285 N 
ATOM     18  C   UNL     1       6.006  -5.773  24.657  0.00  0.00    +0.171 A 
ATOM     19  N   UNL     1       6.621  -5.753  23.456  0.00  0.00    -0.196 NA
ENDBRANCH   1  17
BRANCH   2  20
ATOM     20  O   UNL     1      10.317  -5.654  25.718  0.00  0.00    -0.385 OA
ATOM     21  H   UNL     1      10.265  -5.569  26.687  0.00  0.00    +0.210 HD
ENDBRANCH   2  20
BRANCH   3  22
ATOM     22  O   UNL     1       8.898  -3.519  23.399  0.00  0.00    -0.386 OA
ATOM     23  H   UNL     1       8.103  -2.963  23.320  0.00  0.00    +0.210 HD
ENDBRANCH   3  22
BRANCH   4  24
ATOM     24  C   UNL     1       8.345  -1.716  26.207  0.00  0.00    +0.206 C 
BRANCH  24  25
ATOM     25  O   UNL     1       8.012  -0.696  25.288  0.00  0.00    -0.284 OA
BRANCH  25  26
ATOM     26  P   UNL     1       9.226   0.204  24.739  0.00  0.00    +0.483 P 
ATOM     27  O   UNL     1       8.823   1.545  24.237  0.00  0.00    -0.227 OA
BRANCH  26  28
ATOM     28  O   UNL     1      10.232   0.283  25.979  0.00  0.00    -0.302 OA
ATOM     29  H   UNL     1      11.154   0.132  25.692  0.00  0.00    +0.222 HD
ENDBRANCH  26  28
BRANCH  26  30
ATOM     30  O   UNL     1       9.975  -0.712  23.634  0.00  0.00    -0.196 OA
BRANCH  30  31
ATOM     31  P   UNL     1       9.430  -0.080  22.118  0.00  0.00    +0.411 P 
ATOM     32  O   UNL     1       8.943   0.485  20.762  0.00  0.00    -0.240 OA
BRANCH  31  33
ATOM     33  N   UNL     1      10.043  -1.489  21.434  0.00  0.00    -0.236 NA
ATOM     34  H   UNL     1       9.306  -2.190  21.454  0.00  0.00    +0.130 HD
ATOM     35  H   UNL     1      10.278  -1.339  20.459  0.00  0.00    +0.130 HD
ENDBRANCH  31  33
BRANCH  31  36
ATOM     36  O   UNL     1       7.975  -0.741  22.483  0.00  0.00    -0.312 OA
ATOM     37  H   UNL     1       7.530  -0.877  21.623  0.00  0.00    +0.221 HD
ENDBRANCH  31  36
ENDBRANCH  30  31
ENDBRANCH  26  30
ENDBRANCH  25  26
ENDBRANCH  24  25
ENDBRANCH   4  24
TORSDOF 11
ENDMDL
MODEL 4
REMARK VINA RESULT:      -6.6      3.677      7.543
REMARK  Name = 
REMARK  11 active torsions:
REMARK  status: ('A' for Active; 'I' for Inactive)
REMARK    1  A    between atoms: N_8  and  C_9
REMARK    2  A    between atoms: C_12  and  C_14
REMARK    3  A    between atoms: C_14  and  O_15
REMARK    4  A    between atoms: O_15  and  P_16
REMARK    5  A    between atoms: P_16  and  O_17
REMARK    6  A    between atoms: P_16  and  O_19
REMARK    7  A    between atoms: O_19  and  P_20
REMARK    8  A    between atoms: P_20  and  N_21
REMARK    9  A    between atoms: P_20  and  O_22
REMARK   10  A    between atoms: C_24  and  O_26
REMARK   11  A    between atoms: C_27  and  O_29
REMARK                            x       y       z     vdW  Elec       q    Type
REMARK                         _______ _______ _______ _____ _____    ______ ____
ROOT
ATOM      1  C   UNL     1       9.176  -3.368  24.580  0.00  0.00    +0.253 C 
ATOM      2  C   UNL     1       9.516  -4.431  25.642  0.00  0.00    +0.195 C 
ATOM      3  C   UNL     1       8.208  -5.218  25.847  0.00  0.00    +0.178 C 
ATOM      4  C   UNL     1       7.222  -4.513  24.915  0.00  0.00    +0.178 C 
ATOM      5  O   UNL     1       8.031  -3.912  23.887  0.00  0.00    -0.346 OA
ENDROOT
BRANCH   1  17
ATOM      6  N   UNL     1       9.193   0.731  21.163  0.00  0.00    -0.329 N 
ATOM      7  H   UNL     1       9.705   1.568  20.918  0.00  0.00    +0.145 HD
ATOM      8  H   UNL     1       9.523  -0.093  20.665  0.00  0.00    +0.145 HD
ATOM      9  C   UNL     1       9.003   0.479  22.481  0.00  0.00    +0.195 A 
ATOM     10  N   UNL     1       8.841   1.574  23.304  0.00  0.00    -0.293 N 
ATOM     11  H   UNL     1       8.832   2.502  22.916  0.00  0.00    +0.172 HD
ATOM     12  C   UNL     1       8.621   1.503  24.672  0.00  0.00    +0.280 A 
ATOM     13  O   UNL     1       8.483   2.510  25.361  0.00  0.00    -0.265 OA
ATOM     14  C   UNL     1       8.602   0.138  25.153  0.00  0.00    +0.172 A 
ATOM     15  N   UNL     1       8.459  -0.355  26.424  0.00  0.00    -0.229 NA
ATOM     16  C   UNL     1       8.585  -1.657  26.281  0.00  0.00    +0.203 A 
ATOM     17  N   UNL     1       8.802  -2.023  24.966  0.00  0.00    -0.285 N 
ATOM     18  C   UNL     1       8.794  -0.872  24.237  0.00  0.00    +0.171 A 
ATOM     19  N   UNL     1       8.991  -0.753  22.907  0.00  0.00    -0.196 NA
ENDBRANCH   1  17
BRANCH   2  20
ATOM     20  O   UNL     1      10.530  -5.323  25.118  0.00  0.00    -0.385 OA
ATOM     21  H   UNL     1      11.106  -4.817  24.516  0.00  0.00    +0.210 HD
ENDBRANCH   2  20
BRANCH   3  22
ATOM     22  O   UNL     1       7.779  -5.180  27.207  0.00  0.00    -0.386 OA
ATOM     23  H   UNL     1       7.830  -4.255  27.505  0.00  0.00    +0.210 HD
ENDBRANCH   3  22
BRANCH   4  24
ATOM     24  C   UNL     1       6.189  -5.386  24.228  0.00  0.00    +0.206 C 
BRANCH  24  25
ATOM     25  O   UNL     1       4.898  -5.228  24.781  0.00  0.00    -0.284 OA
BRANCH  25  26
ATOM     26  P   UNL     1       4.242  -6.528  25.462  0.00  0.00    +0.483 P 
ATOM     27  O   UNL     1       2.873  -6.317  26.004  0.00  0.00    -0.227 OA
BRANCH  26  28
ATOM     28  O   UNL     1       4.286  -7.628  24.303  0.00  0.00    -0.302 OA
ATOM     29  H   UNL     1       4.227  -7.211  23.422  0.00  0.00    +0.222 HD
ENDBRANCH  26  28
BRANCH  26  30
ATOM     30  O   UNL     1       5.316  -7.023  26.567  0.00  0.00    -0.196 OA
BRANCH  30  31
ATOM     31  P   UNL     1       4.543  -6.706  28.083  0.00  0.00    +0.411 P 
ATOM     32  O   UNL     1       3.851  -6.423  29.439  0.00  0.00    -0.240 OA
BRANCH  31  33
ATOM     33  N   UNL     1       6.004  -7.137  28.795  0.00  0.00    -0.236 NA
ATOM     34  H   UNL     1       6.291  -6.374  29.403  0.00  0.00    +0.130 HD
ATOM     35  H   UNL     1       5.886  -7.954  29.385  0.00  0.00    +0.130 HD
ENDBRANCH  31  33
BRANCH  31  36
ATOM     36  O   UNL     1       4.971  -5.140  27.857  0.00  0.00    -0.312 OA
ATOM     37  H   UNL     1       5.619  -4.946  28.564  0.00  0.00    +0.221 HD
ENDBRANCH  31  36
ENDBRANCH  30  31
ENDBRANCH  26  30
ENDBRANCH  25  26
ENDBRANCH  24  25
ENDBRANCH   4  24
TORSDOF 11
ENDMDL
MODEL 5
REMARK VINA RESULT:      -6.6      1.975      3.011
REMARK  Name = 
REMARK  11 active torsions:
REMARK  status: ('A' for Active; 'I' for Inactive)
REMARK    1  A    between atoms: N_8  and  C_9
REMARK    2  A    between atoms: C_12  and  C_14
REMARK    3  A    between atoms: C_14  and  O_15
REMARK    4  A    between atoms: O_15  and  P_16
REMARK    5  A    between atoms: P_16  and  O_17
REMARK    6  A    between atoms: P_16  and  O_19
REMARK    7  A    between atoms: O_19  and  P_20
REMARK    8  A    between atoms: P_20  and  N_21
REMARK    9  A    between atoms: P_20  and  O_22
REMARK   10  A    between atoms: C_24  and  O_26
REMARK   11  A    between atoms: C_27  and  O_29
REMARK                            x       y       z     vdW  Elec       q    Type
REMARK                         _______ _______ _______ _____ _____    ______ ____
ROOT
ATOM      1  C   UNL     1       8.730  -2.371  23.168  0.00  0.00    +0.253 C 
ATOM      2  C   UNL     1       8.924  -1.401  21.987  0.00  0.00    +0.195 C 
ATOM      3  C   UNL     1       8.830   0.004  22.611  0.00  0.00    +0.178 C 
ATOM      4  C   UNL     1       8.551  -0.282  24.086  0.00  0.00    +0.178 C 
ATOM      5  O   UNL     1       9.091  -1.593  24.330  0.00  0.00    -0.346 OA
ENDROOT
BRANCH   1  17
ATOM      6  N   UNL     1       7.923  -5.895  27.094  0.00  0.00    -0.329 N 
ATOM      7  H   UNL     1       7.743  -6.874  27.268  0.00  0.00    +0.145 HD
ATOM      8  H   UNL     1       8.917  -5.675  27.069  0.00  0.00    +0.145 HD
ATOM      9  C   UNL     1       7.254  -5.307  26.073  0.00  0.00    +0.195 A 
ATOM     10  N   UNL     1       5.973  -5.758  25.832  0.00  0.00    -0.293 N 
ATOM     11  H   UNL     1       5.565  -6.463  26.421  0.00  0.00    +0.172 HD
ATOM     12  C   UNL     1       5.138  -5.261  24.841  0.00  0.00    +0.280 A 
ATOM     13  O   UNL     1       4.004  -5.698  24.668  0.00  0.00    -0.265 OA
ATOM     14  C   UNL     1       5.774  -4.219  24.063  0.00  0.00    +0.172 A 
ATOM     15  N   UNL     1       5.315  -3.512  22.982  0.00  0.00    -0.229 NA
ATOM     16  C   UNL     1       6.332  -2.749  22.641  0.00  0.00    +0.203 A 
ATOM     17  N   UNL     1       7.428  -2.936  23.460  0.00  0.00    -0.285 N 
ATOM     18  C   UNL     1       7.065  -3.867  24.387  0.00  0.00    +0.171 A 
ATOM     19  N   UNL     1       7.834  -4.372  25.375  0.00  0.00    -0.196 NA
ENDBRANCH   1  17
BRANCH   2  20
ATOM     20  O   UNL     1      10.248  -1.586  21.430  0.00  0.00    -0.385 OA
ATOM     21  H   UNL     1      10.767  -2.138  22.043  0.00  0.00    +0.210 HD
ENDBRANCH   2  20
BRANCH   3  22
ATOM     22  O   UNL     1       7.793   0.778  22.010  0.00  0.00    -0.386 OA
ATOM     23  H   UNL     1       6.949   0.486  22.394  0.00  0.00    +0.210 HD
ENDBRANCH   3  22
BRANCH   4  24
ATOM     24  C   UNL     1       9.177   0.663  25.095  0.00  0.00    +0.206 C 
BRANCH  24  25
ATOM     25  O   UNL     1       9.244   1.991  24.618  0.00  0.00    -0.284 OA
BRANCH  25  26
ATOM     26  P   UNL     1       8.031   2.966  25.023  0.00  0.00    +0.483 P 
ATOM     27  O   UNL     1       7.441   2.695  26.361  0.00  0.00    -0.227 OA
BRANCH  26  28
ATOM     28  O   UNL     1       8.665   4.429  24.911  0.00  0.00    -0.302 OA
ATOM     29  H   UNL     1       9.345   4.463  24.209  0.00  0.00    +0.222 HD
ENDBRANCH  26  28
BRANCH  26  30
ATOM     30  O   UNL     1       6.970   2.862  23.805  0.00  0.00    -0.196 OA
BRANCH  30  31
ATOM     31  P   UNL     1       7.243   4.299  22.880  0.00  0.00    +0.411 P 
ATOM     32  O   UNL     1       7.488   5.585  22.054  0.00  0.00    -0.240 OA
BRANCH  31  33
ATOM     33  N   UNL     1       8.596   3.514  22.261  0.00  0.00    -0.236 NA
ATOM     34  H   UNL     1       9.090   3.086  23.040  0.00  0.00    +0.130 HD
ATOM     35  H   UNL     1       8.317   2.761  21.641  0.00  0.00    +0.130 HD
ENDBRANCH  31  33
BRANCH  31  36
ATOM     36  O   UNL     1       6.212   3.661  21.777  0.00  0.00    -0.312 OA
ATOM     37  H   UNL     1       6.605   2.802  21.523  0.00  0.00    +0.221 HD
ENDBRANCH  31  36
ENDBRANCH  30  31
ENDBRANCH  26  30
ENDBRANCH  25  26
ENDBRANCH  24  25
ENDBRANCH   4  24
TORSDOF 11
ENDMDL
MODEL 6
REMARK VINA RESULT:      -6.5      3.569      7.193
REMARK  Name = 
REMARK  11 active torsions:
REMARK  status: ('A' for Active; 'I' for Inactive)
REMARK    1  A    between atoms: N_8  and  C_9
REMARK    2  A    between atoms: C_12  and  C_14
REMARK    3  A    between atoms: C_14  and  O_15
REMARK    4  A    between atoms: O_15  and  P_16
REMARK    5  A    between atoms: P_16  and  O_17
REMARK    6  A    between atoms: P_16  and  O_19
REMARK    7  A    between atoms: O_19  and  P_20
REMARK    8  A    between atoms: P_20  and  N_21
REMARK    9  A    between atoms: P_20  and  O_22
REMARK   10  A    between atoms: C_24  and  O_26
REMARK   11  A    between atoms: C_27  and  O_29
REMARK                            x       y       z     vdW  Elec       q    Type
REMARK                         _______ _______ _______ _____ _____    ______ ____
ROOT
ATOM      1  C   UNL     1       7.458  -3.284  23.479  0.00  0.00    +0.253 C 
ATOM      2  C   UNL     1       7.946  -4.733  23.291  0.00  0.00    +0.195 C 
ATOM      3  C   UNL     1       8.348  -5.201  24.702  0.00  0.00    +0.178 C 
ATOM      4  C   UNL     1       8.094  -3.968  25.569  0.00  0.00    +0.178 C 
ATOM      5  O   UNL     1       7.086  -3.214  24.873  0.00  0.00    -0.346 OA
ENDROOT
BRANCH   1  17
ATOM      6  N   UNL     1       5.707   1.721  22.873  0.00  0.00    -0.329 N 
ATOM      7  H   UNL     1       5.564   2.441  22.178  0.00  0.00    +0.145 HD
ATOM      8  H   UNL     1       4.896   1.116  22.987  0.00  0.00    +0.145 HD
ATOM      9  C   UNL     1       6.857   1.008  22.806  0.00  0.00    +0.195 A 
ATOM     10  N   UNL     1       7.978   1.681  22.365  0.00  0.00    -0.293 N 
ATOM     11  H   UNL     1       7.926   2.661  22.144  0.00  0.00    +0.172 HD
ATOM     12  C   UNL     1       9.240   1.116  22.250  0.00  0.00    +0.280 A 
ATOM     13  O   UNL     1      10.206   1.760  21.852  0.00  0.00    -0.265 OA
ATOM     14  C   UNL     1       9.249  -0.281  22.627  0.00  0.00    +0.172 A 
ATOM     15  N   UNL     1      10.268  -1.198  22.614  0.00  0.00    -0.229 NA
ATOM     16  C   UNL     1       9.695  -2.322  22.992  0.00  0.00    +0.203 A 
ATOM     17  N   UNL     1       8.347  -2.164  23.250  0.00  0.00    -0.285 N 
ATOM     18  C   UNL     1       8.062  -0.849  23.034  0.00  0.00    +0.171 A 
ATOM     19  N   UNL     1       6.857  -0.251  23.144  0.00  0.00    -0.196 NA
ENDBRANCH   1  17
BRANCH   2  20
ATOM     20  O   UNL     1       6.847  -5.549  22.815  0.00  0.00    -0.385 OA
ATOM     21  H   UNL     1       6.968  -5.705  21.861  0.00  0.00    +0.210 HD
ENDBRANCH   2  20
BRANCH   3  22
ATOM     22  O   UNL     1       9.712  -5.617  24.749  0.00  0.00    -0.386 OA
ATOM     23  H   UNL     1       9.739  -6.562  24.522  0.00  0.00    +0.210 HD
ENDBRANCH   3  22
BRANCH   4  24
ATOM     24  C   UNL     1       7.585  -4.216  26.977  0.00  0.00    +0.206 C 
BRANCH  24  25
ATOM     25  O   UNL     1       6.179  -4.355  27.023  0.00  0.00    -0.284 OA
BRANCH  25  26
ATOM     26  P   UNL     1       5.609  -5.839  27.264  0.00  0.00    +0.483 P 
ATOM     27  O   UNL     1       6.275  -6.587  28.362  0.00  0.00    -0.227 OA
BRANCH  26  28
ATOM     28  O   UNL     1       4.049  -5.608  27.529  0.00  0.00    -0.302 OA
ATOM     29  H   UNL     1       3.815  -4.663  27.443  0.00  0.00    +0.222 HD
ENDBRANCH  26  28
BRANCH  26  30
ATOM     30  O   UNL     1       5.696  -6.572  25.823  0.00  0.00    -0.196 OA
BRANCH  30  31
ATOM     31  P   UNL     1       4.075  -6.514  25.218  0.00  0.00    +0.411 P 
ATOM     32  O   UNL     1       2.625  -6.462  24.678  0.00  0.00    -0.240 OA
BRANCH  31  33
ATOM     33  N   UNL     1       4.474  -5.001  24.604  0.00  0.00    -0.236 NA
ATOM     34  H   UNL     1       3.857  -4.811  23.818  0.00  0.00    +0.130 HD
ATOM     35  H   UNL     1       4.301  -4.278  25.295  0.00  0.00    +0.130 HD
ENDBRANCH  31  33
BRANCH  31  36
ATOM     36  O   UNL     1       4.642  -7.332  23.915  0.00  0.00    -0.312 OA
ATOM     37  H   UNL     1       3.868  -7.453  23.330  0.00  0.00    +0.221 HD
ENDBRANCH  31  36
ENDBRANCH  30  31
ENDBRANCH  26  30
ENDBRANCH  25  26
ENDBRANCH  24  25
ENDBRANCH   4  24
TORSDOF 11
ENDMDL
MODEL 7
REMARK VINA RESULT:      -6.4      2.328      3.431
REMARK  Name = 
REMARK  11 active torsions:
REMARK  status: ('A' for Active; 'I' for Inactive)
REMARK    1  A    between atoms: N_8  and  C_9
REMARK    2  A    between atoms: C_12  and  C_14
REMARK    3  A    between atoms: C_14  and  O_15
REMARK    4  A    between atoms: O_15  and  P_16
REMARK    5  A    between atoms: P_16  and  O_17
REMARK    6  A    between atoms: P_16  and  O_19
REMARK    7  A    between atoms: O_19  and  P_20
REMARK    8  A    between atoms: P_20  and  N_21
REMARK    9  A    between atoms: P_20  and  O_22
REMARK   10  A    between atoms: C_24  and  O_26
REMARK   11  A    between atoms: C_27  and  O_29
REMARK                            x       y       z     vdW  Elec       q    Type
REMARK                         _______ _______ _______ _____ _____    ______ ____
ROOT
ATOM      1  C   UNL     1       6.487  -5.426  23.652  0.00  0.00    +0.253 C 
ATOM      2  C   UNL     1       6.713  -4.798  22.264  0.00  0.00    +0.195 C 
ATOM      3  C   UNL     1       7.748  -3.681  22.499  0.00  0.00    +0.178 C 
ATOM      4  C   UNL     1       7.993  -3.740  24.007  0.00  0.00    +0.178 C 
ATOM      5  O   UNL     1       7.680  -5.090  24.393  0.00  0.00    -0.346 OA
ENDROOT
BRANCH   1  17
ATOM      6  N   UNL     1       5.507  -7.562  28.444  0.00  0.00    -0.329 N 
ATOM      7  H   UNL     1       4.880  -8.190  28.929  0.00  0.00    +0.145 HD
ATOM      8  H   UNL     1       6.314  -8.038  28.047  0.00  0.00    +0.145 HD
ATOM      9  C   UNL     1       4.959  -6.687  27.566  0.00  0.00    +0.195 A 
ATOM     10  N   UNL     1       3.705  -6.202  27.875  0.00  0.00    -0.293 N 
ATOM     11  H   UNL     1       3.256  -6.471  28.733  0.00  0.00    +0.172 HD
ATOM     12  C   UNL     1       3.003  -5.289  27.101  0.00  0.00    +0.280 A 
ATOM     13  O   UNL     1       1.888  -4.888  27.422  0.00  0.00    -0.265 OA
ATOM     14  C   UNL     1       3.729  -4.913  25.906  0.00  0.00    +0.172 A 
ATOM     15  N   UNL     1       3.372  -4.084  24.875  0.00  0.00    -0.229 NA
ATOM     16  C   UNL     1       4.382  -4.164  24.033  0.00  0.00    +0.203 A 
ATOM     17  N   UNL     1       5.376  -5.011  24.483  0.00  0.00    -0.285 N 
ATOM     18  C   UNL     1       4.966  -5.479  25.697  0.00  0.00    +0.171 A 
ATOM     19  N   UNL     1       5.617  -6.356  26.490  0.00  0.00    -0.196 NA
ENDBRANCH   1  17
BRANCH   2  20
ATOM     20  O   UNL     1       7.282  -5.793  21.377  0.00  0.00    -0.385 OA
ATOM     21  H   UNL     1       7.776  -6.438  21.913  0.00  0.00    +0.210 HD
ENDBRANCH   2  20
BRANCH   3  22
ATOM     22  O   UNL     1       7.251  -2.410  22.087  0.00  0.00    -0.386 OA
ATOM     23  H   UNL     1       6.352  -2.544  21.740  0.00  0.00    +0.210 HD
ENDBRANCH   3  22
BRANCH   4  24
ATOM     24  C   UNL     1       9.405  -3.448  24.481  0.00  0.00    +0.206 C 
BRANCH  24  25
ATOM     25  O   UNL     1       9.945  -2.289  23.878  0.00  0.00    -0.284 OA
BRANCH  25  26
ATOM     26  P   UNL     1       9.514  -0.877  24.516  0.00  0.00    +0.483 P 
ATOM     27  O   UNL     1       9.016  -0.957  25.914  0.00  0.00    -0.227 OA
BRANCH  26  28
ATOM     28  O   UNL     1      10.831   0.020  24.377  0.00  0.00    -0.302 OA
ATOM     29  H   UNL     1      11.551  -0.480  23.945  0.00  0.00    +0.222 HD
ENDBRANCH  26  28
BRANCH  26  30
ATOM     30  O   UNL     1       8.450  -0.242  23.475  0.00  0.00    -0.196 OA
BRANCH  30  31
ATOM     31  P   UNL     1       9.386   0.872  22.537  0.00  0.00    +0.411 P 
ATOM     32  O   UNL     1      10.224   1.867  21.698  0.00  0.00    -0.240 OA
BRANCH  31  33
ATOM     33  N   UNL     1       9.669  -0.416  21.491  0.00  0.00    -0.236 NA
ATOM     34  H   UNL     1       8.924  -0.423  20.799  0.00  0.00    +0.130 HD
ATOM     35  H   UNL     1      10.538  -0.280  20.986  0.00  0.00    +0.130 HD
ENDBRANCH  31  33
BRANCH  31  36
ATOM     36  O   UNL     1       7.972   1.301  21.826  0.00  0.00    -0.312 OA
ATOM     37  H   UNL     1       8.072   2.249  21.606  0.00  0.00    +0.221 HD
ENDBRANCH  31  36
ENDBRANCH  30  31
ENDBRANCH  26  30
ENDBRANCH  25  26
ENDBRANCH  24  25
ENDBRANCH   4  24
TORSDOF 11
ENDMDL
MODEL 8
REMARK VINA RESULT:      -6.4      1.997      2.982
REMARK  Name = 
REMARK  11 active torsions:
REMARK  status: ('A' for Active; 'I' for Inactive)
REMARK    1  A    between atoms: N_8  and  C_9
REMARK    2  A    between atoms: C_12  and  C_14
REMARK    3  A    between atoms: C_14  and  O_15
REMARK    4  A    between atoms: O_15  and  P_16
REMARK    5  A    between atoms: P_16  and  O_17
REMARK    6  A    between atoms: P_16  and  O_19
REMARK    7  A    between atoms: O_19  and  P_20
REMARK    8  A    between atoms: P_20  and  N_21
REMARK    9  A    between atoms: P_20  and  O_22
REMARK   10  A    between atoms: C_24  and  O_26
REMARK   11  A    between atoms: C_27  and  O_29
REMARK                            x       y       z     vdW  Elec       q    Type
REMARK                         _______ _______ _______ _____ _____    ______ ____
ROOT
ATOM      1  C   UNL     1       8.157  -5.003  26.094  0.00  0.00    +0.253 C 
ATOM      2  C   UNL     1       9.189  -5.027  24.951  0.00  0.00    +0.195 C 
ATOM      3  C   UNL     1       9.261  -3.570  24.454  0.00  0.00    +0.178 C 
ATOM      4  C   UNL     1       8.236  -2.848  25.327  0.00  0.00    +0.178 C 
ATOM      5  O   UNL     1       8.145  -3.627  26.533  0.00  0.00    -0.346 OA
ENDROOT
BRANCH   1  17
ATOM      6  N   UNL     1       6.206  -5.889  21.207  0.00  0.00    -0.329 N 
ATOM      7  H   UNL     1       5.620  -5.480  20.491  0.00  0.00    +0.145 HD
ATOM      8  H   UNL     1       7.185  -5.630  21.111  0.00  0.00    +0.145 HD
ATOM      9  C   UNL     1       5.784  -5.791  22.491  0.00  0.00    +0.195 A 
ATOM     10  N   UNL     1       4.421  -5.832  22.700  0.00  0.00    -0.293 N 
ATOM     11  H   UNL     1       3.794  -5.966  21.926  0.00  0.00    +0.172 HD
ATOM     12  C   UNL     1       3.814  -5.761  23.946  0.00  0.00    +0.280 A 
ATOM     13  O   UNL     1       2.594  -5.803  24.078  0.00  0.00    -0.265 OA
ATOM     14  C   UNL     1       4.779  -5.615  25.016  0.00  0.00    +0.172 A 
ATOM     15  N   UNL     1       4.593  -5.468  26.366  0.00  0.00    -0.229 NA
ATOM     16  C   UNL     1       5.809  -5.312  26.844  0.00  0.00    +0.203 A 
ATOM     17  N   UNL     1       6.772  -5.353  25.854  0.00  0.00    -0.285 N 
ATOM     18  C   UNL     1       6.114  -5.567  24.680  0.00  0.00    +0.171 A 
ATOM     19  N   UNL     1       6.658  -5.655  23.449  0.00  0.00    -0.196 NA
ENDBRANCH   1  17
BRANCH   2  20
ATOM     20  O   UNL     1      10.481  -5.412  25.482  0.00  0.00    -0.385 OA
ATOM     21  H   UNL     1      11.172  -4.929  24.994  0.00  0.00    +0.210 HD
ENDBRANCH   2  20
BRANCH   3  22
ATOM     22  O   UNL     1       8.945  -3.473  23.066  0.00  0.00    -0.386 OA
ATOM     23  H   UNL     1       8.654  -2.561  22.894  0.00  0.00    +0.210 HD
ENDBRANCH   3  22
BRANCH   4  24
ATOM     24  C   UNL     1       8.566  -1.423  25.730  0.00  0.00    +0.206 C 
BRANCH  24  25
ATOM     25  O   UNL     1       8.042  -0.473  24.824  0.00  0.00    -0.284 OA
BRANCH  25  26
ATOM     26  P   UNL     1       9.077   0.172  23.776  0.00  0.00    +0.483 P 
ATOM     27  O   UNL     1      10.504   0.089  24.186  0.00  0.00    -0.227 OA
BRANCH  26  28
ATOM     28  O   UNL     1       8.776  -0.611  22.415  0.00  0.00    -0.302 OA
ATOM     29  H   UNL     1       9.058  -1.545  22.478  0.00  0.00    +0.222 HD
ENDBRANCH  26  28
BRANCH  26  30
ATOM     30  O   UNL     1       8.552   1.683  23.528  0.00  0.00    -0.196 OA
BRANCH  30  31
ATOM     31  P   UNL     1      10.001   2.621  23.404  0.00  0.00    +0.411 P 
ATOM     32  O   UNL     1      11.298   3.459  23.294  0.00  0.00    -0.240 OA
BRANCH  31  33
ATOM     33  N   UNL     1      10.094   2.070  21.818  0.00  0.00    -0.236 NA
ATOM     34  H   UNL     1      10.186   2.881  21.212  0.00  0.00    +0.130 HD
ATOM     35  H   UNL     1      10.927   1.507  21.684  0.00  0.00    +0.130 HD
ENDBRANCH  31  33
BRANCH  31  36
ATOM     36  O   UNL     1       9.028   3.888  23.039  0.00  0.00    -0.312 OA
ATOM     37  H   UNL     1       8.771   4.273  23.901  0.00  0.00    +0.221 HD
ENDBRANCH  31  36
ENDBRANCH  30  31
ENDBRANCH  26  30
ENDBRANCH  25  26
ENDBRANCH  24  25
ENDBRANCH   4  24
TORSDOF 11
ENDMDL
MODEL 9
REMARK VINA RESULT:      -6.2      3.648      7.387
REMARK  Name = 
REMARK  11 active torsions:
REMARK  status: ('A' for Active; 'I' for Inactive)
REMARK    1  A    between atoms: N_8  and  C_9
REMARK    2  A    between atoms: C_12  and  C_14
REMARK    3  A    between atoms: C_14  and  O_15
REMARK    4  A    between atoms: O_15  and  P_16
REMARK    5  A    between atoms: P_16  and  O_17
REMARK    6  A    between atoms: P_16  and  O_19
REMARK    7  A    between atoms: O_19  and  P_20
REMARK    8  A    between atoms: P_20  and  N_21
REMARK    9  A    between atoms: P_20  and  O_22
REMARK   10  A    between atoms: C_24  and  O_26
REMARK   11  A    between atoms: C_27  and  O_29
REMARK                            x       y       z     vdW  Elec       q    Type
REMARK                         _______ _______ _______ _____ _____    ______ ____
ROOT
ATOM      1  C   UNL     1       7.288  -3.045  22.740  0.00  0.00    +0.253 C 
ATOM      2  C   UNL     1       7.731  -4.517  22.849  0.00  0.00    +0.195 C 
ATOM      3  C   UNL     1       6.965  -5.070  24.066  0.00  0.00    +0.178 C 
ATOM      4  C   UNL     1       6.184  -3.858  24.573  0.00  0.00    +0.178 C 
ATOM      5  O   UNL     1       6.018  -3.004  23.426  0.00  0.00    -0.346 OA
ENDROOT
BRANCH   1  17
ATOM      6  N   UNL     1       5.789   2.076  22.655  0.00  0.00    -0.329 N 
ATOM      7  H   UNL     1       5.987   2.962  22.210  0.00  0.00    +0.145 HD
ATOM      8  H   UNL     1       5.083   1.534  22.160  0.00  0.00    +0.145 HD
ATOM      9  C   UNL     1       6.846   1.310  23.019  0.00  0.00    +0.195 A 
ATOM     10  N   UNL     1       7.981   1.976  23.431  0.00  0.00    -0.293 N 
ATOM     11  H   UNL     1       7.987   2.980  23.485  0.00  0.00    +0.172 HD
ATOM     12  C   UNL     1       9.148   1.354  23.853  0.00  0.00    +0.280 A 
ATOM     13  O   UNL     1      10.132   1.995  24.212  0.00  0.00    -0.265 OA
ATOM     14  C   UNL     1       9.050  -0.088  23.792  0.00  0.00    +0.172 A 
ATOM     15  N   UNL     1       9.981  -1.054  24.075  0.00  0.00    -0.229 NA
ATOM     16  C   UNL     1       9.373  -2.184  23.781  0.00  0.00    +0.203 A 
ATOM     17  N   UNL     1       8.086  -1.984  23.321  0.00  0.00    -0.285 N 
ATOM     18  C   UNL     1       7.870  -0.639  23.345  0.00  0.00    +0.171 A 
ATOM     19  N   UNL     1       6.752   0.011  22.957  0.00  0.00    -0.196 NA
ENDBRANCH   1  17
BRANCH   2  20
ATOM     20  O   UNL     1       7.311  -5.230  21.660  0.00  0.00    -0.385 OA
ATOM     21  H   UNL     1       6.734  -4.646  21.137  0.00  0.00    +0.210 HD
ENDBRANCH   2  20
BRANCH   3  22
ATOM     22  O   UNL     1       7.855  -5.584  25.056  0.00  0.00    -0.386 OA
ATOM     23  H   UNL     1       7.316  -6.034  25.730  0.00  0.00    +0.210 HD
ENDBRANCH   3  22
BRANCH   4  24
ATOM     24  C   UNL     1       4.804  -4.125  25.143  0.00  0.00    +0.206 C 
BRANCH  24  25
ATOM     25  O   UNL     1       4.357  -5.439  24.875  0.00  0.00    -0.284 OA
BRANCH  25  26
ATOM     26  P   UNL     1       4.212  -6.423  26.138  0.00  0.00    +0.483 P 
ATOM     27  O   UNL     1       3.328  -5.915  27.220  0.00  0.00    -0.227 OA
BRANCH  26  28
ATOM     28  O   UNL     1       3.685  -7.789  25.497  0.00  0.00    -0.302 OA
ATOM     29  H   UNL     1       3.542  -7.693  24.535  0.00  0.00    +0.222 HD
ENDBRANCH  26  28
BRANCH  26  30
ATOM     30  O   UNL     1       5.727  -6.731  26.619  0.00  0.00    -0.196 OA
BRANCH  30  31
ATOM     31  P   UNL     1       5.835  -5.992  28.181  0.00  0.00    +0.411 P 
ATOM     32  O   UNL     1       5.931  -5.331  29.577  0.00  0.00    -0.240 OA
BRANCH  31  33
ATOM     33  N   UNL     1       5.535  -7.524  28.807  0.00  0.00    -0.236 NA
ATOM     34  H   UNL     1       4.575  -7.770  28.577  0.00  0.00    +0.130 HD
ATOM     35  H   UNL     1       6.130  -8.214  28.361  0.00  0.00    +0.130 HD
ENDBRANCH  31  33
BRANCH  31  36
ATOM     36  O   UNL     1       7.454  -6.221  28.063  0.00  0.00    -0.312 OA
ATOM     37  H   UNL     1       7.745  -6.471  28.963  0.00  0.00    +0.221 HD
ENDBRANCH  31  36
ENDBRANCH  30  31
ENDBRANCH  26  30
ENDBRANCH  25  26
ENDBRANCH  24  25
ENDBRANCH   4  24
TORSDOF 11
ENDMDL
