MODEL 1
REMARK VINA RESULT:      -4.1      0.000      0.000
REMARK  Name = 
REMARK  13 active torsions:
REMARK  status: ('A' for Active; 'I' for Inactive)
REMARK    1  A    between atoms: C_1  and  O_2
REMARK    2  A    between atoms: O_2  and  C_3
REMARK    3  A    between atoms: C_3  and  C_4
REMARK    4  A    between atoms: C_4  and  O_5
REMARK    5  A    between atoms: O_5  and  C_6
REMARK    6  A    between atoms: C_6  and  C_7
REMARK    7  A    between atoms: C_7  and  O_8
REMARK    8  A    between atoms: O_8  and  C_9
REMARK    9  A    between atoms: C_9  and  C_10
REMARK   10  A    between atoms: C_10  and  O_11
REMARK   11  A    between atoms: O_11  and  C_12
REMARK   12  A    between atoms: C_12  and  C_13
REMARK   13  A    between atoms: C_13  and  O_14
REMARK                            x       y       z     vdW  Elec       q    Type
REMARK                         _______ _______ _______ _____ _____    ______ ____
ROOT
ATOM      1  O   UNL     1      10.630   1.406  24.629  0.00  0.00    -0.375 OA
ENDROOT
BRANCH   1   2
ATOM      2  C   UNL     1      10.524  -0.017  24.599  0.00  0.00    +0.188 C 
BRANCH   2   3
ATOM      3  C   UNL     1      10.326  -0.482  23.160  0.00  0.00    +0.188 C 
BRANCH   3   4
ATOM      4  O   UNL     1       9.607  -1.715  23.157  0.00  0.00    -0.375 OA
BRANCH   4   5
ATOM      5  C   UNL     1       9.048  -1.997  24.441  0.00  0.00    +0.188 C 
BRANCH   5   6
ATOM      6  C   UNL     1       9.092  -3.501  24.691  0.00  0.00    +0.187 C 
BRANCH   6   8
ATOM      7  C   UNL     1       7.663  -5.174  23.856  0.00  0.00    +0.194 C 
ATOM      8  O   UNL     1       8.636  -4.189  23.528  0.00  0.00    -0.381 OA
ENDBRANCH   6   8
ENDBRANCH   5   6
ENDBRANCH   4   5
ENDBRANCH   3   4
ENDBRANCH   2   3
ENDBRANCH   1   2
BRANCH   1   9
ATOM      9  C   UNL     1      10.124   1.994  23.431  0.00  0.00    +0.188 C 
BRANCH   9  10
ATOM     10  C   UNL     1      10.334   3.504  23.488  0.00  0.00    +0.188 C 
BRANCH  10  11
ATOM     11  O   UNL     1      11.733   3.800  23.477  0.00  0.00    -0.375 OA
BRANCH  11  12
ATOM     12  C   UNL     1      11.957   5.216  23.424  0.00  0.00    +0.187 C 
BRANCH  12  13
ATOM     13  C   UNL     1      13.133   5.484  22.492  0.00  0.00    +0.184 C 
BRANCH  13  14
ATOM     14  O   UNL     1      14.351   5.083  23.115  0.00  0.00    -0.393 OA
ATOM     15  H   UNL     1      14.692   4.350  22.565  0.00  0.00    +0.209 HD
ENDBRANCH  13  14
ENDBRANCH  12  13
ENDBRANCH  11  12
ENDBRANCH  10  11
ENDBRANCH   9  10
ENDBRANCH   1   9
TORSDOF 12
ENDMDL
MODEL 2
REMARK VINA RESULT:      -4.0      2.665      7.528
REMARK  Name = 
REMARK  13 active torsions:
REMARK  status: ('A' for Active; 'I' for Inactive)
REMARK    1  A    between atoms: C_1  and  O_2
REMARK    2  A    between atoms: O_2  and  C_3
REMARK    3  A    between atoms: C_3  and  C_4
REMARK    4  A    between atoms: C_4  and  O_5
REMARK    5  A    between atoms: O_5  and  C_6
REMARK    6  A    between atoms: C_6  and  C_7
REMARK    7  A    between atoms: C_7  and  O_8
REMARK    8  A    between atoms: O_8  and  C_9
REMARK    9  A    between atoms: C_9  and  C_10
REMARK   10  A    between atoms: C_10  and  O_11
REMARK   11  A    between atoms: O_11  and  C_12
REMARK   12  A    between atoms: C_12  and  C_13
REMARK   13  A    between atoms: C_13  and  O_14
REMARK                            x       y       z     vdW  Elec       q    Type
REMARK                         _______ _______ _______ _____ _____    ______ ____
ROOT
ATOM      1  O   UNL     1       7.956  -2.519  23.216  0.00  0.00    -0.375 OA
ENDROOT
BRANCH   1   2
ATOM      2  C   UNL     1       8.876  -1.899  22.317  0.00  0.00    +0.188 C 
BRANCH   2   3
ATOM      3  C   UNL     1      10.038  -1.308  23.107  0.00  0.00    +0.188 C 
BRANCH   3   4
ATOM      4  O   UNL     1       9.712  -1.303  24.496  0.00  0.00    -0.375 OA
BRANCH   4   5
ATOM      5  C   UNL     1      10.067  -0.064  25.111  0.00  0.00    +0.188 C 
BRANCH   5   6
ATOM      6  C   UNL     1      10.759   0.828  24.085  0.00  0.00    +0.187 C 
BRANCH   6   8
ATOM      7  C   UNL     1       8.852   2.174  23.791  0.00  0.00    +0.194 C 
ATOM      8  O   UNL     1      10.224   2.147  24.164  0.00  0.00    -0.381 OA
ENDBRANCH   6   8
ENDBRANCH   5   6
ENDBRANCH   4   5
ENDBRANCH   3   4
ENDBRANCH   2   3
ENDBRANCH   1   2
BRANCH   1   9
ATOM      9  C   UNL     1       7.661  -3.859  22.821  0.00  0.00    +0.188 C 
BRANCH   9  10
ATOM     10  C   UNL     1       8.001  -4.805  23.968  0.00  0.00    +0.188 C 
BRANCH  10  11
ATOM     11  O   UNL     1       9.366  -4.628  24.355  0.00  0.00    -0.375 OA
BRANCH  11  12
ATOM     12  C   UNL     1       9.606  -5.181  25.658  0.00  0.00    +0.187 C 
BRANCH  12  13
ATOM     13  C   UNL     1       8.517  -4.684  26.602  0.00  0.00    +0.184 C 
BRANCH  13  14
ATOM     14  O   UNL     1       8.012  -5.769  27.377  0.00  0.00    -0.393 OA
ATOM     15  H   UNL     1       8.793  -6.148  27.827  0.00  0.00    +0.209 HD
ENDBRANCH  13  14
ENDBRANCH  12  13
ENDBRANCH  11  12
ENDBRANCH  10  11
ENDBRANCH   9  10
ENDBRANCH   1   9
TORSDOF 12
ENDMDL
MODEL 3
REMARK VINA RESULT:      -4.0      2.677      7.133
REMARK  Name = 
REMARK  13 active torsions:
REMARK  status: ('A' for Active; 'I' for Inactive)
REMARK    1  A    between atoms: C_1  and  O_2
REMARK    2  A    between atoms: O_2  and  C_3
REMARK    3  A    between atoms: C_3  and  C_4
REMARK    4  A    between atoms: C_4  and  O_5
REMARK    5  A    between atoms: O_5  and  C_6
REMARK    6  A    between atoms: C_6  and  C_7
REMARK    7  A    between atoms: C_7  and  O_8
REMARK    8  A    between atoms: O_8  and  C_9
REMARK    9  A    between atoms: C_9  and  C_10
REMARK   10  A    between atoms: C_10  and  O_11
REMARK   11  A    between atoms: O_11  and  C_12
REMARK   12  A    between atoms: C_12  and  C_13
REMARK   13  A    between atoms: C_13  and  O_14
REMARK                            x       y       z     vdW  Elec       q    Type
REMARK                         _______ _______ _______ _____ _____    ______ ____
ROOT
ATOM      1  O   UNL     1       9.872  -1.442  24.406  0.00  0.00    -0.375 OA
ENDROOT
BRANCH   1   2
ATOM      2  C   UNL     1       9.789  -0.123  24.945  0.00  0.00    +0.188 C 
BRANCH   2   3
ATOM      3  C   UNL     1      10.871   0.752  24.321  0.00  0.00    +0.188 C 
BRANCH   3   4
ATOM      4  O   UNL     1      10.258   1.837  23.626  0.00  0.00    -0.375 OA
BRANCH   4   5
ATOM      5  C   UNL     1       9.983   1.498  22.266  0.00  0.00    +0.188 C 
BRANCH   5   6
ATOM      6  C   UNL     1       8.577   1.964  21.904  0.00  0.00    +0.187 C 
BRANCH   6   8
ATOM      7  C   UNL     1       6.706   1.340  23.188  0.00  0.00    +0.194 C 
ATOM      8  O   UNL     1       7.642   0.927  22.200  0.00  0.00    -0.381 OA
ENDBRANCH   6   8
ENDBRANCH   5   6
ENDBRANCH   4   5
ENDBRANCH   3   4
ENDBRANCH   2   3
ENDBRANCH   1   2
BRANCH   1   9
ATOM      9  C   UNL     1       8.586  -1.939  24.037  0.00  0.00    +0.188 C 
BRANCH   9  10
ATOM     10  C   UNL     1       8.663  -3.453  23.872  0.00  0.00    +0.188 C 
BRANCH  10  11
ATOM     11  O   UNL     1       9.842  -3.951  24.509  0.00  0.00    -0.375 OA
BRANCH  11  12
ATOM     12  C   UNL     1       9.539  -5.085  25.335  0.00  0.00    +0.187 C 
BRANCH  12  13
ATOM     13  C   UNL     1       8.808  -4.594  26.580  0.00  0.00    +0.184 C 
BRANCH  13  14
ATOM     14  O   UNL     1       8.199  -5.694  27.252  0.00  0.00    -0.393 OA
ATOM     15  H   UNL     1       7.563  -5.293  27.877  0.00  0.00    +0.209 HD
ENDBRANCH  13  14
ENDBRANCH  12  13
ENDBRANCH  11  12
ENDBRANCH  10  11
ENDBRANCH   9  10
ENDBRANCH   1   9
TORSDOF 12
ENDMDL
MODEL 4
REMARK VINA RESULT:      -4.0      1.715      7.808
REMARK  Name = 
REMARK  13 active torsions:
REMARK  status: ('A' for Active; 'I' for Inactive)
REMARK    1  A    between atoms: C_1  and  O_2
REMARK    2  A    between atoms: O_2  and  C_3
REMARK    3  A    between atoms: C_3  and  C_4
REMARK    4  A    between atoms: C_4  and  O_5
REMARK    5  A    between atoms: O_5  and  C_6
REMARK    6  A    between atoms: C_6  and  C_7
REMARK    7  A    between atoms: C_7  and  O_8
REMARK    8  A    between atoms: O_8  and  C_9
REMARK    9  A    between atoms: C_9  and  C_10
REMARK   10  A    between atoms: C_10  and  O_11
REMARK   11  A    between atoms: O_11  and  C_12
REMARK   12  A    between atoms: C_12  and  C_13
REMARK   13  A    between atoms: C_13  and  O_14
REMARK                            x       y       z     vdW  Elec       q    Type
REMARK                         _______ _______ _______ _____ _____    ______ ____
ROOT
ATOM      1  O   UNL     1       9.755  -1.999  22.711  0.00  0.00    -0.375 OA
ENDROOT
BRANCH   1   2
ATOM      2  C   UNL     1       9.539  -1.029  21.687  0.00  0.00    +0.188 C 
BRANCH   2   3
ATOM      3  C   UNL     1       9.845   0.362  22.231  0.00  0.00    +0.188 C 
BRANCH   3   4
ATOM      4  O   UNL     1      10.455   0.243  23.516  0.00  0.00    -0.375 OA
BRANCH   4   5
ATOM      5  C   UNL     1      10.736   1.525  24.081  0.00  0.00    +0.188 C 
BRANCH   5   6
ATOM      6  C   UNL     1      10.406   2.609  23.060  0.00  0.00    +0.187 C 
BRANCH   6   8
ATOM      7  C   UNL     1      11.926   4.395  23.259  0.00  0.00    +0.194 C 
ATOM      8  O   UNL     1      10.649   3.892  23.634  0.00  0.00    -0.381 OA
ENDBRANCH   6   8
ENDBRANCH   5   6
ENDBRANCH   4   5
ENDBRANCH   3   4
ENDBRANCH   2   3
ENDBRANCH   1   2
BRANCH   1   9
ATOM      9  C   UNL     1       8.525  -2.570  23.159  0.00  0.00    +0.188 C 
BRANCH   9  10
ATOM     10  C   UNL     1       8.735  -3.191  24.536  0.00  0.00    +0.188 C 
BRANCH  10  11
ATOM     11  O   UNL     1       9.729  -4.215  24.461  0.00  0.00    -0.375 OA
BRANCH  11  12
ATOM     12  C   UNL     1       9.662  -5.080  25.604  0.00  0.00    +0.187 C 
BRANCH  12  13
ATOM     13  C   UNL     1       8.196  -5.317  25.946  0.00  0.00    +0.184 C 
BRANCH  13  14
ATOM     14  O   UNL     1       8.071  -5.719  27.308  0.00  0.00    -0.393 OA
ATOM     15  H   UNL     1       8.883  -6.228  27.500  0.00  0.00    +0.209 HD
ENDBRANCH  13  14
ENDBRANCH  12  13
ENDBRANCH  11  12
ENDBRANCH  10  11
ENDBRANCH   9  10
ENDBRANCH   1   9
TORSDOF 12
ENDMDL
MODEL 5
REMARK VINA RESULT:      -4.0      3.179      3.373
REMARK  Name = 
REMARK  13 active torsions:
REMARK  status: ('A' for Active; 'I' for Inactive)
REMARK    1  A    between atoms: C_1  and  O_2
REMARK    2  A    between atoms: O_2  and  C_3
REMARK    3  A    between atoms: C_3  and  C_4
REMARK    4  A    between atoms: C_4  and  O_5
REMARK    5  A    between atoms: O_5  and  C_6
REMARK    6  A    between atoms: C_6  and  C_7
REMARK    7  A    between atoms: C_7  and  O_8
REMARK    8  A    between atoms: O_8  and  C_9
REMARK    9  A    between atoms: C_9  and  C_10
REMARK   10  A    between atoms: C_10  and  O_11
REMARK   11  A    between atoms: O_11  and  C_12
REMARK   12  A    between atoms: C_12  and  C_13
REMARK   13  A    between atoms: C_13  and  O_14
REMARK                            x       y       z     vdW  Elec       q    Type
REMARK                         _______ _______ _______ _____ _____    ______ ____
ROOT
ATOM      1  O   UNL     1      10.615  -0.168  23.122  0.00  0.00    -0.375 OA
ENDROOT
BRANCH   1   2
ATOM      2  C   UNL     1      10.203  -1.520  22.921  0.00  0.00    +0.188 C 
BRANCH   2   3
ATOM      3  C   UNL     1       9.062  -1.559  21.911  0.00  0.00    +0.188 C 
BRANCH   3   4
ATOM      4  O   UNL     1       8.176  -2.629  22.240  0.00  0.00    -0.375 OA
BRANCH   4   5
ATOM      5  C   UNL     1       8.451  -3.151  23.542  0.00  0.00    +0.188 C 
BRANCH   5   6
ATOM      6  C   UNL     1       7.896  -4.569  23.643  0.00  0.00    +0.187 C 
BRANCH   6   8
ATOM      7  C   UNL     1       6.126  -5.623  22.507  0.00  0.00    +0.194 C 
ATOM      8  O   UNL     1       7.381  -4.969  22.374  0.00  0.00    -0.381 OA
ENDBRANCH   6   8
ENDBRANCH   5   6
ENDBRANCH   4   5
ENDBRANCH   3   4
ENDBRANCH   2   3
ENDBRANCH   1   2
BRANCH   1   9
ATOM      9  C   UNL     1      10.557   0.198  24.501  0.00  0.00    +0.188 C 
BRANCH   9  10
ATOM     10  C   UNL     1       9.215   0.865  24.785  0.00  0.00    +0.188 C 
BRANCH  10  11
ATOM     11  O   UNL     1       9.017   1.959  23.884  0.00  0.00    -0.375 OA
BRANCH  11  12
ATOM     12  C   UNL     1       7.809   1.789  23.129  0.00  0.00    +0.187 C 
BRANCH  12  13
ATOM     13  C   UNL     1       8.121   2.040  21.658  0.00  0.00    +0.184 C 
BRANCH  13  14
ATOM     14  O   UNL     1       9.532   2.059  21.455  0.00  0.00    -0.393 OA
ATOM     15  H   UNL     1       9.873   2.724  22.084  0.00  0.00    +0.209 HD
ENDBRANCH  13  14
ENDBRANCH  12  13
ENDBRANCH  11  12
ENDBRANCH  10  11
ENDBRANCH   9  10
ENDBRANCH   1   9
TORSDOF 12
ENDMDL
MODEL 6
REMARK VINA RESULT:      -3.9      2.703      4.468
REMARK  Name = 
REMARK  13 active torsions:
REMARK  status: ('A' for Active; 'I' for Inactive)
REMARK    1  A    between atoms: C_1  and  O_2
REMARK    2  A    between atoms: O_2  and  C_3
REMARK    3  A    between atoms: C_3  and  C_4
REMARK    4  A    between atoms: C_4  and  O_5
REMARK    5  A    between atoms: O_5  and  C_6
REMARK    6  A    between atoms: C_6  and  C_7
REMARK    7  A    between atoms: C_7  and  O_8
REMARK    8  A    between atoms: O_8  and  C_9
REMARK    9  A    between atoms: C_9  and  C_10
REMARK   10  A    between atoms: C_10  and  O_11
REMARK   11  A    between atoms: O_11  and  C_12
REMARK   12  A    between atoms: C_12  and  C_13
REMARK   13  A    between atoms: C_13  and  O_14
REMARK                            x       y       z     vdW  Elec       q    Type
REMARK                         _______ _______ _______ _____ _____    ______ ____
ROOT
ATOM      1  O   UNL     1      10.198  -3.126  23.978  0.00  0.00    -0.375 OA
ENDROOT
BRANCH   1   2
ATOM      2  C   UNL     1       9.468  -4.031  24.806  0.00  0.00    +0.188 C 
BRANCH   2   3
ATOM      3  C   UNL     1       8.007  -4.056  24.369  0.00  0.00    +0.188 C 
BRANCH   3   4
ATOM      4  O   UNL     1       7.657  -5.379  23.964  0.00  0.00    -0.375 OA
BRANCH   4   5
ATOM      5  C   UNL     1       6.449  -5.389  23.202  0.00  0.00    +0.188 C 
BRANCH   5   6
ATOM      6  C   UNL     1       6.768  -5.063  21.747  0.00  0.00    +0.187 C 
BRANCH   6   8
ATOM      7  C   UNL     1       5.583  -3.054  22.058  0.00  0.00    +0.194 C 
ATOM      8  O   UNL     1       5.767  -4.191  21.224  0.00  0.00    -0.381 OA
ENDBRANCH   6   8
ENDBRANCH   5   6
ENDBRANCH   4   5
ENDBRANCH   3   4
ENDBRANCH   2   3
ENDBRANCH   1   2
BRANCH   1   9
ATOM      9  C   UNL     1       9.326  -2.354  23.151  0.00  0.00    +0.188 C 
BRANCH   9  10
ATOM     10  C   UNL     1      10.137  -1.275  22.441  0.00  0.00    +0.188 C 
BRANCH  10  11
ATOM     11  O   UNL     1      10.555  -0.283  23.383  0.00  0.00    -0.375 OA
BRANCH  11  12
ATOM     12  C   UNL     1       9.619   0.803  23.434  0.00  0.00    +0.187 C 
BRANCH  12  13
ATOM     13  C   UNL     1      10.213   1.989  22.682  0.00  0.00    +0.184 C 
BRANCH  13  14
ATOM     14  O   UNL     1       9.637   2.078  21.381  0.00  0.00    -0.393 OA
ATOM     15  H   UNL     1       9.130   1.251  21.267  0.00  0.00    +0.209 HD
ENDBRANCH  13  14
ENDBRANCH  12  13
ENDBRANCH  11  12
ENDBRANCH  10  11
ENDBRANCH   9  10
ENDBRANCH   1   9
TORSDOF 12
ENDMDL
MODEL 7
REMARK VINA RESULT:      -3.9      1.759      2.306
REMARK  Name = 
REMARK  13 active torsions:
REMARK  status: ('A' for Active; 'I' for Inactive)
REMARK    1  A    between atoms: C_1  and  O_2
REMARK    2  A    between atoms: O_2  and  C_3
REMARK    3  A    between atoms: C_3  and  C_4
REMARK    4  A    between atoms: C_4  and  O_5
REMARK    5  A    between atoms: O_5  and  C_6
REMARK    6  A    between atoms: C_6  and  C_7
REMARK    7  A    between atoms: C_7  and  O_8
REMARK    8  A    between atoms: O_8  and  C_9
REMARK    9  A    between atoms: C_9  and  C_10
REMARK   10  A    between atoms: C_10  and  O_11
REMARK   11  A    between atoms: O_11  and  C_12
REMARK   12  A    between atoms: C_12  and  C_13
REMARK   13  A    between atoms: C_13  and  O_14
REMARK                            x       y       z     vdW  Elec       q    Type
REMARK                         _______ _______ _______ _____ _____    ______ ____
ROOT
ATOM      1  O   UNL     1       8.775   1.938  22.531  0.00  0.00    -0.375 OA
ENDROOT
BRANCH   1   2
ATOM      2  C   UNL     1       8.118   2.237  23.761  0.00  0.00    +0.188 C 
BRANCH   2   3
ATOM      3  C   UNL     1       7.454   0.976  24.304  0.00  0.00    +0.188 C 
BRANCH   3   4
ATOM      4  O   UNL     1       8.365   0.298  25.169  0.00  0.00    -0.375 OA
BRANCH   4   5
ATOM      5  C   UNL     1       8.587  -1.047  24.742  0.00  0.00    +0.188 C 
BRANCH   5   6
ATOM      6  C   UNL     1       9.976  -1.156  24.121  0.00  0.00    +0.187 C 
BRANCH   6   8
ATOM      7  C   UNL     1       9.046  -1.577  22.000  0.00  0.00    +0.194 C 
ATOM      8  O   UNL     1       9.930  -2.049  23.010  0.00  0.00    -0.381 OA
ENDBRANCH   6   8
ENDBRANCH   5   6
ENDBRANCH   4   5
ENDBRANCH   3   4
ENDBRANCH   2   3
ENDBRANCH   1   2
BRANCH   1   9
ATOM      9  C   UNL     1      10.179   2.187  22.613  0.00  0.00    +0.188 C 
BRANCH   9  10
ATOM     10  C   UNL     1      10.420   3.399  23.507  0.00  0.00    +0.188 C 
BRANCH  10  11
ATOM     11  O   UNL     1      11.784   3.813  23.405  0.00  0.00    -0.375 OA
BRANCH  11  12
ATOM     12  C   UNL     1      11.881   5.241  23.295  0.00  0.00    +0.187 C 
BRANCH  12  13
ATOM     13  C   UNL     1      13.155   5.581  22.530  0.00  0.00    +0.184 C 
BRANCH  13  14
ATOM     14  O   UNL     1      14.280   4.978  23.166  0.00  0.00    -0.393 OA
ATOM     15  H   UNL     1      14.145   4.015  23.066  0.00  0.00    +0.209 HD
ENDBRANCH  13  14
ENDBRANCH  12  13
ENDBRANCH  11  12
ENDBRANCH  10  11
ENDBRANCH   9  10
ENDBRANCH   1   9
TORSDOF 12
ENDMDL
MODEL 8
REMARK VINA RESULT:      -3.9      3.256      7.783
REMARK  Name = 
REMARK  13 active torsions:
REMARK  status: ('A' for Active; 'I' for Inactive)
REMARK    1  A    between atoms: C_1  and  O_2
REMARK    2  A    between atoms: O_2  and  C_3
REMARK    3  A    between atoms: C_3  and  C_4
REMARK    4  A    between atoms: C_4  and  O_5
REMARK    5  A    between atoms: O_5  and  C_6
REMARK    6  A    between atoms: C_6  and  C_7
REMARK    7  A    between atoms: C_7  and  O_8
REMARK    8  A    between atoms: O_8  and  C_9
REMARK    9  A    between atoms: C_9  and  C_10
REMARK   10  A    between atoms: C_10  and  O_11
REMARK   11  A    between atoms: O_11  and  C_12
REMARK   12  A    between atoms: C_12  and  C_13
REMARK   13  A    between atoms: C_13  and  O_14
REMARK                            x       y       z     vdW  Elec       q    Type
REMARK                         _______ _______ _______ _____ _____    ______ ____
ROOT
ATOM      1  O   UNL     1       7.302  -4.830  23.148  0.00  0.00    -0.375 OA
ENDROOT
BRANCH   1   2
ATOM      2  C   UNL     1       6.928  -3.578  22.575  0.00  0.00    +0.188 C 
BRANCH   2   3
ATOM      3  C   UNL     1       8.128  -2.637  22.579  0.00  0.00    +0.188 C 
BRANCH   3   4
ATOM      4  O   UNL     1       8.487  -2.336  23.927  0.00  0.00    -0.375 OA
BRANCH   4   5
ATOM      5  C   UNL     1       9.841  -1.888  24.018  0.00  0.00    +0.188 C 
BRANCH   5   6
ATOM      6  C   UNL     1      10.126  -0.909  22.883  0.00  0.00    +0.187 C 
BRANCH   6   8
ATOM      7  C   UNL     1      10.630   0.294  24.842  0.00  0.00    +0.194 C 
ATOM      8  O   UNL     1      10.668   0.296  23.420  0.00  0.00    -0.381 OA
ENDBRANCH   6   8
ENDBRANCH   5   6
ENDBRANCH   4   5
ENDBRANCH   3   4
ENDBRANCH   2   3
ENDBRANCH   1   2
BRANCH   1   9
ATOM      9  C   UNL     1       6.212  -5.434  23.844  0.00  0.00    +0.188 C 
BRANCH   9  10
ATOM     10  C   UNL     1       6.282  -5.047  25.317  0.00  0.00    +0.188 C 
BRANCH  10  11
ATOM     11  O   UNL     1       7.390  -5.704  25.939  0.00  0.00    -0.375 OA
BRANCH  11  12
ATOM     12  C   UNL     1       8.316  -4.750  26.479  0.00  0.00    +0.187 C 
BRANCH  12  13
ATOM     13  C   UNL     1       9.703  -5.060  25.929  0.00  0.00    +0.184 C 
BRANCH  13  14
ATOM     14  O   UNL     1       9.592  -5.771  24.698  0.00  0.00    -0.393 OA
ATOM     15  H   UNL     1       9.715  -6.711  24.933  0.00  0.00    +0.209 HD
ENDBRANCH  13  14
ENDBRANCH  12  13
ENDBRANCH  11  12
ENDBRANCH  10  11
ENDBRANCH   9  10
ENDBRANCH   1   9
TORSDOF 12
ENDMDL
MODEL 9
REMARK VINA RESULT:      -3.8      2.669      3.730
REMARK  Name = 
REMARK  13 active torsions:
REMARK  status: ('A' for Active; 'I' for Inactive)
REMARK    1  A    between atoms: C_1  and  O_2
REMARK    2  A    between atoms: O_2  and  C_3
REMARK    3  A    between atoms: C_3  and  C_4
REMARK    4  A    between atoms: C_4  and  O_5
REMARK    5  A    between atoms: O_5  and  C_6
REMARK    6  A    between atoms: C_6  and  C_7
REMARK    7  A    between atoms: C_7  and  O_8
REMARK    8  A    between atoms: O_8  and  C_9
REMARK    9  A    between atoms: C_9  and  C_10
REMARK   10  A    between atoms: C_10  and  O_11
REMARK   11  A    between atoms: O_11  and  C_12
REMARK   12  A    between atoms: C_12  and  C_13
REMARK   13  A    between atoms: C_13  and  O_14
REMARK                            x       y       z     vdW  Elec       q    Type
REMARK                         _______ _______ _______ _____ _____    ______ ____
ROOT
ATOM      1  O   UNL     1      10.199  -1.379  23.433  0.00  0.00    -0.375 OA
ENDROOT
BRANCH   1   2
ATOM      2  C   UNL     1       9.249  -2.058  24.254  0.00  0.00    +0.188 C 
BRANCH   2   3
ATOM      3  C   UNL     1       8.556  -3.144  23.438  0.00  0.00    +0.188 C 
BRANCH   3   4
ATOM      4  O   UNL     1       8.848  -4.420  24.006  0.00  0.00    -0.375 OA
BRANCH   4   5
ATOM      5  C   UNL     1       7.660  -5.078  24.450  0.00  0.00    +0.188 C 
BRANCH   5   6
ATOM      6  C   UNL     1       6.539  -4.824  23.448  0.00  0.00    +0.187 C 
BRANCH   6   8
ATOM      7  C   UNL     1       6.477  -5.723  21.274  0.00  0.00    +0.194 C 
ATOM      8  O   UNL     1       6.329  -5.996  22.662  0.00  0.00    -0.381 OA
ENDBRANCH   6   8
ENDBRANCH   5   6
ENDBRANCH   4   5
ENDBRANCH   3   4
ENDBRANCH   2   3
ENDBRANCH   1   2
BRANCH   1   9
ATOM      9  C   UNL     1       9.781  -1.343  22.069  0.00  0.00    +0.188 C 
BRANCH   9  10
ATOM     10  C   UNL     1       9.501   0.102  21.669  0.00  0.00    +0.188 C 
BRANCH  10  11
ATOM     11  O   UNL     1      10.303   0.987  22.455  0.00  0.00    -0.375 OA
BRANCH  11  12
ATOM     12  C   UNL     1       9.536   2.113  22.905  0.00  0.00    +0.187 C 
BRANCH  12  13
ATOM     13  C   UNL     1       9.272   1.952  24.398  0.00  0.00    +0.184 C 
BRANCH  13  14
ATOM     14  O   UNL     1      10.307   1.173  24.994  0.00  0.00    -0.393 OA
ATOM     15  H   UNL     1       9.941   0.269  25.061  0.00  0.00    +0.209 HD
ENDBRANCH  13  14
ENDBRANCH  12  13
ENDBRANCH  11  12
ENDBRANCH  10  11
ENDBRANCH   9  10
ENDBRANCH   1   9
TORSDOF 12
ENDMDL
