MODEL 1
REMARK VINA RESULT:      -5.4      0.000      0.000
REMARK  Name = 
REMARK  8 active torsions:
REMARK  status: ('A' for Active; 'I' for Inactive)
REMARK    1  A    between atoms: C_2  and  C_3
REMARK    2  A    between atoms: C_2  and  N_4
REMARK    3  A    between atoms: C_2  and  C_5
REMARK    4  A    between atoms: C_5  and  C_7
REMARK    5  A    between atoms: C_10  and  C_12
REMARK    6  A    between atoms: C_12  and  C_13
REMARK    7  A    between atoms: C_12  and  C_14
REMARK    8  A    between atoms: C_12  and  C_15
REMARK                            x       y       z     vdW  Elec       q    Type
REMARK                         _______ _______ _______ _____ _____    ______ ____
ROOT
ATOM      1  C   UNL     1       9.215  -2.501  23.846  0.00  0.00    +0.286 A 
ATOM      2  O   UNL     1       7.995  -2.748  23.269  0.00  0.00    -0.417 OA
ATOM      3  C   UNL     1       7.871  -4.104  23.443  0.00  0.00    +0.223 A 
ATOM      4  N   UNL     1       8.910  -4.630  24.060  0.00  0.00    -0.111 NA
ATOM      5  N   UNL     1       9.779  -3.593  24.325  0.00  0.00    -0.104 NA
ENDROOT
BRANCH   3   6
ATOM      6  C   UNL     1       6.611  -4.763  22.957  0.00  0.00    +0.040 C 
ATOM      7  C   UNL     1       5.882  -5.443  24.127  0.00  0.00    +0.020 C 
ATOM      8  C   UNL     1       6.953  -5.811  21.884  0.00  0.00    +0.020 C 
ATOM      9  C   UNL     1       5.673  -3.711  22.335  0.00  0.00    +0.020 C 
ENDBRANCH   3   6
BRANCH   1  10
ATOM     10  C   UNL     1       9.741  -1.156  23.917  0.00  0.00    +0.235 C 
ATOM     11  O   UNL     1       9.842  -0.515  24.969  0.00  0.00    -0.285 OA
BRANCH  10  12
ATOM     12  C   UNL     1      10.251  -0.572  22.581  0.00  0.00    +0.125 C 
ATOM     13  C   UNL     1       9.409   0.642  22.202  0.00  0.00    +0.032 C 
BRANCH  12  14
ATOM     14  N   UNL     1      10.174  -1.593  21.514  0.00  0.00    -0.321 NA
ATOM     15  H   UNL     1      11.107  -1.986  21.367  0.00  0.00    +0.119 HD
ATOM     16  H   UNL     1       9.581  -2.364  21.817  0.00  0.00    +0.119 HD
ENDBRANCH  12  14
ENDBRANCH  10  12
ENDBRANCH   1  10
TORSDOF 4
ENDMDL
MODEL 2
REMARK VINA RESULT:      -5.1      1.923      4.781
REMARK  Name = 
REMARK  8 active torsions:
REMARK  status: ('A' for Active; 'I' for Inactive)
REMARK    1  A    between atoms: C_2  and  C_3
REMARK    2  A    between atoms: C_2  and  N_4
REMARK    3  A    between atoms: C_2  and  C_5
REMARK    4  A    between atoms: C_5  and  C_7
REMARK    5  A    between atoms: C_10  and  C_12
REMARK    6  A    between atoms: C_12  and  C_13
REMARK    7  A    between atoms: C_12  and  C_14
REMARK    8  A    between atoms: C_12  and  C_15
REMARK                            x       y       z     vdW  Elec       q    Type
REMARK                         _______ _______ _______ _____ _____    ______ ____
ROOT
ATOM      1  C   UNL     1       8.874  -3.253  23.847  0.00  0.00    +0.286 A 
ATOM      2  O   UNL     1       8.091  -2.158  23.582  0.00  0.00    -0.417 OA
ATOM      3  C   UNL     1       9.033  -1.185  23.360  0.00  0.00    +0.223 A 
ATOM      4  N   UNL     1      10.264  -1.640  23.480  0.00  0.00    -0.111 NA
ATOM      5  N   UNL     1      10.163  -2.979  23.792  0.00  0.00    -0.104 NA
ENDROOT
BRANCH   3   6
ATOM      6  C   UNL     1       8.551   0.190  22.996  0.00  0.00    +0.040 C 
ATOM      7  C   UNL     1       7.014   0.223  22.969  0.00  0.00    +0.020 C 
ATOM      8  C   UNL     1       9.098   0.584  21.613  0.00  0.00    +0.020 C 
ATOM      9  C   UNL     1       9.049   1.215  24.032  0.00  0.00    +0.020 C 
ENDBRANCH   3   6
BRANCH   1  10
ATOM     10  C   UNL     1       8.277  -4.543  24.112  0.00  0.00    +0.235 C 
ATOM     11  O   UNL     1       7.485  -5.102  23.344  0.00  0.00    -0.285 OA
BRANCH  10  12
ATOM     12  C   UNL     1       8.750  -5.240  25.407  0.00  0.00    +0.125 C 
ATOM     13  C   UNL     1       8.505  -4.319  26.598  0.00  0.00    +0.032 C 
BRANCH  12  14
ATOM     14  N   UNL     1      10.188  -5.573  25.313  0.00  0.00    -0.321 NA
ATOM     15  H   UNL     1      10.669  -4.816  24.820  0.00  0.00    +0.119 HD
ATOM     16  H   UNL     1      10.594  -5.613  26.247  0.00  0.00    +0.119 HD
ENDBRANCH  12  14
ENDBRANCH  10  12
ENDBRANCH   1  10
TORSDOF 4
ENDMDL
MODEL 3
REMARK VINA RESULT:      -5.1      1.446      2.060
REMARK  Name = 
REMARK  8 active torsions:
REMARK  status: ('A' for Active; 'I' for Inactive)
REMARK    1  A    between atoms: C_2  and  C_3
REMARK    2  A    between atoms: C_2  and  N_4
REMARK    3  A    between atoms: C_2  and  C_5
REMARK    4  A    between atoms: C_5  and  C_7
REMARK    5  A    between atoms: C_10  and  C_12
REMARK    6  A    between atoms: C_12  and  C_13
REMARK    7  A    between atoms: C_12  and  C_14
REMARK    8  A    between atoms: C_12  and  C_15
REMARK                            x       y       z     vdW  Elec       q    Type
REMARK                         _______ _______ _______ _____ _____    ______ ____
ROOT
ATOM      1  C   UNL     1       9.275  -2.779  23.624  0.00  0.00    +0.286 A 
ATOM      2  O   UNL     1       8.043  -3.043  23.080  0.00  0.00    -0.417 OA
ATOM      3  C   UNL     1       7.806  -4.320  23.526  0.00  0.00    +0.223 A 
ATOM      4  N   UNL     1       8.794  -4.787  24.263  0.00  0.00    -0.111 NA
ATOM      5  N   UNL     1       9.743  -3.790  24.331  0.00  0.00    -0.104 NA
ENDROOT
BRANCH   3   6
ATOM      6  C   UNL     1       6.501  -4.963  23.154  0.00  0.00    +0.040 C 
ATOM      7  C   UNL     1       5.551  -3.921  22.542  0.00  0.00    +0.020 C 
ATOM      8  C   UNL     1       5.851  -5.580  24.404  0.00  0.00    +0.020 C 
ATOM      9  C   UNL     1       6.739  -6.081  22.120  0.00  0.00    +0.020 C 
ENDBRANCH   3   6
BRANCH   1  10
ATOM     10  C   UNL     1       9.909  -1.494  23.430  0.00  0.00    +0.235 C 
ATOM     11  O   UNL     1      10.690  -1.249  22.504  0.00  0.00    -0.285 OA
BRANCH  10  12
ATOM     12  C   UNL     1       9.490  -0.391  24.427  0.00  0.00    +0.125 C 
ATOM     13  C   UNL     1      10.722   0.396  24.862  0.00  0.00    +0.032 C 
BRANCH  12  14
ATOM     14  N   UNL     1       8.830  -0.991  25.607  0.00  0.00    -0.321 NA
ATOM     15  H   UNL     1       9.499  -1.599  26.084  0.00  0.00    +0.119 HD
ATOM     16  H   UNL     1       8.580  -0.259  26.270  0.00  0.00    +0.119 HD
ENDBRANCH  12  14
ENDBRANCH  10  12
ENDBRANCH   1  10
TORSDOF 4
ENDMDL
MODEL 4
REMARK VINA RESULT:      -5.0      2.233      5.211
REMARK  Name = 
REMARK  8 active torsions:
REMARK  status: ('A' for Active; 'I' for Inactive)
REMARK    1  A    between atoms: C_2  and  C_3
REMARK    2  A    between atoms: C_2  and  N_4
REMARK    3  A    between atoms: C_2  and  C_5
REMARK    4  A    between atoms: C_5  and  C_7
REMARK    5  A    between atoms: C_10  and  C_12
REMARK    6  A    between atoms: C_12  and  C_13
REMARK    7  A    between atoms: C_12  and  C_14
REMARK    8  A    between atoms: C_12  and  C_15
REMARK                            x       y       z     vdW  Elec       q    Type
REMARK                         _______ _______ _______ _____ _____    ______ ____
ROOT
ATOM      1  C   UNL     1       9.320  -2.428  24.608  0.00  0.00    +0.286 A 
ATOM      2  O   UNL     1       9.050  -1.085  24.676  0.00  0.00    -0.417 OA
ATOM      3  C   UNL     1       9.717  -0.609  23.574  0.00  0.00    +0.223 A 
ATOM      4  N   UNL     1      10.331  -1.564  22.906  0.00  0.00    -0.111 NA
ATOM      5  N   UNL     1      10.072  -2.743  23.571  0.00  0.00    -0.104 NA
ENDROOT
BRANCH   3   6
ATOM      6  C   UNL     1       9.628   0.862  23.280  0.00  0.00    +0.040 C 
ATOM      7  C   UNL     1      10.719   1.623  24.050  0.00  0.00    +0.020 C 
ATOM      8  C   UNL     1       8.244   1.391  23.692  0.00  0.00    +0.020 C 
ATOM      9  C   UNL     1       9.822   1.112  21.772  0.00  0.00    +0.020 C 
ENDBRANCH   3   6
BRANCH   1  10
ATOM     10  C   UNL     1       8.770  -3.343  25.584  0.00  0.00    +0.235 C 
ATOM     11  O   UNL     1       8.313  -2.985  26.676  0.00  0.00    -0.285 OA
BRANCH  10  12
ATOM     12  C   UNL     1       8.715  -4.823  25.148  0.00  0.00    +0.125 C 
ATOM     13  C   UNL     1       7.676  -5.562  25.987  0.00  0.00    +0.032 C 
BRANCH  12  14
ATOM     14  N   UNL     1      10.041  -5.456  25.314  0.00  0.00    -0.321 NA
ATOM     15  H   UNL     1      10.624  -5.213  24.510  0.00  0.00    +0.119 HD
ATOM     16  H   UNL     1      10.506  -5.070  26.135  0.00  0.00    +0.119 HD
ENDBRANCH  12  14
ENDBRANCH  10  12
ENDBRANCH   1  10
TORSDOF 4
ENDMDL
MODEL 5
REMARK VINA RESULT:      -4.9      2.292      5.151
REMARK  Name = 
REMARK  8 active torsions:
REMARK  status: ('A' for Active; 'I' for Inactive)
REMARK    1  A    between atoms: C_2  and  C_3
REMARK    2  A    between atoms: C_2  and  N_4
REMARK    3  A    between atoms: C_2  and  C_5
REMARK    4  A    between atoms: C_5  and  C_7
REMARK    5  A    between atoms: C_10  and  C_12
REMARK    6  A    between atoms: C_12  and  C_13
REMARK    7  A    between atoms: C_12  and  C_14
REMARK    8  A    between atoms: C_12  and  C_15
REMARK                            x       y       z     vdW  Elec       q    Type
REMARK                         _______ _______ _______ _____ _____    ______ ____
ROOT
ATOM      1  C   UNL     1       8.984  -3.075  24.059  0.00  0.00    +0.286 A 
ATOM      2  O   UNL     1       9.579  -1.886  24.397  0.00  0.00    -0.417 OA
ATOM      3  C   UNL     1       9.150  -1.060  23.388  0.00  0.00    +0.223 A 
ATOM      4  N   UNL     1       8.376  -1.683  22.522  0.00  0.00    -0.111 NA
ATOM      5  N   UNL     1       8.265  -2.986  22.956  0.00  0.00    -0.104 NA
ENDROOT
BRANCH   3   6
ATOM      6  C   UNL     1       9.577   0.379  23.429  0.00  0.00    +0.040 C 
ATOM      7  C   UNL     1      10.847   0.532  24.282  0.00  0.00    +0.020 C 
ATOM      8  C   UNL     1       8.450   1.240  24.025  0.00  0.00    +0.020 C 
ATOM      9  C   UNL     1       9.877   0.882  22.004  0.00  0.00    +0.020 C 
ENDBRANCH   3   6
BRANCH   1  10
ATOM     10  C   UNL     1       9.146  -4.246  24.892  0.00  0.00    +0.235 C 
ATOM     11  O   UNL     1      10.203  -4.879  24.986  0.00  0.00    -0.285 OA
BRANCH  10  12
ATOM     12  C   UNL     1       7.912  -4.633  25.738  0.00  0.00    +0.125 C 
ATOM     13  C   UNL     1       7.446  -3.421  26.540  0.00  0.00    +0.032 C 
BRANCH  12  14
ATOM     14  N   UNL     1       8.247  -5.746  26.651  0.00  0.00    -0.321 NA
ATOM     15  H   UNL     1       7.422  -5.967  27.215  0.00  0.00    +0.119 HD
ATOM     16  H   UNL     1       8.459  -6.583  26.110  0.00  0.00    +0.119 HD
ENDBRANCH  12  14
ENDBRANCH  10  12
ENDBRANCH   1  10
TORSDOF 4
ENDMDL
MODEL 6
REMARK VINA RESULT:      -4.8      1.862      2.395
REMARK  Name = 
REMARK  8 active torsions:
REMARK  status: ('A' for Active; 'I' for Inactive)
REMARK    1  A    between atoms: C_2  and  C_3
REMARK    2  A    between atoms: C_2  and  N_4
REMARK    3  A    between atoms: C_2  and  C_5
REMARK    4  A    between atoms: C_5  and  C_7
REMARK    5  A    between atoms: C_10  and  C_12
REMARK    6  A    between atoms: C_12  and  C_13
REMARK    7  A    between atoms: C_12  and  C_14
REMARK    8  A    between atoms: C_12  and  C_15
REMARK                            x       y       z     vdW  Elec       q    Type
REMARK                         _______ _______ _______ _____ _____    ______ ____
ROOT
ATOM      1  C   UNL     1       9.258  -1.150  24.212  0.00  0.00    +0.286 A 
ATOM      2  O   UNL     1       9.555  -2.489  24.229  0.00  0.00    -0.417 OA
ATOM      3  C   UNL     1       8.437  -3.017  24.827  0.00  0.00    +0.223 A 
ATOM      4  N   UNL     1       7.552  -2.094  25.143  0.00  0.00    -0.111 NA
ATOM      5  N   UNL     1       8.079  -0.886  24.743  0.00  0.00    -0.104 NA
ENDROOT
BRANCH   3   6
ATOM      6  C   UNL     1       8.370  -4.508  24.998  0.00  0.00    +0.040 C 
ATOM      7  C   UNL     1       9.740  -5.055  25.431  0.00  0.00    +0.020 C 
ATOM      8  C   UNL     1       7.950  -5.165  23.671  0.00  0.00    +0.020 C 
ATOM      9  C   UNL     1       7.331  -4.870  26.076  0.00  0.00    +0.020 C 
ENDBRANCH   3   6
BRANCH   1  10
ATOM     10  C   UNL     1      10.172  -0.198  23.623  0.00  0.00    +0.235 C 
ATOM     11  O   UNL     1      10.963   0.489  24.280  0.00  0.00    -0.285 OA
BRANCH  10  12
ATOM     12  C   UNL     1      10.160  -0.134  22.080  0.00  0.00    +0.125 C 
ATOM     13  C   UNL     1       9.058   0.816  21.619  0.00  0.00    +0.032 C 
BRANCH  12  14
ATOM     14  N   UNL     1       9.936  -1.481  21.513  0.00  0.00    -0.321 NA
ATOM     15  H   UNL     1      10.842  -1.891  21.274  0.00  0.00    +0.119 HD
ATOM     16  H   UNL     1       9.522  -2.087  22.220  0.00  0.00    +0.119 HD
ENDBRANCH  12  14
ENDBRANCH  10  12
ENDBRANCH   1  10
TORSDOF 4
ENDMDL
MODEL 7
REMARK VINA RESULT:      -4.8      1.860      5.264
REMARK  Name = 
REMARK  8 active torsions:
REMARK  status: ('A' for Active; 'I' for Inactive)
REMARK    1  A    between atoms: C_2  and  C_3
REMARK    2  A    between atoms: C_2  and  N_4
REMARK    3  A    between atoms: C_2  and  C_5
REMARK    4  A    between atoms: C_5  and  C_7
REMARK    5  A    between atoms: C_10  and  C_12
REMARK    6  A    between atoms: C_12  and  C_13
REMARK    7  A    between atoms: C_12  and  C_14
REMARK    8  A    between atoms: C_12  and  C_15
REMARK                            x       y       z     vdW  Elec       q    Type
REMARK                         _______ _______ _______ _____ _____    ______ ____
ROOT
ATOM      1  C   UNL     1       8.728  -2.239  22.865  0.00  0.00    +0.286 A 
ATOM      2  O   UNL     1       8.897  -1.227  23.776  0.00  0.00    -0.417 OA
ATOM      3  C   UNL     1       9.560  -0.285  23.030  0.00  0.00    +0.223 A 
ATOM      4  N   UNL     1       9.776  -0.683  21.792  0.00  0.00    -0.111 NA
ATOM      5  N   UNL     1       9.235  -1.946  21.683  0.00  0.00    -0.104 NA
ENDROOT
BRANCH   3   6
ATOM      6  C   UNL     1       9.902   1.021  23.690  0.00  0.00    +0.040 C 
ATOM      7  C   UNL     1       8.741   1.484  24.583  0.00  0.00    +0.020 C 
ATOM      8  C   UNL     1      10.184   2.088  22.617  0.00  0.00    +0.020 C 
ATOM      9  C   UNL     1      11.161   0.857  24.562  0.00  0.00    +0.020 C 
ENDBRANCH   3   6
BRANCH   1  10
ATOM     10  C   UNL     1       8.026  -3.450  23.227  0.00  0.00    +0.235 C 
ATOM     11  O   UNL     1       8.570  -4.425  23.757  0.00  0.00    -0.285 OA
BRANCH  10  12
ATOM     12  C   UNL     1       6.502  -3.433  22.976  0.00  0.00    +0.125 C 
ATOM     13  C   UNL     1       6.169  -4.350  21.802  0.00  0.00    +0.032 C 
BRANCH  12  14
ATOM     14  N   UNL     1       6.046  -2.056  22.686  0.00  0.00    -0.321 NA
ATOM     15  H   UNL     1       6.672  -1.641  21.992  0.00  0.00    +0.119 HD
ATOM     16  H   UNL     1       5.120  -2.082  22.261  0.00  0.00    +0.119 HD
ENDBRANCH  12  14
ENDBRANCH  10  12
ENDBRANCH   1  10
TORSDOF 4
ENDMDL
MODEL 8
REMARK VINA RESULT:      -4.7      2.259      5.099
REMARK  Name = 
REMARK  8 active torsions:
REMARK  status: ('A' for Active; 'I' for Inactive)
REMARK    1  A    between atoms: C_2  and  C_3
REMARK    2  A    between atoms: C_2  and  N_4
REMARK    3  A    between atoms: C_2  and  C_5
REMARK    4  A    between atoms: C_5  and  C_7
REMARK    5  A    between atoms: C_10  and  C_12
REMARK    6  A    between atoms: C_12  and  C_13
REMARK    7  A    between atoms: C_12  and  C_14
REMARK    8  A    between atoms: C_12  and  C_15
REMARK                            x       y       z     vdW  Elec       q    Type
REMARK                         _______ _______ _______ _____ _____    ______ ____
ROOT
ATOM      1  C   UNL     1       6.899  -2.895  23.344  0.00  0.00    +0.286 A 
ATOM      2  O   UNL     1       8.167  -2.553  22.948  0.00  0.00    -0.417 OA
ATOM      3  C   UNL     1       8.127  -1.183  23.032  0.00  0.00    +0.223 A 
ATOM      4  N   UNL     1       6.955  -0.737  23.434  0.00  0.00    -0.111 NA
ATOM      5  N   UNL     1       6.160  -1.843  23.641  0.00  0.00    -0.104 NA
ENDROOT
BRANCH   3   6
ATOM      6  C   UNL     1       9.380  -0.423  22.699  0.00  0.00    +0.040 C 
ATOM      7  C   UNL     1       9.138   0.494  21.489  0.00  0.00    +0.020 C 
ATOM      8  C   UNL     1      10.517  -1.409  22.379  0.00  0.00    +0.020 C 
ATOM      9  C   UNL     1       9.805   0.444  23.899  0.00  0.00    +0.020 C 
ENDBRANCH   3   6
BRANCH   1  10
ATOM     10  C   UNL     1       6.502  -4.283  23.438  0.00  0.00    +0.235 C 
ATOM     11  O   UNL     1       6.579  -4.948  24.477  0.00  0.00    -0.285 OA
BRANCH  10  12
ATOM     12  C   UNL     1       5.892  -4.886  22.153  0.00  0.00    +0.125 C 
ATOM     13  C   UNL     1       6.821  -5.966  21.608  0.00  0.00    +0.032 C 
BRANCH  12  14
ATOM     14  N   UNL     1       5.692  -3.831  21.137  0.00  0.00    -0.321 NA
ATOM     15  H   UNL     1       6.017  -4.180  20.232  0.00  0.00    +0.119 HD
ATOM     16  H   UNL     1       4.697  -3.639  21.031  0.00  0.00    +0.119 HD
ENDBRANCH  12  14
ENDBRANCH  10  12
ENDBRANCH   1  10
TORSDOF 4
ENDMDL
MODEL 9
REMARK VINA RESULT:      -4.6      1.783      5.217
REMARK  Name = 
REMARK  8 active torsions:
REMARK  status: ('A' for Active; 'I' for Inactive)
REMARK    1  A    between atoms: C_2  and  C_3
REMARK    2  A    between atoms: C_2  and  N_4
REMARK    3  A    between atoms: C_2  and  C_5
REMARK    4  A    between atoms: C_5  and  C_7
REMARK    5  A    between atoms: C_10  and  C_12
REMARK    6  A    between atoms: C_12  and  C_13
REMARK    7  A    between atoms: C_12  and  C_14
REMARK    8  A    between atoms: C_12  and  C_15
REMARK                            x       y       z     vdW  Elec       q    Type
REMARK                         _______ _______ _______ _____ _____    ______ ____
ROOT
ATOM      1  C   UNL     1       8.563  -2.082  22.536  0.00  0.00    +0.286 A 
ATOM      2  O   UNL     1       8.053  -0.868  22.923  0.00  0.00    -0.417 OA
ATOM      3  C   UNL     1       9.026  -0.003  22.487  0.00  0.00    +0.223 A 
ATOM      4  N   UNL     1      10.027  -0.626  21.898  0.00  0.00    -0.111 NA
ATOM      5  N   UNL     1       9.728  -1.971  21.926  0.00  0.00    -0.104 NA
ENDROOT
BRANCH   3   6
ATOM      6  C   UNL     1       8.806   1.467  22.704  0.00  0.00    +0.040 C 
ATOM      7  C   UNL     1      10.137   2.227  22.579  0.00  0.00    +0.020 C 
ATOM      8  C   UNL     1       8.207   1.703  24.101  0.00  0.00    +0.020 C 
ATOM      9  C   UNL     1       7.824   2.015  21.650  0.00  0.00    +0.020 C 
ENDBRANCH   3   6
BRANCH   1  10
ATOM     10  C   UNL     1       7.827  -3.303  22.774  0.00  0.00    +0.235 C 
ATOM     11  O   UNL     1       6.932  -3.719  22.030  0.00  0.00    -0.285 OA
BRANCH  10  12
ATOM     12  C   UNL     1       8.280  -4.122  24.003  0.00  0.00    +0.125 C 
ATOM     13  C   UNL     1       7.339  -3.848  25.172  0.00  0.00    +0.032 C 
BRANCH  12  14
ATOM     14  N   UNL     1       9.666  -3.764  24.374  0.00  0.00    -0.321 NA
ATOM     15  H   UNL     1       9.776  -3.881  25.384  0.00  0.00    +0.119 HD
ATOM     16  H   UNL     1      10.319  -4.412  23.935  0.00  0.00    +0.119 HD
ENDBRANCH  12  14
ENDBRANCH  10  12
ENDBRANCH   1  10
TORSDOF 4
ENDMDL
