MODEL 1
REMARK VINA RESULT:      -6.0      0.000      0.000
REMARK  Name = 
REMARK  5 active torsions:
REMARK  status: ('A' for Active; 'I' for Inactive)
REMARK    1  A    between atoms: N1_6  and  C1*_9
REMARK    2  A    between atoms: C4*_12  and  C5*_14
REMARK    3  A    between atoms: C5*_14  and  O5*_15
REMARK    4  A    between atoms: C3*_16  and  O3*_18
REMARK    5  A    between atoms: C2*_19  and  O2*_21
REMARK                            x       y       z     vdW  Elec       q    Type
REMARK                         _______ _______ _______ _____ _____    ______ ____
ROOT
ATOM      1  C1*   C A   1       9.109  -4.018  24.610  0.00  0.00    +0.255 C 
ATOM      2  C2*   C A   1       9.190  -4.884  25.886  0.00  0.00    +0.195 C 
ATOM      3  C3*   C A   1       7.736  -5.190  26.238  0.00  0.00    +0.178 C 
ATOM      4  C4*   C A   1       6.930  -4.649  25.055  0.00  0.00    +0.177 C 
ATOM      5  O4*   C A   1       7.851  -4.374  23.999  0.00  0.00    -0.346 OA
ENDROOT
BRANCH   1  12
ATOM      6  N4    C A   1       9.673   1.467  25.015  0.00  0.00    -0.343 N 
ATOM      7  H41   C A   1       8.981   2.000  25.522  0.00  0.00    +0.144 HD
ATOM      8  H42   C A   1       9.950   1.885  24.132  0.00  0.00    +0.144 HD
ATOM      9  C4    C A   1       9.506   0.115  24.929  0.00  0.00    +0.123 A 
ATOM     10  C5    C A   1       8.766  -0.587  25.991  0.00  0.00    +0.061 A 
ATOM     11  C6    C A   1       8.627  -1.901  25.835  0.00  0.00    +0.096 A 
ATOM     12  N1    C A   1       9.183  -2.564  24.761  0.00  0.00    -0.270 N 
ATOM     13  C2    C A   1       9.887  -1.859  23.772  0.00  0.00    +0.352 A 
ATOM     14  O2    C A   1      10.401  -2.435  22.817  0.00  0.00    -0.244 OA
ATOM     15  N3    C A   1      10.007  -0.491  23.901  0.00  0.00    -0.178 NA
ENDBRANCH   1  12
BRANCH   2  16
ATOM     16  O2*   C A   1       9.880  -6.123  25.618  0.00  0.00    -0.385 OA
ATOM     17  H2*   C A   1      10.276  -6.437  26.453  0.00  0.00    +0.210 HD
ENDBRANCH   2  16
BRANCH   3  18
ATOM     18  O3*   C A   1       7.337  -4.535  27.445  0.00  0.00    -0.386 OA
ATOM     19  H3*   C A   1       6.505  -4.069  27.235  0.00  0.00    +0.210 HD
ENDBRANCH   3  18
BRANCH   4  20
ATOM     20  C5*   C A   1       5.852  -5.630  24.600  0.00  0.00    +0.190 C 
BRANCH  20  21
ATOM     21  O5*   C A   1       5.394  -6.400  25.708  0.00  0.00    -0.392 OA
ATOM     22  H5*   C A   1       4.972  -7.200  25.346  0.00  0.00    +0.210 HD
ENDBRANCH  20  21
ENDBRANCH   4  20
TORSDOF 5
ENDMDL
MODEL 2
REMARK VINA RESULT:      -5.9      2.508      5.396
REMARK  Name = 
REMARK  5 active torsions:
REMARK  status: ('A' for Active; 'I' for Inactive)
REMARK    1  A    between atoms: N1_6  and  C1*_9
REMARK    2  A    between atoms: C4*_12  and  C5*_14
REMARK    3  A    between atoms: C5*_14  and  O5*_15
REMARK    4  A    between atoms: C3*_16  and  O3*_18
REMARK    5  A    between atoms: C2*_19  and  O2*_21
REMARK                            x       y       z     vdW  Elec       q    Type
REMARK                         _______ _______ _______ _____ _____    ______ ____
ROOT
ATOM      1  C1*   C A   1       9.351  -2.551  23.618  0.00  0.00    +0.255 C 
ATOM      2  C2*   C A   1       8.806  -1.822  22.371  0.00  0.00    +0.195 C 
ATOM      3  C3*   C A   1       8.405  -0.438  22.878  0.00  0.00    +0.178 C 
ATOM      4  C4*   C A   1       8.912  -0.393  24.321  0.00  0.00    +0.177 C 
ATOM      5  O4*   C A   1       9.798  -1.498  24.498  0.00  0.00    -0.346 OA
ENDROOT
BRANCH   1  12
ATOM      6  N4    C A   1       6.135  -6.157  26.305  0.00  0.00    -0.343 N 
ATOM      7  H41   C A   1       5.254  -5.845  26.689  0.00  0.00    +0.144 HD
ATOM      8  H42   C A   1       6.671  -6.748  26.933  0.00  0.00    +0.144 HD
ATOM      9  C4    C A   1       6.909  -5.244  25.649  0.00  0.00    +0.123 A 
ATOM     10  C5    C A   1       6.265  -4.091  24.997  0.00  0.00    +0.061 A 
ATOM     11  C6    C A   1       7.081  -3.233  24.391  0.00  0.00    +0.096 A 
ATOM     12  N1    C A   1       8.444  -3.441  24.345  0.00  0.00    -0.270 N 
ATOM     13  C2    C A   1       9.019  -4.556  24.976  0.00  0.00    +0.352 A 
ATOM     14  O2    C A   1      10.228  -4.764  24.932  0.00  0.00    -0.244 OA
ATOM     15  N3    C A   1       8.189  -5.435  25.639  0.00  0.00    -0.178 NA
ENDBRANCH   1  12
BRANCH   2  16
ATOM     16  O2*   C A   1       9.838  -1.678  21.373  0.00  0.00    -0.385 OA
ATOM     17  H2*   C A   1       9.511  -1.070  20.683  0.00  0.00    +0.210 HD
ENDBRANCH   2  16
BRANCH   3  18
ATOM     18  O3*   C A   1       6.987  -0.256  22.849  0.00  0.00    -0.386 OA
ATOM     19  H3*   C A   1       6.831   0.551  22.324  0.00  0.00    +0.210 HD
ENDBRANCH   3  18
BRANCH   4  20
ATOM     20  C5*   C A   1       9.612   0.926  24.641  0.00  0.00    +0.190 C 
BRANCH  20  21
ATOM     21  O5*   C A   1      10.891   0.673  25.214  0.00  0.00    -0.392 OA
ATOM     22  H5*   C A   1      10.933  -0.279  25.413  0.00  0.00    +0.210 HD
ENDBRANCH  20  21
ENDBRANCH   4  20
TORSDOF 5
ENDMDL
MODEL 3
REMARK VINA RESULT:      -5.9      2.451      3.147
REMARK  Name = 
REMARK  5 active torsions:
REMARK  status: ('A' for Active; 'I' for Inactive)
REMARK    1  A    between atoms: N1_6  and  C1*_9
REMARK    2  A    between atoms: C4*_12  and  C5*_14
REMARK    3  A    between atoms: C5*_14  and  O5*_15
REMARK    4  A    between atoms: C3*_16  and  O3*_18
REMARK    5  A    between atoms: C2*_19  and  O2*_21
REMARK                            x       y       z     vdW  Elec       q    Type
REMARK                         _______ _______ _______ _____ _____    ______ ____
ROOT
ATOM      1  C1*   C A   1       8.015  -3.062  23.861  0.00  0.00    +0.255 C 
ATOM      2  C2*   C A   1       6.534  -3.290  24.234  0.00  0.00    +0.195 C 
ATOM      3  C3*   C A   1       5.972  -4.130  23.088  0.00  0.00    +0.178 C 
ATOM      4  C4*   C A   1       7.192  -4.487  22.237  0.00  0.00    +0.177 C 
ATOM      5  O4*   C A   1       8.356  -4.170  23.001  0.00  0.00    -0.346 OA
ENDROOT
BRANCH   1  12
ATOM      6  N4    C A   1       9.666   1.649  21.485  0.00  0.00    -0.343 N 
ATOM      7  H41   C A   1       8.998   2.204  20.969  0.00  0.00    +0.144 HD
ATOM      8  H42   C A   1      10.562   1.544  21.019  0.00  0.00    +0.144 HD
ATOM      9  C4    C A   1       9.230   0.489  22.059  0.00  0.00    +0.123 A 
ATOM     10  C5    C A   1       7.815   0.367  22.446  0.00  0.00    +0.061 A 
ATOM     11  C6    C A   1       7.456  -0.796  22.984  0.00  0.00    +0.096 A 
ATOM     12  N1    C A   1       8.371  -1.805  23.201  0.00  0.00    -0.270 N 
ATOM     13  C2    C A   1       9.713  -1.647  22.821  0.00  0.00    +0.352 A 
ATOM     14  O2    C A   1      10.544  -2.529  23.020  0.00  0.00    -0.244 OA
ATOM     15  N3    C A   1      10.092  -0.461  22.229  0.00  0.00    -0.178 NA
ENDBRANCH   1  12
BRANCH   2  16
ATOM     16  O2*   C A   1       6.427  -4.039  25.463  0.00  0.00    -0.385 OA
ATOM     17  H2*   C A   1       5.499  -4.001  25.762  0.00  0.00    +0.210 HD
ENDBRANCH   2  16
BRANCH   3  18
ATOM     18  O3*   C A   1       5.027  -3.393  22.308  0.00  0.00    -0.386 OA
ATOM     19  H3*   C A   1       5.418  -3.315  21.417  0.00  0.00    +0.210 HD
ENDBRANCH   3  18
BRANCH   4  20
ATOM     20  C5*   C A   1       7.192  -5.957  21.824  0.00  0.00    +0.190 C 
BRANCH  20  21
ATOM     21  O5*   C A   1       5.859  -6.392  21.569  0.00  0.00    -0.392 OA
ATOM     22  H5*   C A   1       5.389  -5.646  21.156  0.00  0.00    +0.210 HD
ENDBRANCH  20  21
ENDBRANCH   4  20
TORSDOF 5
ENDMDL
MODEL 4
REMARK VINA RESULT:      -5.8      2.161      2.913
REMARK  Name = 
REMARK  5 active torsions:
REMARK  status: ('A' for Active; 'I' for Inactive)
REMARK    1  A    between atoms: N1_6  and  C1*_9
REMARK    2  A    between atoms: C4*_12  and  C5*_14
REMARK    3  A    between atoms: C5*_14  and  O5*_15
REMARK    4  A    between atoms: C3*_16  and  O3*_18
REMARK    5  A    between atoms: C2*_19  and  O2*_21
REMARK                            x       y       z     vdW  Elec       q    Type
REMARK                         _______ _______ _______ _____ _____    ______ ____
ROOT
ATOM      1  C1*   C A   1       7.326  -3.324  23.609  0.00  0.00    +0.255 C 
ATOM      2  C2*   C A   1       7.920  -4.729  23.367  0.00  0.00    +0.195 C 
ATOM      3  C3*   C A   1       8.503  -5.139  24.718  0.00  0.00    +0.178 C 
ATOM      4  C4*   C A   1       8.048  -4.044  25.684  0.00  0.00    +0.177 C 
ATOM      5  O4*   C A   1       7.038  -3.282  25.023  0.00  0.00    -0.346 OA
ENDROOT
BRANCH   1  12
ATOM      6  N4    C A   1      10.117   1.206  22.110  0.00  0.00    -0.343 N 
ATOM      7  H41   C A   1      11.118   1.239  22.245  0.00  0.00    +0.144 HD
ATOM      8  H42   C A   1       9.635   2.056  22.387  0.00  0.00    +0.144 HD
ATOM      9  C4    C A   1       9.454   0.076  22.492  0.00  0.00    +0.123 A 
ATOM     10  C5    C A   1      10.172  -1.210  22.502  0.00  0.00    +0.061 A 
ATOM     11  C6    C A   1       9.469  -2.267  22.900  0.00  0.00    +0.096 A 
ATOM     12  N1    C A   1       8.137  -2.163  23.242  0.00  0.00    -0.270 N 
ATOM     13  C2    C A   1       7.488  -0.918  23.215  0.00  0.00    +0.352 A 
ATOM     14  O2    C A   1       6.299  -0.810  23.501  0.00  0.00    -0.244 OA
ATOM     15  N3    C A   1       8.213   0.192  22.839  0.00  0.00    -0.178 NA
ENDBRANCH   1  12
BRANCH   2  16
ATOM     16  O2*   C A   1       6.884  -5.664  22.998  0.00  0.00    -0.385 OA
ATOM     17  H2*   C A   1       6.058  -5.392  23.439  0.00  0.00    +0.210 HD
ENDBRANCH   2  16
BRANCH   3  18
ATOM     18  O3*   C A   1       9.932  -5.198  24.680  0.00  0.00    -0.386 OA
ATOM     19  H3*   C A   1      10.241  -4.690  25.454  0.00  0.00    +0.210 HD
ENDBRANCH   3  18
BRANCH   4  20
ATOM     20  C5*   C A   1       7.526  -4.620  26.998  0.00  0.00    +0.190 C 
BRANCH  20  21
ATOM     21  O5*   C A   1       8.045  -5.932  27.196  0.00  0.00    -0.392 OA
ATOM     22  H5*   C A   1       8.860  -6.001  26.667  0.00  0.00    +0.210 HD
ENDBRANCH  20  21
ENDBRANCH   4  20
TORSDOF 5
ENDMDL
MODEL 5
REMARK VINA RESULT:      -5.7      2.168      2.884
REMARK  Name = 
REMARK  5 active torsions:
REMARK  status: ('A' for Active; 'I' for Inactive)
REMARK    1  A    between atoms: N1_6  and  C1*_9
REMARK    2  A    between atoms: C4*_12  and  C5*_14
REMARK    3  A    between atoms: C5*_14  and  O5*_15
REMARK    4  A    between atoms: C3*_16  and  O3*_18
REMARK    5  A    between atoms: C2*_19  and  O2*_21
REMARK                            x       y       z     vdW  Elec       q    Type
REMARK                         _______ _______ _______ _____ _____    ______ ____
ROOT
ATOM      1  C1*   C A   1       9.427  -2.449  24.371  0.00  0.00    +0.255 C 
ATOM      2  C2*   C A   1       8.222  -2.494  25.334  0.00  0.00    +0.195 C 
ATOM      3  C3*   C A   1       7.156  -3.290  24.582  0.00  0.00    +0.178 C 
ATOM      4  C4*   C A   1       7.870  -3.805  23.331  0.00  0.00    +0.177 C 
ATOM      5  O4*   C A   1       9.271  -3.608  23.526  0.00  0.00    -0.346 OA
ENDROOT
BRANCH   1  12
ATOM      6  N4    C A   1       9.990   2.233  21.485  0.00  0.00    -0.343 N 
ATOM      7  H41   C A   1      10.211   2.184  20.501  0.00  0.00    +0.144 HD
ATOM      8  H42   C A   1      10.526   2.929  21.994  0.00  0.00    +0.144 HD
ATOM      9  C4    C A   1       9.860   1.061  22.173  0.00  0.00    +0.123 A 
ATOM     10  C5    C A   1       9.443  -0.153  21.451  0.00  0.00    +0.061 A 
ATOM     11  C6    C A   1       9.352  -1.263  22.180  0.00  0.00    +0.096 A 
ATOM     12  N1    C A   1       9.596  -1.258  23.537  0.00  0.00    -0.270 N 
ATOM     13  C2    C A   1       9.987  -0.078  24.189  0.00  0.00    +0.352 A 
ATOM     14  O2    C A   1      10.193  -0.052  25.399  0.00  0.00    -0.244 OA
ATOM     15  N3    C A   1      10.120   1.073  23.440  0.00  0.00    -0.178 NA
ENDBRANCH   1  12
BRANCH   2  16
ATOM     16  O2*   C A   1       8.565  -3.197  26.547  0.00  0.00    -0.385 OA
ATOM     17  H2*   C A   1       8.005  -2.851  27.268  0.00  0.00    +0.210 HD
ENDBRANCH   2  16
BRANCH   3  18
ATOM     18  O3*   C A   1       6.048  -2.465  24.211  0.00  0.00    -0.386 OA
ATOM     19  H3*   C A   1       6.429  -1.601  23.962  0.00  0.00    +0.210 HD
ENDBRANCH   3  18
BRANCH   4  20
ATOM     20  C5*   C A   1       7.556  -5.274  23.058  0.00  0.00    +0.190 C 
BRANCH  20  21
ATOM     21  O5*   C A   1       6.318  -5.630  23.667  0.00  0.00    -0.392 OA
ATOM     22  H5*   C A   1       5.928  -6.342  23.128  0.00  0.00    +0.210 HD
ENDBRANCH  20  21
ENDBRANCH   4  20
TORSDOF 5
ENDMDL
MODEL 6
REMARK VINA RESULT:      -5.7      3.397      6.086
REMARK  Name = 
REMARK  5 active torsions:
REMARK  status: ('A' for Active; 'I' for Inactive)
REMARK    1  A    between atoms: N1_6  and  C1*_9
REMARK    2  A    between atoms: C4*_12  and  C5*_14
REMARK    3  A    between atoms: C5*_14  and  O5*_15
REMARK    4  A    between atoms: C3*_16  and  O3*_18
REMARK    5  A    between atoms: C2*_19  and  O2*_21
REMARK                            x       y       z     vdW  Elec       q    Type
REMARK                         _______ _______ _______ _____ _____    ______ ____
ROOT
ATOM      1  C1*   C A   1       7.863  -1.336  23.889  0.00  0.00    +0.255 C 
ATOM      2  C2*   C A   1       9.404  -1.321  23.805  0.00  0.00    +0.195 C 
ATOM      3  C3*   C A   1       9.713  -0.558  22.517  0.00  0.00    +0.178 C 
ATOM      4  C4*   C A   1       8.357  -0.026  22.048  0.00  0.00    +0.177 C 
ATOM      5  O4*   C A   1       7.438  -0.184  23.130  0.00  0.00    -0.346 OA
ENDROOT
BRANCH   1  12
ATOM      6  N4    C A   1       5.008  -5.801  22.315  0.00  0.00    -0.343 N 
ATOM      7  H41   C A   1       5.294  -6.307  21.488  0.00  0.00    +0.144 HD
ATOM      8  H42   C A   1       4.005  -5.652  22.379  0.00  0.00    +0.144 HD
ATOM      9  C4    C A   1       5.730  -4.701  22.678  0.00  0.00    +0.123 A 
ATOM     10  C5    C A   1       7.151  -4.617  22.299  0.00  0.00    +0.061 A 
ATOM     11  C6    C A   1       7.789  -3.511  22.671  0.00  0.00    +0.096 A 
ATOM     12  N1    C A   1       7.160  -2.525  23.403  0.00  0.00    -0.270 N 
ATOM     13  C2    C A   1       5.804  -2.645  23.748  0.00  0.00    +0.352 A 
ATOM     14  O2    C A   1       5.233  -1.785  24.412  0.00  0.00    -0.244 OA
ATOM     15  N3    C A   1       5.120  -3.770  23.338  0.00  0.00    -0.178 NA
ENDBRANCH   1  12
BRANCH   2  16
ATOM     16  O2*   C A   1       9.969  -0.605  24.923  0.00  0.00    -0.385 OA
ATOM     17  H2*   C A   1      10.760  -0.127  24.610  0.00  0.00    +0.210 HD
ENDBRANCH   2  16
BRANCH   3  18
ATOM     18  O3*   C A   1      10.277  -1.414  21.520  0.00  0.00    -0.386 OA
ATOM     19  H3*   C A   1      11.235  -1.447  21.706  0.00  0.00    +0.210 HD
ENDBRANCH   3  18
BRANCH   4  20
ATOM     20  C5*   C A   1       8.436   1.433  21.605  0.00  0.00    +0.190 C 
BRANCH  20  21
ATOM     21  O5*   C A   1       9.797   1.814  21.424  0.00  0.00    -0.392 OA
ATOM     22  H5*   C A   1      10.148   1.283  20.686  0.00  0.00    +0.210 HD
ENDBRANCH  20  21
ENDBRANCH   4  20
TORSDOF 5
ENDMDL
MODEL 7
REMARK VINA RESULT:      -5.7      2.938      5.572
REMARK  Name = 
REMARK  5 active torsions:
REMARK  status: ('A' for Active; 'I' for Inactive)
REMARK    1  A    between atoms: N1_6  and  C1*_9
REMARK    2  A    between atoms: C4*_12  and  C5*_14
REMARK    3  A    between atoms: C5*_14  and  O5*_15
REMARK    4  A    between atoms: C3*_16  and  O3*_18
REMARK    5  A    between atoms: C2*_19  and  O2*_21
REMARK                            x       y       z     vdW  Elec       q    Type
REMARK                         _______ _______ _______ _____ _____    ______ ____
ROOT
ATOM      1  C1*   C A   1       7.178  -1.516  23.415  0.00  0.00    +0.255 C 
ATOM      2  C2*   C A   1       6.992  -0.205  24.209  0.00  0.00    +0.195 C 
ATOM      3  C3*   C A   1       8.119   0.705  23.723  0.00  0.00    +0.178 C 
ATOM      4  C4*   C A   1       8.758  -0.060  22.561  0.00  0.00    +0.177 C 
ATOM      5  O4*   C A   1       7.875  -1.126  22.213  0.00  0.00    -0.346 OA
ENDROOT
BRANCH   1  12
ATOM      6  N4    C A   1       9.707  -5.872  25.692  0.00  0.00    -0.343 N 
ATOM      7  H41   C A   1      10.441  -5.721  26.370  0.00  0.00    +0.144 HD
ATOM      8  H42   C A   1       9.923  -6.587  25.004  0.00  0.00    +0.144 HD
ATOM      9  C4    C A   1       9.103  -4.778  25.145  0.00  0.00    +0.123 A 
ATOM     10  C5    C A   1       9.057  -3.522  25.913  0.00  0.00    +0.061 A 
ATOM     11  C6    C A   1       8.467  -2.492  25.313  0.00  0.00    +0.096 A 
ATOM     12  N1    C A   1       7.899  -2.613  24.061  0.00  0.00    -0.270 N 
ATOM     13  C2    C A   1       7.960  -3.830  23.363  0.00  0.00    +0.352 A 
ATOM     14  O2    C A   1       7.446  -3.960  22.256  0.00  0.00    -0.244 OA
ATOM     15  N3    C A   1       8.600  -4.897  23.958  0.00  0.00    -0.178 NA
ENDBRANCH   1  12
BRANCH   2  16
ATOM     16  O2*   C A   1       5.724   0.408  23.892  0.00  0.00    -0.385 OA
ATOM     17  H2*   C A   1       5.724   0.634  22.943  0.00  0.00    +0.210 HD
ENDBRANCH   2  16
BRANCH   3  18
ATOM     18  O3*   C A   1       9.088   0.938  24.749  0.00  0.00    -0.386 OA
ATOM     19  H3*   C A   1       8.967   1.867  25.025  0.00  0.00    +0.210 HD
ENDBRANCH   3  18
BRANCH   4  20
ATOM     20  C5*   C A   1       9.027   0.844  21.360  0.00  0.00    +0.190 C 
BRANCH  20  21
ATOM     21  O5*   C A   1       9.819   1.960  21.757  0.00  0.00    -0.392 OA
ATOM     22  H5*   C A   1      10.062   1.821  22.690  0.00  0.00    +0.210 HD
ENDBRANCH  20  21
ENDBRANCH   4  20
TORSDOF 5
ENDMDL
MODEL 8
REMARK VINA RESULT:      -5.7      2.965      5.918
REMARK  Name = 
REMARK  5 active torsions:
REMARK  status: ('A' for Active; 'I' for Inactive)
REMARK    1  A    between atoms: N1_6  and  C1*_9
REMARK    2  A    between atoms: C4*_12  and  C5*_14
REMARK    3  A    between atoms: C5*_14  and  O5*_15
REMARK    4  A    between atoms: C3*_16  and  O3*_18
REMARK    5  A    between atoms: C2*_19  and  O2*_21
REMARK                            x       y       z     vdW  Elec       q    Type
REMARK                         _______ _______ _______ _____ _____    ______ ____
ROOT
ATOM      1  C1*   C A   1       8.134  -1.569  23.834  0.00  0.00    +0.255 C 
ATOM      2  C2*   C A   1       9.668  -1.406  23.769  0.00  0.00    +0.195 C 
ATOM      3  C3*   C A   1       9.915  -0.576  22.509  0.00  0.00    +0.178 C 
ATOM      4  C4*   C A   1       8.519  -0.161  22.040  0.00  0.00    +0.177 C 
ATOM      5  O4*   C A   1       7.609  -0.440  23.105  0.00  0.00    -0.346 OA
ENDROOT
BRANCH   1  12
ATOM      6  N4    C A   1       6.224  -6.380  21.890  0.00  0.00    -0.343 N 
ATOM      7  H41   C A   1       5.284  -6.427  21.522  0.00  0.00    +0.144 HD
ATOM      8  H42   C A   1       6.469  -7.157  22.497  0.00  0.00    +0.144 HD
ATOM      9  C4    C A   1       6.668  -5.179  22.366  0.00  0.00    +0.123 A 
ATOM     10  C5    C A   1       6.097  -3.935  21.822  0.00  0.00    +0.061 A 
ATOM     11  C6    C A   1       6.564  -2.803  22.342  0.00  0.00    +0.096 A 
ATOM     12  N1    C A   1       7.553  -2.803  23.304  0.00  0.00    -0.270 N 
ATOM     13  C2    C A   1       8.074  -4.012  23.793  0.00  0.00    +0.352 A 
ATOM     14  O2    C A   1       8.965  -4.030  24.638  0.00  0.00    -0.244 OA
ATOM     15  N3    C A   1       7.574  -5.194  23.289  0.00  0.00    -0.178 NA
ENDBRANCH   1  12
BRANCH   2  16
ATOM     16  O2*   C A   1      10.152  -0.675  24.915  0.00  0.00    -0.385 OA
ATOM     17  H2*   C A   1      11.123  -0.767  24.947  0.00  0.00    +0.210 HD
ENDBRANCH   2  16
BRANCH   3  18
ATOM     18  O3*   C A   1      10.567  -1.343  21.493  0.00  0.00    -0.386 OA
ATOM     19  H3*   C A   1      11.096  -0.706  20.976  0.00  0.00    +0.210 HD
ENDBRANCH   3  18
BRANCH   4  20
ATOM     20  C5*   C A   1       8.463   1.312  21.643  0.00  0.00    +0.190 C 
BRANCH  20  21
ATOM     21  O5*   C A   1       9.780   1.808  21.422  0.00  0.00    -0.392 OA
ATOM     22  H5*   C A   1      10.221   1.846  22.290  0.00  0.00    +0.210 HD
ENDBRANCH  20  21
ENDBRANCH   4  20
TORSDOF 5
ENDMDL
MODEL 9
REMARK VINA RESULT:      -5.6      2.164      3.490
REMARK  Name = 
REMARK  5 active torsions:
REMARK  status: ('A' for Active; 'I' for Inactive)
REMARK    1  A    between atoms: N1_6  and  C1*_9
REMARK    2  A    between atoms: C4*_12  and  C5*_14
REMARK    3  A    between atoms: C5*_14  and  O5*_15
REMARK    4  A    between atoms: C3*_16  and  O3*_18
REMARK    5  A    between atoms: C2*_19  and  O2*_21
REMARK                            x       y       z     vdW  Elec       q    Type
REMARK                         _______ _______ _______ _____ _____    ______ ____
ROOT
ATOM      1  C1*   C A   1       7.719  -1.841  24.746  0.00  0.00    +0.255 C 
ATOM      2  C2*   C A   1       6.885  -2.968  24.098  0.00  0.00    +0.195 C 
ATOM      3  C3*   C A   1       7.823  -4.174  24.067  0.00  0.00    +0.178 C 
ATOM      4  C4*   C A   1       9.054  -3.726  24.859  0.00  0.00    +0.177 C 
ATOM      5  O4*   C A   1       8.706  -2.524  25.547  0.00  0.00    -0.346 OA
ENDROOT
BRANCH   1  12
ATOM      6  N4    C A   1      10.110   2.013  21.584  0.00  0.00    -0.343 N 
ATOM      7  H41   C A   1      10.660   1.727  20.786  0.00  0.00    +0.144 HD
ATOM      8  H42   C A   1      10.541   2.744  22.141  0.00  0.00    +0.144 HD
ATOM      9  C4    C A   1       9.534   1.039  22.348  0.00  0.00    +0.123 A 
ATOM     10  C5    C A   1       9.197  -0.255  21.730  0.00  0.00    +0.061 A 
ATOM     11  C6    C A   1       8.653  -1.162  22.536  0.00  0.00    +0.096 A 
ATOM     12  N1    C A   1       8.386  -0.885  23.861  0.00  0.00    -0.270 N 
ATOM     13  C2    C A   1       8.719   0.363  24.411  0.00  0.00    +0.352 A 
ATOM     14  O2    C A   1       8.475   0.632  25.584  0.00  0.00    -0.244 OA
ATOM     15  N3    C A   1       9.316   1.301  23.596  0.00  0.00    -0.178 NA
ENDBRANCH   1  12
BRANCH   2  16
ATOM     16  O2*   C A   1       5.737  -3.285  24.912  0.00  0.00    -0.385 OA
ATOM     17  H2*   C A   1       4.959  -3.351  24.328  0.00  0.00    +0.210 HD
ENDBRANCH   2  16
BRANCH   3  18
ATOM     18  O3*   C A   1       8.198  -4.516  22.730  0.00  0.00    -0.386 OA
ATOM     19  H3*   C A   1       8.174  -3.682  22.223  0.00  0.00    +0.210 HD
ENDBRANCH   3  18
BRANCH   4  20
ATOM     20  C5*   C A   1       9.527  -4.799  25.837  0.00  0.00    +0.190 C 
BRANCH  20  21
ATOM     21  O5*   C A   1       9.901  -5.976  25.126  0.00  0.00    -0.392 OA
ATOM     22  H5*   C A   1       9.866  -5.760  24.176  0.00  0.00    +0.210 HD
ENDBRANCH  20  21
ENDBRANCH   4  20
TORSDOF 5
ENDMDL
