MODEL 1
REMARK VINA RESULT:      -6.9      0.000      0.000
REMARK  Name = 
REMARK  7 active torsions:
REMARK  status: ('A' for Active; 'I' for Inactive)
REMARK    1  A    between atoms: C_1  and  N_2
REMARK    2  A    between atoms: C_4  and  C_18
REMARK    3  A    between atoms: C_6  and  N_7
REMARK    4  A    between atoms: N_10  and  C_11
REMARK    5  A    between atoms: C_18  and  C_19
REMARK    6  A    between atoms: C_18  and  C_20
REMARK    7  A    between atoms: C_18  and  C_21
REMARK                            x       y       z     vdW  Elec       q    Type
REMARK                         _______ _______ _______ _____ _____    ______ ____
ROOT
ATOM      1  N   UNL     1       8.312  -4.294  23.368  0.00  0.00    -0.254 N 
ATOM      2  H   UNL     1       9.140  -4.827  23.153  0.00  0.00    +0.158 HD
ATOM      3  C   UNL     1       8.331  -2.861  23.355  0.00  0.00    +0.309 C 
ATOM      4  N   UNL     1       9.587  -2.322  23.298  0.00  0.00    -0.269 N 
ATOM      5  H   UNL     1      10.393  -2.927  23.234  0.00  0.00    +0.156 HD
ATOM      6  O   UNL     1       7.273  -2.255  23.358  0.00  0.00    -0.252 OA
ENDROOT
BRANCH   4   7
ATOM      7  C   UNL     1       9.839  -0.917  23.292  0.00  0.00    +0.035 A 
ATOM      8  C   UNL     1      10.201  -0.289  24.491  0.00  0.00    +0.025 A 
ATOM      9  C   UNL     1      10.496   1.083  24.516  0.00  0.00    +0.022 A 
ATOM     10  C   UNL     1      10.423   1.837  23.347  0.00  0.00    +0.041 A 
ATOM     11 CL   UNL     1      10.803   3.516  23.365  0.00  0.00    -0.084 Cl
ATOM     12  C   UNL     1      10.045   1.239  22.157  0.00  0.00    +0.022 A 
ATOM     13  C   UNL     1       9.751  -0.126  22.135  0.00  0.00    +0.025 A 
ENDBRANCH   4   7
BRANCH   1  16
ATOM     14  C   UNL     1       6.391  -5.567  21.240  0.00  0.00    +0.174 C 
ATOM     15  N   UNL     1       6.255  -5.550  22.676  0.00  0.00    -0.253 N 
ATOM     16  C   UNL     1       7.102  -4.969  23.589  0.00  0.00    +0.124 A 
ATOM     17  C   UNL     1       6.502  -5.202  24.807  0.00  0.00    +0.069 A 
ATOM     18  C   UNL     1       5.279  -5.857  24.542  0.00  0.00    +0.070 A 
ATOM     19  N   UNL     1       5.139  -6.074  23.229  0.00  0.00    -0.174 NA
BRANCH  18  20
ATOM     20  C   UNL     1       4.252  -6.287  25.582  0.00  0.00    +0.006 C 
ATOM     21  C   UNL     1       3.409  -7.465  25.045  0.00  0.00    +0.017 C 
ATOM     22  C   UNL     1       3.301  -5.108  25.880  0.00  0.00    +0.017 C 
ATOM     23  C   UNL     1       4.904  -6.731  26.903  0.00  0.00    +0.017 C 
ENDBRANCH  18  20
ENDBRANCH   1  16
TORSDOF 3
ENDMDL
MODEL 2
REMARK VINA RESULT:      -6.7      1.365      2.229
REMARK  Name = 
REMARK  7 active torsions:
REMARK  status: ('A' for Active; 'I' for Inactive)
REMARK    1  A    between atoms: C_1  and  N_2
REMARK    2  A    between atoms: C_4  and  C_18
REMARK    3  A    between atoms: C_6  and  N_7
REMARK    4  A    between atoms: N_10  and  C_11
REMARK    5  A    between atoms: C_18  and  C_19
REMARK    6  A    between atoms: C_18  and  C_20
REMARK    7  A    between atoms: C_18  and  C_21
REMARK                            x       y       z     vdW  Elec       q    Type
REMARK                         _______ _______ _______ _____ _____    ______ ____
ROOT
ATOM      1  N   UNL     1       8.205  -3.741  23.484  0.00  0.00    -0.254 N 
ATOM      2  H   UNL     1       8.468  -4.156  22.604  0.00  0.00    +0.158 HD
ATOM      3  C   UNL     1       8.508  -2.371  23.775  0.00  0.00    +0.309 C 
ATOM      4  N   UNL     1       9.390  -1.798  22.898  0.00  0.00    -0.269 N 
ATOM      5  H   UNL     1       9.735  -2.328  22.112  0.00  0.00    +0.156 HD
ATOM      6  O   UNL     1       7.955  -1.829  24.716  0.00  0.00    -0.252 OA
ENDROOT
BRANCH   4   7
ATOM      7  C   UNL     1       9.842  -0.449  23.010  0.00  0.00    +0.035 A 
ATOM      8  C   UNL     1       9.610   0.432  21.945  0.00  0.00    +0.025 A 
ATOM      9  C   UNL     1      10.004   1.777  22.034  0.00  0.00    +0.022 A 
ATOM     10  C   UNL     1      10.639   2.246  23.182  0.00  0.00    +0.041 A 
ATOM     11 CL   UNL     1      11.107   3.898  23.308  0.00  0.00    -0.084 Cl
ATOM     12  C   UNL     1      10.898   1.385  24.235  0.00  0.00    +0.022 A 
ATOM     13  C   UNL     1      10.506   0.048  24.143  0.00  0.00    +0.025 A 
ENDBRANCH   4   7
BRANCH   1  16
ATOM     14  C   UNL     1       9.183  -5.182  26.092  0.00  0.00    +0.174 C 
ATOM     15  N   UNL     1       7.848  -5.115  25.551  0.00  0.00    -0.253 N 
ATOM     16  C   UNL     1       7.446  -4.491  24.394  0.00  0.00    +0.124 A 
ATOM     17  C   UNL     1       6.096  -4.756  24.316  0.00  0.00    +0.069 A 
ATOM     18  C   UNL     1       5.779  -5.592  25.409  0.00  0.00    +0.070 A 
ATOM     19  N   UNL     1       6.861  -5.802  26.168  0.00  0.00    -0.174 NA
BRANCH  18  20
ATOM     20  C   UNL     1       4.407  -6.176  25.719  0.00  0.00    +0.006 C 
ATOM     21  C   UNL     1       4.409  -6.833  27.118  0.00  0.00    +0.017 C 
ATOM     22  C   UNL     1       4.062  -7.260  24.676  0.00  0.00    +0.017 C 
ATOM     23  C   UNL     1       3.297  -5.110  25.696  0.00  0.00    +0.017 C 
ENDBRANCH  18  20
ENDBRANCH   1  16
TORSDOF 3
ENDMDL
MODEL 3
REMARK VINA RESULT:      -6.2      3.863      8.558
REMARK  Name = 
REMARK  7 active torsions:
REMARK  status: ('A' for Active; 'I' for Inactive)
REMARK    1  A    between atoms: C_1  and  N_2
REMARK    2  A    between atoms: C_4  and  C_18
REMARK    3  A    between atoms: C_6  and  N_7
REMARK    4  A    between atoms: N_10  and  C_11
REMARK    5  A    between atoms: C_18  and  C_19
REMARK    6  A    between atoms: C_18  and  C_20
REMARK    7  A    between atoms: C_18  and  C_21
REMARK                            x       y       z     vdW  Elec       q    Type
REMARK                         _______ _______ _______ _____ _____    ______ ____
ROOT
ATOM      1  N   UNL     1       8.890   0.110  22.183  0.00  0.00    -0.254 N 
ATOM      2  H   UNL     1       9.412  -0.110  21.350  0.00  0.00    +0.158 HD
ATOM      3  C   UNL     1       8.087  -0.881  22.837  0.00  0.00    +0.309 C 
ATOM      4  N   UNL     1       7.894  -2.016  22.097  0.00  0.00    -0.269 N 
ATOM      5  H   UNL     1       8.333  -2.110  21.193  0.00  0.00    +0.156 HD
ATOM      6  O   UNL     1       7.685  -0.666  23.967  0.00  0.00    -0.252 OA
ENDROOT
BRANCH   4   7
ATOM      7  C   UNL     1       7.114  -3.123  22.548  0.00  0.00    +0.035 A 
ATOM      8  C   UNL     1       7.754  -4.171  23.222  0.00  0.00    +0.025 A 
ATOM      9  C   UNL     1       7.015  -5.257  23.717  0.00  0.00    +0.022 A 
ATOM     10  C   UNL     1       5.635  -5.308  23.533  0.00  0.00    +0.041 A 
ATOM     11 CL   UNL     1       4.718  -6.626  24.153  0.00  0.00    -0.084 Cl
ATOM     12  C   UNL     1       4.988  -4.293  22.849  0.00  0.00    +0.022 A 
ATOM     13  C   UNL     1       5.726  -3.214  22.357  0.00  0.00    +0.025 A 
ENDBRANCH   4   7
BRANCH   1  16
ATOM     14  C   UNL     1      10.931   1.022  24.382  0.00  0.00    +0.174 C 
ATOM     15  N   UNL     1       9.926   1.808  23.711  0.00  0.00    -0.253 N 
ATOM     16  C   UNL     1       9.028   1.381  22.761  0.00  0.00    +0.124 A 
ATOM     17  C   UNL     1       8.274   2.498  22.478  0.00  0.00    +0.069 A 
ATOM     18  C   UNL     1       8.725   3.525  23.338  0.00  0.00    +0.070 A 
ATOM     19  N   UNL     1       9.746   3.093  24.087  0.00  0.00    -0.174 NA
BRANCH  18  20
ATOM     20  C   UNL     1       8.162   4.938  23.413  0.00  0.00    +0.006 C 
ATOM     21  C   UNL     1       9.313   5.969  23.458  0.00  0.00    +0.017 C 
ATOM     22  C   UNL     1       7.327   5.089  24.703  0.00  0.00    +0.017 C 
ATOM     23  C   UNL     1       7.265   5.278  22.210  0.00  0.00    +0.017 C 
ENDBRANCH  18  20
ENDBRANCH   1  16
TORSDOF 3
ENDMDL
MODEL 4
REMARK VINA RESULT:      -6.2      1.670      2.173
REMARK  Name = 
REMARK  7 active torsions:
REMARK  status: ('A' for Active; 'I' for Inactive)
REMARK    1  A    between atoms: C_1  and  N_2
REMARK    2  A    between atoms: C_4  and  C_18
REMARK    3  A    between atoms: C_6  and  N_7
REMARK    4  A    between atoms: N_10  and  C_11
REMARK    5  A    between atoms: C_18  and  C_19
REMARK    6  A    between atoms: C_18  and  C_20
REMARK    7  A    between atoms: C_18  and  C_21
REMARK                            x       y       z     vdW  Elec       q    Type
REMARK                         _______ _______ _______ _____ _____    ______ ____
ROOT
ATOM      1  N   UNL     1       5.704  -2.087  22.991  0.00  0.00    -0.254 N 
ATOM      2  H   UNL     1       4.961  -1.676  22.449  0.00  0.00    +0.158 HD
ATOM      3  C   UNL     1       6.859  -1.322  23.361  0.00  0.00    +0.309 C 
ATOM      4  N   UNL     1       6.971  -0.129  22.699  0.00  0.00    -0.269 N 
ATOM      5  H   UNL     1       6.255   0.156  22.048  0.00  0.00    +0.156 HD
ATOM      6  O   UNL     1       7.604  -1.754  24.224  0.00  0.00    -0.252 OA
ENDROOT
BRANCH   4   7
ATOM      7  C   UNL     1       8.052   0.781  22.901  0.00  0.00    +0.035 A 
ATOM      8  C   UNL     1       9.091   0.817  21.961  0.00  0.00    +0.025 A 
ATOM      9  C   UNL     1      10.149   1.728  22.103  0.00  0.00    +0.022 A 
ATOM     10  C   UNL     1      10.182   2.601  23.189  0.00  0.00    +0.041 A 
ATOM     11 CL   UNL     1      11.466   3.735  23.360  0.00  0.00    -0.084 Cl
ATOM     12  C   UNL     1       9.176   2.565  24.139  0.00  0.00    +0.022 A 
ATOM     13  C   UNL     1       8.124   1.658  23.995  0.00  0.00    +0.025 A 
ENDBRANCH   4   7
BRANCH   1  16
ATOM     14  C   UNL     1       6.992  -4.715  21.863  0.00  0.00    +0.174 C 
ATOM     15  N   UNL     1       6.126  -4.559  23.006  0.00  0.00    -0.253 N 
ATOM     16  C   UNL     1       5.558  -3.396  23.471  0.00  0.00    +0.124 A 
ATOM     17  C   UNL     1       4.798  -3.796  24.549  0.00  0.00    +0.069 A 
ATOM     18  C   UNL     1       4.902  -5.203  24.623  0.00  0.00    +0.070 A 
ATOM     19  N   UNL     1       5.727  -5.663  23.674  0.00  0.00    -0.174 NA
BRANCH  18  20
ATOM     20  C   UNL     1       4.202  -6.098  25.637  0.00  0.00    +0.006 C 
ATOM     21  C   UNL     1       2.982  -5.368  26.242  0.00  0.00    +0.017 C 
ATOM     22  C   UNL     1       5.180  -6.437  26.783  0.00  0.00    +0.017 C 
ATOM     23  C   UNL     1       3.708  -7.416  25.015  0.00  0.00    +0.017 C 
ENDBRANCH  18  20
ENDBRANCH   1  16
TORSDOF 3
ENDMDL
MODEL 5
REMARK VINA RESULT:      -6.1      2.514      3.794
REMARK  Name = 
REMARK  7 active torsions:
REMARK  status: ('A' for Active; 'I' for Inactive)
REMARK    1  A    between atoms: C_1  and  N_2
REMARK    2  A    between atoms: C_4  and  C_18
REMARK    3  A    between atoms: C_6  and  N_7
REMARK    4  A    between atoms: N_10  and  C_11
REMARK    5  A    between atoms: C_18  and  C_19
REMARK    6  A    between atoms: C_18  and  C_20
REMARK    7  A    between atoms: C_18  and  C_21
REMARK                            x       y       z     vdW  Elec       q    Type
REMARK                         _______ _______ _______ _____ _____    ______ ____
ROOT
ATOM      1  N   UNL     1       8.270  -0.940  22.038  0.00  0.00    -0.254 N 
ATOM      2  H   UNL     1       8.635  -0.976  21.100  0.00  0.00    +0.158 HD
ATOM      3  C   UNL     1       8.044   0.313  22.696  0.00  0.00    +0.309 C 
ATOM      4  N   UNL     1       8.608   1.385  22.059  0.00  0.00    -0.269 N 
ATOM      5  H   UNL     1       9.095   1.253  21.185  0.00  0.00    +0.156 HD
ATOM      6  O   UNL     1       7.366   0.337  23.708  0.00  0.00    -0.252 OA
ENDROOT
BRANCH   4   7
ATOM      7  C   UNL     1       8.520   2.723  22.547  0.00  0.00    +0.035 A 
ATOM      8  C   UNL     1       9.525   3.199  23.400  0.00  0.00    +0.025 A 
ATOM      9  C   UNL     1       9.495   4.523  23.868  0.00  0.00    +0.022 A 
ATOM     10  C   UNL     1       8.458   5.375  23.494  0.00  0.00    +0.041 A 
ATOM     11 CL   UNL     1       8.425   7.005  24.047  0.00  0.00    -0.084 Cl
ATOM     12  C   UNL     1       7.445   4.916  22.670  0.00  0.00    +0.022 A 
ATOM     13  C   UNL     1       7.476   3.599  22.207  0.00  0.00    +0.025 A 
ENDBRANCH   4   7
BRANCH   1  16
ATOM     14  C   UNL     1       9.937  -2.688  24.039  0.00  0.00    +0.174 C 
ATOM     15  N   UNL     1       8.593  -2.905  23.563  0.00  0.00    -0.253 N 
ATOM     16  C   UNL     1       7.888  -2.132  22.670  0.00  0.00    +0.124 A 
ATOM     17  C   UNL     1       6.685  -2.790  22.527  0.00  0.00    +0.069 A 
ATOM     18  C   UNL     1       6.769  -3.969  23.300  0.00  0.00    +0.070 A 
ATOM     19  N   UNL     1       7.943  -4.028  23.940  0.00  0.00    -0.174 NA
BRANCH  18  20
ATOM     20  C   UNL     1       5.687  -5.035  23.423  0.00  0.00    +0.006 C 
ATOM     21  C   UNL     1       5.747  -5.697  24.818  0.00  0.00    +0.017 C 
ATOM     22  C   UNL     1       5.921  -6.128  22.358  0.00  0.00    +0.017 C 
ATOM     23  C   UNL     1       4.273  -4.461  23.228  0.00  0.00    +0.017 C 
ENDBRANCH  18  20
ENDBRANCH   1  16
TORSDOF 3
ENDMDL
MODEL 6
REMARK VINA RESULT:      -6.1      3.694      8.356
REMARK  Name = 
REMARK  7 active torsions:
REMARK  status: ('A' for Active; 'I' for Inactive)
REMARK    1  A    between atoms: C_1  and  N_2
REMARK    2  A    between atoms: C_4  and  C_18
REMARK    3  A    between atoms: C_6  and  N_7
REMARK    4  A    between atoms: N_10  and  C_11
REMARK    5  A    between atoms: C_18  and  C_19
REMARK    6  A    between atoms: C_18  and  C_20
REMARK    7  A    between atoms: C_18  and  C_21
REMARK                            x       y       z     vdW  Elec       q    Type
REMARK                         _______ _______ _______ _____ _____    ______ ____
ROOT
ATOM      1  N   UNL     1       9.687  -0.424  24.494  0.00  0.00    -0.254 N 
ATOM      2  H   UNL     1      10.622  -0.671  24.776  0.00  0.00    +0.158 HD
ATOM      3  C   UNL     1       8.586  -1.310  24.730  0.00  0.00    +0.309 C 
ATOM      4  N   UNL     1       8.958  -2.573  25.103  0.00  0.00    -0.269 N 
ATOM      5  H   UNL     1       9.935  -2.796  25.225  0.00  0.00    +0.156 HD
ATOM      6  O   UNL     1       7.449  -0.884  24.622  0.00  0.00    -0.252 OA
ENDROOT
BRANCH   4   7
ATOM      7  C   UNL     1       8.025  -3.619  25.373  0.00  0.00    +0.035 A 
ATOM      8  C   UNL     1       7.785  -3.985  26.704  0.00  0.00    +0.025 A 
ATOM      9  C   UNL     1       6.843  -4.981  27.010  0.00  0.00    +0.022 A 
ATOM     10  C   UNL     1       6.146  -5.623  25.989  0.00  0.00    +0.041 A 
ATOM     11 CL   UNL     1       4.976  -6.832  26.357  0.00  0.00    -0.084 Cl
ATOM     12  C   UNL     1       6.386  -5.292  24.667  0.00  0.00    +0.022 A 
ATOM     13  C   UNL     1       7.323  -4.301  24.366  0.00  0.00    +0.025 A 
ENDBRANCH   4   7
BRANCH   1  16
ATOM     14  C   UNL     1       9.401   0.360  21.470  0.00  0.00    +0.174 C 
ATOM     15  N   UNL     1       9.302   1.210  22.631  0.00  0.00    -0.253 N 
ATOM     16  C   UNL     1       9.450   0.846  23.949  0.00  0.00    +0.124 A 
ATOM     17  C   UNL     1       9.302   2.025  24.647  0.00  0.00    +0.069 A 
ATOM     18  C   UNL     1       9.141   3.050  23.688  0.00  0.00    +0.070 A 
ATOM     19  N   UNL     1       9.135   2.539  22.451  0.00  0.00    -0.174 NA
BRANCH  18  20
ATOM     20  C   UNL     1       8.978   4.535  23.988  0.00  0.00    +0.006 C 
ATOM     21  C   UNL     1       8.452   4.735  25.427  0.00  0.00    +0.017 C 
ATOM     22  C   UNL     1       7.952   5.145  23.009  0.00  0.00    +0.017 C 
ATOM     23  C   UNL     1      10.300   5.310  23.852  0.00  0.00    +0.017 C 
ENDBRANCH  18  20
ENDBRANCH   1  16
TORSDOF 3
ENDMDL
MODEL 7
REMARK VINA RESULT:      -6.0      3.644      8.157
REMARK  Name = 
REMARK  7 active torsions:
REMARK  status: ('A' for Active; 'I' for Inactive)
REMARK    1  A    between atoms: C_1  and  N_2
REMARK    2  A    between atoms: C_4  and  C_18
REMARK    3  A    between atoms: C_6  and  N_7
REMARK    4  A    between atoms: N_10  and  C_11
REMARK    5  A    between atoms: C_18  and  C_19
REMARK    6  A    between atoms: C_18  and  C_20
REMARK    7  A    between atoms: C_18  and  C_21
REMARK                            x       y       z     vdW  Elec       q    Type
REMARK                         _______ _______ _______ _____ _____    ______ ____
ROOT
ATOM      1  N   UNL     1       7.351  -4.185  22.730  0.00  0.00    -0.254 N 
ATOM      2  H   UNL     1       7.585  -4.709  21.902  0.00  0.00    +0.158 HD
ATOM      3  C   UNL     1       6.220  -4.542  23.535  0.00  0.00    +0.309 C 
ATOM      4  N   UNL     1       5.376  -5.441  22.940  0.00  0.00    -0.269 N 
ATOM      5  H   UNL     1       5.600  -5.818  22.031  0.00  0.00    +0.156 HD
ATOM      6  O   UNL     1       6.115  -4.068  24.653  0.00  0.00    -0.252 OA
ENDROOT
BRANCH   4   7
ATOM      7  C   UNL     1       4.181  -5.921  23.556  0.00  0.00    +0.035 A 
ATOM      8  C   UNL     1       4.257  -7.032  24.406  0.00  0.00    +0.025 A 
ATOM      9  C   UNL     1       3.110  -7.508  25.061  0.00  0.00    +0.022 A 
ATOM     10  C   UNL     1       1.880  -6.883  24.864  0.00  0.00    +0.041 A 
ATOM     11 CL   UNL     1       0.473  -7.447  25.679  0.00  0.00    -0.084 Cl
ATOM     12  C   UNL     1       1.781  -5.798  24.010  0.00  0.00    +0.022 A 
ATOM     13  C   UNL     1       2.924  -5.327  23.359  0.00  0.00    +0.025 A 
ENDBRANCH   4   7
BRANCH   1  16
ATOM     14  C   UNL     1       9.646  -4.322  24.864  0.00  0.00    +0.174 C 
ATOM     15  N   UNL     1       9.226  -3.194  24.069  0.00  0.00    -0.253 N 
ATOM     16  C   UNL     1       8.203  -3.154  23.151  0.00  0.00    +0.124 A 
ATOM     17  C   UNL     1       8.193  -1.849  22.710  0.00  0.00    +0.069 A 
ATOM     18  C   UNL     1       9.178  -1.158  23.450  0.00  0.00    +0.070 A 
ATOM     19  N   UNL     1       9.814  -1.996  24.279  0.00  0.00    -0.174 NA
BRANCH  18  20
ATOM     20  C   UNL     1       9.509   0.324  23.333  0.00  0.00    +0.006 C 
ATOM     21  C   UNL     1       8.302   1.177  23.785  0.00  0.00    +0.017 C 
ATOM     22  C   UNL     1       9.818   0.666  21.860  0.00  0.00    +0.017 C 
ATOM     23  C   UNL     1      10.723   0.724  24.190  0.00  0.00    +0.017 C 
ENDBRANCH  18  20
ENDBRANCH   1  16
TORSDOF 3
ENDMDL
MODEL 8
REMARK VINA RESULT:      -6.0      2.810      4.130
REMARK  Name = 
REMARK  7 active torsions:
REMARK  status: ('A' for Active; 'I' for Inactive)
REMARK    1  A    between atoms: C_1  and  N_2
REMARK    2  A    between atoms: C_4  and  C_18
REMARK    3  A    between atoms: C_6  and  N_7
REMARK    4  A    between atoms: N_10  and  C_11
REMARK    5  A    between atoms: C_18  and  C_19
REMARK    6  A    between atoms: C_18  and  C_20
REMARK    7  A    between atoms: C_18  and  C_21
REMARK                            x       y       z     vdW  Elec       q    Type
REMARK                         _______ _______ _______ _____ _____    ______ ____
ROOT
ATOM      1  N   UNL     1       6.725   0.201  22.971  0.00  0.00    -0.254 N 
ATOM      2  H   UNL     1       6.045   0.585  22.335  0.00  0.00    +0.158 HD
ATOM      3  C   UNL     1       7.815   0.994  23.457  0.00  0.00    +0.309 C 
ATOM      4  N   UNL     1       7.985   2.176  22.787  0.00  0.00    -0.269 N 
ATOM      5  H   UNL     1       7.346   2.433  22.049  0.00  0.00    +0.156 HD
ATOM      6  O   UNL     1       8.459   0.595  24.412  0.00  0.00    -0.252 OA
ENDROOT
BRANCH   4   7
ATOM      7  C   UNL     1       9.018   3.111  23.094  0.00  0.00    +0.035 A 
ATOM      8  C   UNL     1       8.663   4.379  23.572  0.00  0.00    +0.025 A 
ATOM      9  C   UNL     1       9.652   5.311  23.924  0.00  0.00    +0.022 A 
ATOM     10  C   UNL     1      11.001   4.986  23.792  0.00  0.00    +0.041 A 
ATOM     11 CL   UNL     1      12.220   6.115  24.240  0.00  0.00    -0.084 Cl
ATOM     12  C   UNL     1      11.371   3.746  23.301  0.00  0.00    +0.022 A 
ATOM     13  C   UNL     1      10.385   2.821  22.951  0.00  0.00    +0.025 A 
ENDBRANCH   4   7
BRANCH   1  16
ATOM     14  C   UNL     1       5.303  -0.691  25.620  0.00  0.00    +0.174 C 
ATOM     15  N   UNL     1       5.910  -1.517  24.606  0.00  0.00    -0.253 N 
ATOM     16  C   UNL     1       6.545  -1.101  23.459  0.00  0.00    +0.124 A 
ATOM     17  C   UNL     1       6.974  -2.269  22.866  0.00  0.00    +0.069 A 
ATOM     18  C   UNL     1       6.627  -3.324  23.739  0.00  0.00    +0.070 A 
ATOM     19  N   UNL     1       5.966  -2.853  24.803  0.00  0.00    -0.174 NA
BRANCH  18  20
ATOM     20  C   UNL     1       6.930  -4.800  23.521  0.00  0.00    +0.006 C 
ATOM     21  C   UNL     1       7.032  -5.107  22.010  0.00  0.00    +0.017 C 
ATOM     22  C   UNL     1       5.785  -5.651  24.111  0.00  0.00    +0.017 C 
ATOM     23  C   UNL     1       8.249  -5.233  24.185  0.00  0.00    +0.017 C 
ENDBRANCH  18  20
ENDBRANCH   1  16
TORSDOF 3
ENDMDL
MODEL 9
REMARK VINA RESULT:      -5.9      1.572      2.164
REMARK  Name = 
REMARK  7 active torsions:
REMARK  status: ('A' for Active; 'I' for Inactive)
REMARK    1  A    between atoms: C_1  and  N_2
REMARK    2  A    between atoms: C_4  and  C_18
REMARK    3  A    between atoms: C_6  and  N_7
REMARK    4  A    between atoms: N_10  and  C_11
REMARK    5  A    between atoms: C_18  and  C_19
REMARK    6  A    between atoms: C_18  and  C_20
REMARK    7  A    between atoms: C_18  and  C_21
REMARK                            x       y       z     vdW  Elec       q    Type
REMARK                         _______ _______ _______ _____ _____    ______ ____
ROOT
ATOM      1  N   UNL     1       7.696  -4.959  24.915  0.00  0.00    -0.254 N 
ATOM      2  H   UNL     1       8.468  -5.603  24.857  0.00  0.00    +0.158 HD
ATOM      3  C   UNL     1       7.814  -3.617  24.426  0.00  0.00    +0.309 C 
ATOM      4  N   UNL     1       9.099  -3.239  24.145  0.00  0.00    -0.269 N 
ATOM      5  H   UNL     1       9.854  -3.899  24.254  0.00  0.00    +0.156 HD
ATOM      6  O   UNL     1       6.804  -2.953  24.268  0.00  0.00    -0.252 OA
ENDROOT
BRANCH   4   7
ATOM      7  C   UNL     1       9.448  -1.941  23.663  0.00  0.00    +0.035 A 
ATOM      8  C   UNL     1       9.401  -1.697  22.284  0.00  0.00    +0.025 A 
ATOM      9  C   UNL     1       9.697  -0.422  21.776  0.00  0.00    +0.022 A 
ATOM     10  C   UNL     1      10.051   0.612  22.640  0.00  0.00    +0.041 A 
ATOM     11 CL   UNL     1      10.396   2.183  22.027  0.00  0.00    -0.084 Cl
ATOM     12  C   UNL     1      10.125   0.384  24.003  0.00  0.00    +0.022 A 
ATOM     13  C   UNL     1       9.830  -0.885  24.506  0.00  0.00    +0.025 A 
ENDBRANCH   4   7
BRANCH   1  16
ATOM     14  C   UNL     1       5.311  -6.162  23.271  0.00  0.00    +0.174 C 
ATOM     15  N   UNL     1       5.408  -5.962  24.696  0.00  0.00    -0.253 N 
ATOM     16  C   UNL     1       6.459  -5.415  25.393  0.00  0.00    +0.124 A 
ATOM     17  C   UNL     1       6.035  -5.415  26.704  0.00  0.00    +0.069 A 
ATOM     18  C   UNL     1       4.710  -5.905  26.706  0.00  0.00    +0.070 A 
ATOM     19  N   UNL     1       4.335  -6.246  25.467  0.00  0.00    -0.174 NA
BRANCH  18  20
ATOM     20  C   UNL     1       3.814  -6.054  27.928  0.00  0.00    +0.006 C 
ATOM     21  C   UNL     1       2.471  -6.706  27.530  0.00  0.00    +0.017 C 
ATOM     22  C   UNL     1       3.518  -4.659  28.520  0.00  0.00    +0.017 C 
ATOM     23  C   UNL     1       4.457  -6.921  29.025  0.00  0.00    +0.017 C 
ENDBRANCH  18  20
ENDBRANCH   1  16
TORSDOF 3
ENDMDL
