MODEL 1
REMARK VINA RESULT:      -7.7      0.000      0.000
REMARK  Name = 
REMARK  10 active torsions:
REMARK  status: ('A' for Active; 'I' for Inactive)
REMARK    1  A    between atoms: C_4  and  C_5
REMARK    2  A    between atoms: C_4  and  C_6
REMARK    3  A    between atoms: CA_7  and  C_38
REMARK    4  A    between atoms: CA_12  and  N_14
REMARK    5  A    between atoms: C_15  and  CA_17
REMARK    6  A    between atoms: CA_17  and  N_19
REMARK    7  A    between atoms: CA_17  and  C_32
REMARK    8  A    between atoms: N_25  and  C_26
REMARK    9  A    between atoms: C_26  and  C_27
REMARK   10  A    between atoms: C_38  and  O_39
REMARK                            x       y       z     vdW  Elec       q    Type
REMARK                         _______ _______ _______ _____ _____    ______ ____
ROOT
ATOM      1  CA  UNL     1       8.361  -2.925  24.395  0.00  0.00    +0.191 C 
ENDROOT
BRANCH   1   2
ATOM      2  N   UNL     1       8.074  -1.511  24.242  0.00  0.00    -0.284 N 
ATOM      3  H   UNL     1       7.261  -1.280  23.683  0.00  0.00    +0.151 HD
ATOM      4  C   UNL     1       8.981  -0.513  24.463  0.00  0.00    +0.310 C 
ATOM      5  N   UNL     1       8.512   0.763  24.168  0.00  0.00    -0.217 N 
ATOM      6  C   UNL     1       7.205   0.990  23.742  0.00  0.00    +0.309 C 
ATOM      7  O   UNL     1       6.261   0.240  23.985  0.00  0.00    -0.264 OA
ATOM      8  C   UNL     1       6.948   2.251  22.907  0.00  0.00    +0.302 C 
ATOM      9  O   UNL     1       5.951   2.299  22.198  0.00  0.00    -0.265 OA
ATOM     10  N   UNL     1       7.862   3.287  23.054  0.00  0.00    -0.293 N 
ATOM     11  C   UNL     1       9.256   2.960  23.312  0.00  0.00    +0.127 C 
ATOM     12  C   UNL     1       9.383   1.909  24.407  0.00  0.00    +0.137 C 
ATOM     13  O   UNL     1      10.111  -0.730  24.886  0.00  0.00    -0.252 OA
BRANCH  10  14
ATOM     14  C   UNL     1       7.485   4.618  22.603  0.00  0.00    +0.105 C 
ATOM     15  C   UNL     1       8.294   5.745  23.214  0.00  0.00    +0.024 C 
ENDBRANCH  10  14
ENDBRANCH   1   2
BRANCH   1  16
ATOM     16  C   UNL     1       7.638  -3.694  23.303  0.00  0.00    -0.018 A 
ATOM     17  C   UNL     1       7.790  -5.088  23.165  0.00  0.00    +0.006 A 
ATOM     18  C   UNL     1       7.076  -5.782  22.189  0.00  0.00    +0.000 A 
ATOM     19  C   UNL     1       6.208  -5.099  21.340  0.00  0.00    +0.000 A 
ATOM     20  C   UNL     1       6.054  -3.725  21.465  0.00  0.00    +0.000 A 
ATOM     21  C   UNL     1       6.759  -3.022  22.442  0.00  0.00    +0.006 A 
ENDBRANCH   1  16
BRANCH   1  24
ATOM     22  N   UNL     1       6.626  -3.528  26.097  0.00  0.00    -0.300 N 
ATOM     23  H   UNL     1       5.962  -3.115  25.444  0.00  0.00    +0.150 HD
ATOM     24  C   UNL     1       7.979  -3.428  25.813  0.00  0.00    +0.239 C 
ATOM     25  O   UNL     1       8.821  -3.764  26.648  0.00  0.00    -0.273 OA
BRANCH  22  27
ATOM     26  C   UNL     1       4.666  -4.115  27.681  0.00  0.00    +0.165 C 
ATOM     27  CA  UNL     1       6.190  -3.920  27.466  0.00  0.00    +0.190 C 
ATOM     28  C   UNL     1       6.287  -5.408  27.871  0.00  0.00    +0.240 C 
ATOM     29  O   UNL     1       7.096  -6.303  27.791  0.00  0.00    -0.273 OA
ATOM     30  N   UNL     1       4.967  -5.451  28.246  0.00  0.00    -0.271 N 
ATOM     31  CA  UNL     1       4.112  -6.564  27.791  0.00  0.00    +0.201 C 
ATOM     32  C   UNL     1       3.726  -6.273  26.322  0.00  0.00    +0.042 C 
ATOM     33  C   UNL     1       4.823  -6.720  25.335  0.00  0.00    +0.025 C 
ATOM     34  C   UNL     1       2.413  -6.903  25.845  0.00  0.00    +0.025 C 
ATOM     35  S   UNL     1       3.616  -4.430  26.204  0.00  0.00    -0.127 S 
BRANCH  31  36
ATOM     36  C   UNL     1       2.942  -6.695  28.783  0.00  0.00    +0.327 C 
ATOM     37  OXT UNL     1       2.191  -5.785  29.101  0.00  0.00    -0.249 OA
BRANCH  36  38
ATOM     38  O   UNL     1       2.729  -7.965  29.208  0.00  0.00    -0.479 OA
ATOM     39  H   UNL     1       1.879  -8.300  28.853  0.00  0.00    +0.295 HD
ENDBRANCH  36  38
ENDBRANCH  31  36
ENDBRANCH  22  27
ENDBRANCH   1  24
TORSDOF 7
ENDMDL
MODEL 2
REMARK VINA RESULT:      -7.3      3.328      4.859
REMARK  Name = 
REMARK  10 active torsions:
REMARK  status: ('A' for Active; 'I' for Inactive)
REMARK    1  A    between atoms: C_4  and  C_5
REMARK    2  A    between atoms: C_4  and  C_6
REMARK    3  A    between atoms: CA_7  and  C_38
REMARK    4  A    between atoms: CA_12  and  N_14
REMARK    5  A    between atoms: C_15  and  CA_17
REMARK    6  A    between atoms: CA_17  and  N_19
REMARK    7  A    between atoms: CA_17  and  C_32
REMARK    8  A    between atoms: N_25  and  C_26
REMARK    9  A    between atoms: C_26  and  C_27
REMARK   10  A    between atoms: C_38  and  O_39
REMARK                            x       y       z     vdW  Elec       q    Type
REMARK                         _______ _______ _______ _____ _____    ______ ____
ROOT
ATOM      1  CA  UNL     1       8.922  -0.998  24.874  0.00  0.00    +0.191 C 
ENDROOT
BRANCH   1   2
ATOM      2  N   UNL     1       7.683  -0.526  25.464  0.00  0.00    -0.284 N 
ATOM      3  H   UNL     1       7.012  -0.119  24.823  0.00  0.00    +0.151 HD
ATOM      4  C   UNL     1       7.516  -0.253  26.793  0.00  0.00    +0.310 C 
ATOM      5  N   UNL     1       6.270   0.273  27.119  0.00  0.00    -0.217 N 
ATOM      6  C   UNL     1       5.269   0.445  26.166  0.00  0.00    +0.309 C 
ATOM      7  O   UNL     1       5.193  -0.201  25.121  0.00  0.00    -0.264 OA
ATOM      8  C   UNL     1       4.210   1.518  26.447  0.00  0.00    +0.302 C 
ATOM      9  O   UNL     1       3.565   1.973  25.511  0.00  0.00    -0.265 OA
ATOM     10  N   UNL     1       4.025   1.872  27.778  0.00  0.00    -0.293 N 
ATOM     11  C   UNL     1       5.171   1.849  28.674  0.00  0.00    +0.127 C 
ATOM     12  C   UNL     1       5.969   0.562  28.516  0.00  0.00    +0.137 C 
ATOM     13  O   UNL     1       8.396  -0.459  27.623  0.00  0.00    -0.252 OA
BRANCH  10  14
ATOM     14  C   UNL     1       2.809   2.580  28.149  0.00  0.00    +0.105 C 
ATOM     15  C   UNL     1       2.887   3.322  29.467  0.00  0.00    +0.024 C 
ENDBRANCH  10  14
ENDBRANCH   1   2
BRANCH   1  16
ATOM     16  C   UNL     1       9.413   0.033  23.873  0.00  0.00    -0.018 A 
ATOM     17  C   UNL     1       9.071  -0.051  22.509  0.00  0.00    +0.006 A 
ATOM     18  C   UNL     1       9.488   0.934  21.616  0.00  0.00    +0.000 A 
ATOM     19  C   UNL     1      10.252   2.009  22.067  0.00  0.00    +0.000 A 
ATOM     20  C   UNL     1      10.597   2.098  23.409  0.00  0.00    +0.000 A 
ATOM     21  C   UNL     1      10.179   1.121  24.312  0.00  0.00    +0.006 A 
ENDBRANCH   1  16
BRANCH   1  24
ATOM     22  N   UNL     1       7.440  -2.814  23.994  0.00  0.00    -0.300 N 
ATOM     23  H   UNL     1       6.678  -2.275  24.400  0.00  0.00    +0.150 HD
ATOM     24  C   UNL     1       8.741  -2.398  24.230  0.00  0.00    +0.239 C 
ATOM     25  O   UNL     1       9.695  -3.107  23.900  0.00  0.00    -0.273 OA
BRANCH  22  27
ATOM     26  C   UNL     1       6.689  -5.245  24.472  0.00  0.00    +0.165 C 
ATOM     27  CA  UNL     1       7.192  -4.182  23.459  0.00  0.00    +0.190 C 
ATOM     28  C   UNL     1       5.856  -4.457  22.734  0.00  0.00    +0.240 C 
ATOM     29  O   UNL     1       5.171  -3.923  21.892  0.00  0.00    -0.273 OA
ATOM     30  N   UNL     1       5.572  -5.530  23.542  0.00  0.00    -0.271 N 
ATOM     31  CA  UNL     1       4.232  -5.660  24.145  0.00  0.00    +0.201 C 
ATOM     32  C   UNL     1       4.177  -4.690  25.348  0.00  0.00    +0.042 C 
ATOM     33  C   UNL     1       3.836  -3.250  24.916  0.00  0.00    +0.025 C 
ATOM     34  C   UNL     1       3.190  -5.068  26.458  0.00  0.00    +0.025 C 
ATOM     35  S   UNL     1       5.898  -4.655  26.025  0.00  0.00    -0.127 S 
BRANCH  31  36
ATOM     36  C   UNL     1       4.002  -7.148  24.466  0.00  0.00    +0.327 C 
ATOM     37  OXT UNL     1       4.461  -7.731  25.437  0.00  0.00    -0.249 OA
BRANCH  36  38
ATOM     38  O   UNL     1       3.131  -7.758  23.624  0.00  0.00    -0.479 OA
ATOM     39  H   UNL     1       2.227  -7.737  24.004  0.00  0.00    +0.295 HD
ENDBRANCH  36  38
ENDBRANCH  31  36
ENDBRANCH  22  27
ENDBRANCH   1  24
TORSDOF 7
ENDMDL
MODEL 3
REMARK VINA RESULT:      -7.0      2.925      9.338
REMARK  Name = 
REMARK  10 active torsions:
REMARK  status: ('A' for Active; 'I' for Inactive)
REMARK    1  A    between atoms: C_4  and  C_5
REMARK    2  A    between atoms: C_4  and  C_6
REMARK    3  A    between atoms: CA_7  and  C_38
REMARK    4  A    between atoms: CA_12  and  N_14
REMARK    5  A    between atoms: C_15  and  CA_17
REMARK    6  A    between atoms: CA_17  and  N_19
REMARK    7  A    between atoms: CA_17  and  C_32
REMARK    8  A    between atoms: N_25  and  C_26
REMARK    9  A    between atoms: C_26  and  C_27
REMARK   10  A    between atoms: C_38  and  O_39
REMARK                            x       y       z     vdW  Elec       q    Type
REMARK                         _______ _______ _______ _____ _____    ______ ____
ROOT
ATOM      1  CA  UNL     1       5.870  -2.730  24.009  0.00  0.00    +0.191 C 
ENDROOT
BRANCH   1   2
ATOM      2  N   UNL     1       4.720  -3.580  24.253  0.00  0.00    -0.284 N 
ATOM      3  H   UNL     1       4.438  -3.679  25.222  0.00  0.00    +0.151 HD
ATOM      4  C   UNL     1       4.247  -4.510  23.370  0.00  0.00    +0.310 C 
ATOM      5  N   UNL     1       3.189  -5.273  23.852  0.00  0.00    -0.217 N 
ATOM      6  C   UNL     1       2.632  -5.052  25.110  0.00  0.00    +0.309 C 
ATOM      7  O   UNL     1       2.684  -3.978  25.708  0.00  0.00    -0.264 OA
ATOM      8  C   UNL     1       1.924  -6.236  25.781  0.00  0.00    +0.302 C 
ATOM      9  O   UNL     1       1.771  -6.223  26.996  0.00  0.00    -0.265 OA
ATOM     10  N   UNL     1       1.459  -7.238  24.938  0.00  0.00    -0.293 N 
ATOM     11  C   UNL     1       2.210  -7.539  23.728  0.00  0.00    +0.127 C 
ATOM     12  C   UNL     1       2.579  -6.267  22.977  0.00  0.00    +0.137 C 
ATOM     13  O   UNL     1       4.721  -4.653  22.248  0.00  0.00    -0.252 OA
BRANCH  10  14
ATOM     14  C   UNL     1       0.470  -8.175  25.448  0.00  0.00    +0.105 C 
ATOM     15  C   UNL     1       0.843  -9.635  25.293  0.00  0.00    +0.024 C 
ENDBRANCH  10  14
ENDBRANCH   1   2
BRANCH   1  16
ATOM     16  C   UNL     1       7.097  -3.372  24.631  0.00  0.00    -0.018 A 
ATOM     17  C   UNL     1       6.986  -4.269  25.712  0.00  0.00    +0.006 A 
ATOM     18  C   UNL     1       8.119  -4.888  26.235  0.00  0.00    +0.000 A 
ATOM     19  C   UNL     1       9.375  -4.621  25.692  0.00  0.00    +0.000 A 
ATOM     20  C   UNL     1       9.496  -3.736  24.629  0.00  0.00    +0.000 A 
ATOM     21  C   UNL     1       8.367  -3.116  24.095  0.00  0.00    +0.006 A 
ENDBRANCH   1  16
BRANCH   1  24
ATOM     22  N   UNL     1       6.130  -0.250  23.775  0.00  0.00    -0.300 N 
ATOM     23  H   UNL     1       6.763  -0.472  23.009  0.00  0.00    +0.150 HD
ATOM     24  C   UNL     1       5.631  -1.291  24.542  0.00  0.00    +0.239 C 
ATOM     25  O   UNL     1       4.997  -1.062  25.574  0.00  0.00    -0.273 OA
BRANCH  22  27
ATOM     26  C   UNL     1       7.306   1.802  24.827  0.00  0.00    +0.165 C 
ATOM     27  CA  UNL     1       6.012   1.149  24.272  0.00  0.00    +0.190 C 
ATOM     28  C   UNL     1       6.051   2.301  23.243  0.00  0.00    +0.240 C 
ATOM     29  O   UNL     1       5.547   2.559  22.174  0.00  0.00    -0.273 OA
ATOM     30  N   UNL     1       7.066   2.940  23.910  0.00  0.00    -0.271 N 
ATOM     31  CA  UNL     1       8.236   3.438  23.161  0.00  0.00    +0.201 C 
ATOM     32  C   UNL     1       9.143   2.220  22.867  0.00  0.00    +0.042 C 
ATOM     33  C   UNL     1       8.681   1.442  21.618  0.00  0.00    +0.025 C 
ATOM     34  C   UNL     1      10.630   2.533  22.674  0.00  0.00    +0.025 C 
ATOM     35  S   UNL     1       8.923   1.090  24.315  0.00  0.00    -0.127 S 
BRANCH  31  36
ATOM     36  C   UNL     1       8.874   4.572  23.984  0.00  0.00    +0.327 C 
ATOM     37  OXT UNL     1       8.991   4.571  25.200  0.00  0.00    -0.249 OA
BRANCH  36  38
ATOM     38  O   UNL     1       9.417   5.556  23.224  0.00  0.00    -0.479 OA
ATOM     39  H   UNL     1       8.928   5.634  22.378  0.00  0.00    +0.295 HD
ENDBRANCH  36  38
ENDBRANCH  31  36
ENDBRANCH  22  27
ENDBRANCH   1  24
TORSDOF 7
ENDMDL
MODEL 4
REMARK VINA RESULT:      -7.0      2.977      8.402
REMARK  Name = 
REMARK  10 active torsions:
REMARK  status: ('A' for Active; 'I' for Inactive)
REMARK    1  A    between atoms: C_4  and  C_5
REMARK    2  A    between atoms: C_4  and  C_6
REMARK    3  A    between atoms: CA_7  and  C_38
REMARK    4  A    between atoms: CA_12  and  N_14
REMARK    5  A    between atoms: C_15  and  CA_17
REMARK    6  A    between atoms: CA_17  and  N_19
REMARK    7  A    between atoms: CA_17  and  C_32
REMARK    8  A    between atoms: N_25  and  C_26
REMARK    9  A    between atoms: C_26  and  C_27
REMARK   10  A    between atoms: C_38  and  O_39
REMARK                            x       y       z     vdW  Elec       q    Type
REMARK                         _______ _______ _______ _____ _____    ______ ____
ROOT
ATOM      1  CA  UNL     1       6.910  -2.169  23.130  0.00  0.00    +0.191 C 
ENDROOT
BRANCH   1   2
ATOM      2  N   UNL     1       6.450  -2.152  24.506  0.00  0.00    -0.284 N 
ATOM      3  H   UNL     1       6.368  -3.056  24.959  0.00  0.00    +0.151 HD
ATOM      4  C   UNL     1       5.789  -1.105  25.086  0.00  0.00    +0.310 C 
ATOM      5  N   UNL     1       5.364  -1.346  26.388  0.00  0.00    -0.217 N 
ATOM      6  C   UNL     1       5.648  -2.538  27.050  0.00  0.00    +0.309 C 
ATOM      7  O   UNL     1       6.600  -3.268  26.777  0.00  0.00    -0.264 OA
ATOM      8  C   UNL     1       4.699  -2.958  28.180  0.00  0.00    +0.302 C 
ATOM      9  O   UNL     1       4.664  -4.133  28.518  0.00  0.00    -0.265 OA
ATOM     10  N   UNL     1       3.965  -1.942  28.780  0.00  0.00    -0.293 N 
ATOM     11  C   UNL     1       3.539  -0.812  27.968  0.00  0.00    +0.127 C 
ATOM     12  C   UNL     1       4.684  -0.281  27.117  0.00  0.00    +0.137 C 
ATOM     13  O   UNL     1       5.592  -0.045  24.501  0.00  0.00    -0.252 OA
BRANCH  10  14
ATOM     14  C   UNL     1       3.351  -2.197  30.074  0.00  0.00    +0.105 C 
ATOM     15  C   UNL     1       1.929  -1.691  30.210  0.00  0.00    +0.024 C 
ENDBRANCH  10  14
ENDBRANCH   1   2
BRANCH   1  16
ATOM     16  C   UNL     1       6.906  -3.602  22.628  0.00  0.00    -0.018 A 
ATOM     17  C   UNL     1       7.584  -4.623  23.322  0.00  0.00    +0.006 A 
ATOM     18  C   UNL     1       7.524  -5.941  22.873  0.00  0.00    +0.000 A 
ATOM     19  C   UNL     1       6.792  -6.258  21.729  0.00  0.00    +0.000 A 
ATOM     20  C   UNL     1       6.124  -5.257  21.036  0.00  0.00    +0.000 A 
ATOM     21  C   UNL     1       6.173  -3.937  21.481  0.00  0.00    +0.006 A 
ENDBRANCH   1  16
BRANCH   1  24
ATOM     22  N   UNL     1       8.334  -0.135  22.804  0.00  0.00    -0.300 N 
ATOM     23  H   UNL     1       7.459   0.341  22.592  0.00  0.00    +0.150 HD
ATOM     24  C   UNL     1       8.308  -1.508  22.996  0.00  0.00    +0.239 C 
ATOM     25  O   UNL     1       9.358  -2.147  23.091  0.00  0.00    -0.273 OA
BRANCH  22  27
ATOM     26  C   UNL     1       9.575   2.042  22.157  0.00  0.00    +0.165 C 
ATOM     27  CA  UNL     1       9.637   0.550  22.581  0.00  0.00    +0.190 C 
ATOM     28  C   UNL     1      10.407   1.085  23.809  0.00  0.00    +0.240 C 
ATOM     29  O   UNL     1      10.719   0.689  24.908  0.00  0.00    -0.273 OA
ATOM     30  N   UNL     1      10.500   2.346  23.274  0.00  0.00    -0.271 N 
ATOM     31  CA  UNL     1      10.168   3.521  24.102  0.00  0.00    +0.201 C 
ATOM     32  C   UNL     1       8.625   3.617  24.158  0.00  0.00    +0.042 C 
ATOM     33  C   UNL     1       8.027   2.694  25.239  0.00  0.00    +0.025 C 
ATOM     34  C   UNL     1       8.058   5.019  24.406  0.00  0.00    +0.025 C 
ATOM     35  S   UNL     1       8.037   2.983  22.524  0.00  0.00    -0.127 S 
BRANCH  31  36
ATOM     36  C   UNL     1      10.899   4.739  23.506  0.00  0.00    +0.327 C 
ATOM     37  OXT UNL     1      10.754   5.892  23.883  0.00  0.00    -0.249 OA
BRANCH  36  38
ATOM     38  O   UNL     1      11.831   4.412  22.577  0.00  0.00    -0.479 OA
ATOM     39  H   UNL     1      12.416   3.707  22.923  0.00  0.00    +0.295 HD
ENDBRANCH  36  38
ENDBRANCH  31  36
ENDBRANCH  22  27
ENDBRANCH   1  24
TORSDOF 7
ENDMDL
MODEL 5
REMARK VINA RESULT:      -6.8      2.519      3.757
REMARK  Name = 
REMARK  10 active torsions:
REMARK  status: ('A' for Active; 'I' for Inactive)
REMARK    1  A    between atoms: C_4  and  C_5
REMARK    2  A    between atoms: C_4  and  C_6
REMARK    3  A    between atoms: CA_7  and  C_38
REMARK    4  A    between atoms: CA_12  and  N_14
REMARK    5  A    between atoms: C_15  and  CA_17
REMARK    6  A    between atoms: CA_17  and  N_19
REMARK    7  A    between atoms: CA_17  and  C_32
REMARK    8  A    between atoms: N_25  and  C_26
REMARK    9  A    between atoms: C_26  and  C_27
REMARK   10  A    between atoms: C_38  and  O_39
REMARK                            x       y       z     vdW  Elec       q    Type
REMARK                         _______ _______ _______ _____ _____    ______ ____
ROOT
ATOM      1  CA  UNL     1       8.347   0.631  25.218  0.00  0.00    +0.191 C 
ENDROOT
BRANCH   1   2
ATOM      2  N   UNL     1       7.282   1.546  24.854  0.00  0.00    -0.284 N 
ATOM      3  H   UNL     1       6.537   1.159  24.287  0.00  0.00    +0.151 HD
ATOM      4  C   UNL     1       7.389   2.908  24.893  0.00  0.00    +0.310 C 
ATOM      5  N   UNL     1       6.272   3.585  24.415  0.00  0.00    -0.217 N 
ATOM      6  C   UNL     1       5.126   2.915  23.993  0.00  0.00    +0.309 C 
ATOM      7  O   UNL     1       4.806   1.790  24.375  0.00  0.00    -0.264 OA
ATOM      8  C   UNL     1       4.227   3.633  22.979  0.00  0.00    +0.302 C 
ATOM      9  O   UNL     1       3.456   2.970  22.297  0.00  0.00    -0.265 OA
ATOM     10  N   UNL     1       4.323   5.019  22.939  0.00  0.00    -0.293 N 
ATOM     11  C   UNL     1       5.611   5.639  23.208  0.00  0.00    +0.127 C 
ATOM     12  C   UNL     1       6.262   5.044  24.450  0.00  0.00    +0.137 C 
ATOM     13  O   UNL     1       8.389   3.479  25.316  0.00  0.00    -0.252 OA
BRANCH  10  14
ATOM     14  C   UNL     1       3.258   5.773  22.296  0.00  0.00    +0.105 C 
ATOM     15  C   UNL     1       2.138   6.202  23.223  0.00  0.00    +0.024 C 
ENDBRANCH  10  14
ENDBRANCH   1   2
BRANCH   1  16
ATOM     16  C   UNL     1       8.930   0.028  23.951  0.00  0.00    -0.018 A 
ATOM     17  C   UNL     1       9.832  -1.053  24.003  0.00  0.00    +0.006 A 
ATOM     18  C   UNL     1      10.315  -1.625  22.828  0.00  0.00    +0.000 A 
ATOM     19  C   UNL     1       9.909  -1.128  21.590  0.00  0.00    +0.000 A 
ATOM     20  C   UNL     1       9.024  -0.061  21.529  0.00  0.00    +0.000 A 
ATOM     21  C   UNL     1       8.530   0.515  22.699  0.00  0.00    +0.006 A 
ENDBRANCH   1  16
BRANCH   1  24
ATOM     22  N   UNL     1       6.976  -1.410  25.691  0.00  0.00    -0.300 N 
ATOM     23  H   UNL     1       6.582  -1.259  24.764  0.00  0.00    +0.150 HD
ATOM     24  C   UNL     1       7.843  -0.458  26.203  0.00  0.00    +0.239 C 
ATOM     25  O   UNL     1       8.213  -0.513  27.378  0.00  0.00    -0.273 OA
BRANCH  22  27
ATOM     26  C   UNL     1       5.265  -3.325  26.011  0.00  0.00    +0.165 C 
ATOM     27  CA  UNL     1       6.386  -2.430  26.602  0.00  0.00    +0.190 C 
ATOM     28  C   UNL     1       7.141  -3.764  26.800  0.00  0.00    +0.240 C 
ATOM     29  O   UNL     1       8.276  -4.124  27.010  0.00  0.00    -0.273 OA
ATOM     30  N   UNL     1       6.035  -4.506  26.466  0.00  0.00    -0.271 N 
ATOM     31  CA  UNL     1       6.161  -5.619  25.505  0.00  0.00    +0.201 C 
ATOM     32  C   UNL     1       6.218  -4.996  24.090  0.00  0.00    +0.042 C 
ATOM     33  C   UNL     1       7.640  -4.526  23.722  0.00  0.00    +0.025 C 
ATOM     34  C   UNL     1       5.738  -5.900  22.950  0.00  0.00    +0.025 C 
ATOM     35  S   UNL     1       5.158  -3.484  24.181  0.00  0.00    -0.127 S 
BRANCH  31  36
ATOM     36  C   UNL     1       5.001  -6.599  25.765  0.00  0.00    +0.327 C 
ATOM     37  OXT UNL     1       4.163  -6.922  24.938  0.00  0.00    -0.249 OA
BRANCH  36  38
ATOM     38  O   UNL     1       5.047  -7.182  26.988  0.00  0.00    -0.479 OA
ATOM     39  H   UNL     1       5.016  -6.497  27.688  0.00  0.00    +0.295 HD
ENDBRANCH  36  38
ENDBRANCH  31  36
ENDBRANCH  22  27
ENDBRANCH   1  24
TORSDOF 7
ENDMDL
MODEL 6
REMARK VINA RESULT:      -6.7      3.005      5.823
REMARK  Name = 
REMARK  10 active torsions:
REMARK  status: ('A' for Active; 'I' for Inactive)
REMARK    1  A    between atoms: C_4  and  C_5
REMARK    2  A    between atoms: C_4  and  C_6
REMARK    3  A    between atoms: CA_7  and  C_38
REMARK    4  A    between atoms: CA_12  and  N_14
REMARK    5  A    between atoms: C_15  and  CA_17
REMARK    6  A    between atoms: CA_17  and  N_19
REMARK    7  A    between atoms: CA_17  and  C_32
REMARK    8  A    between atoms: N_25  and  C_26
REMARK    9  A    between atoms: C_26  and  C_27
REMARK   10  A    between atoms: C_38  and  O_39
REMARK                            x       y       z     vdW  Elec       q    Type
REMARK                         _______ _______ _______ _____ _____    ______ ____
ROOT
ATOM      1  CA  UNL     1       5.656   2.260  23.574  0.00  0.00    +0.191 C 
ENDROOT
BRANCH   1   2
ATOM      2  N   UNL     1       6.930   2.915  23.807  0.00  0.00    -0.284 N 
ATOM      3  H   UNL     1       6.912   3.929  23.828  0.00  0.00    +0.151 HD
ATOM      4  C   UNL     1       8.147   2.319  23.630  0.00  0.00    +0.310 C 
ATOM      5  N   UNL     1       9.234   3.166  23.826  0.00  0.00    -0.217 N 
ATOM      6  C   UNL     1       9.076   4.490  24.228  0.00  0.00    +0.309 C 
ATOM      7  O   UNL     1       8.097   4.912  24.843  0.00  0.00    -0.264 OA
ATOM      8  C   UNL     1      10.196   5.472  23.862  0.00  0.00    +0.302 C 
ATOM      9  O   UNL     1       9.947   6.671  23.835  0.00  0.00    -0.265 OA
ATOM     10  N   UNL     1      11.450   4.921  23.626  0.00  0.00    -0.293 N 
ATOM     11  C   UNL     1      11.531   3.599  23.023  0.00  0.00    +0.127 C 
ATOM     12  C   UNL     1      10.582   2.623  23.705  0.00  0.00    +0.137 C 
ATOM     13  O   UNL     1       8.264   1.137  23.324  0.00  0.00    -0.252 OA
BRANCH  10  14
ATOM     14  C   UNL     1      12.612   5.796  23.651  0.00  0.00    +0.105 C 
ATOM     15  C   UNL     1      13.495   5.710  22.422  0.00  0.00    +0.024 C 
ENDBRANCH  10  14
ENDBRANCH   1   2
BRANCH   1  16
ATOM     16  C   UNL     1       4.593   3.320  23.346  0.00  0.00    -0.018 A 
ATOM     17  C   UNL     1       4.750   4.632  23.835  0.00  0.00    +0.006 A 
ATOM     18  C   UNL     1       3.787   5.604  23.570  0.00  0.00    +0.000 A 
ATOM     19  C   UNL     1       2.657   5.282  22.820  0.00  0.00    +0.000 A 
ATOM     20  C   UNL     1       2.492   3.991  22.337  0.00  0.00    +0.000 A 
ATOM     21  C   UNL     1       3.453   3.013  22.591  0.00  0.00    +0.006 A 
ENDBRANCH   1  16
BRANCH   1  24
ATOM     22  N   UNL     1       5.661  -0.020  24.608  0.00  0.00    -0.300 N 
ATOM     23  H   UNL     1       5.992  -0.340  23.700  0.00  0.00    +0.150 HD
ATOM     24  C   UNL     1       5.290   1.309  24.745  0.00  0.00    +0.239 C 
ATOM     25  O   UNL     1       4.731   1.701  25.771  0.00  0.00    -0.273 OA
BRANCH  22  27
ATOM     26  C   UNL     1       5.355  -2.504  25.268  0.00  0.00    +0.165 C 
ATOM     27  CA  UNL     1       5.264  -1.003  25.654  0.00  0.00    +0.190 C 
ATOM     28  C   UNL     1       6.294  -1.375  26.744  0.00  0.00    +0.240 C 
ATOM     29  O   UNL     1       7.067  -0.798  27.474  0.00  0.00    -0.273 OA
ATOM     30  N   UNL     1       6.166  -2.717  26.489  0.00  0.00    -0.271 N 
ATOM     31  CA  UNL     1       7.372  -3.554  26.339  0.00  0.00    +0.201 C 
ATOM     32  C   UNL     1       7.931  -3.298  24.920  0.00  0.00    +0.042 C 
ATOM     33  C   UNL     1       8.809  -2.032  24.862  0.00  0.00    +0.025 C 
ATOM     34  C   UNL     1       8.756  -4.441  24.317  0.00  0.00    +0.025 C 
ATOM     35  S   UNL     1       6.448  -2.972  23.864  0.00  0.00    -0.127 S 
BRANCH  31  36
ATOM     36  C   UNL     1       6.980  -5.009  26.658  0.00  0.00    +0.327 C 
ATOM     37  OXT UNL     1       6.026  -5.596  26.171  0.00  0.00    -0.249 OA
BRANCH  36  38
ATOM     38  O   UNL     1       7.866  -5.647  27.462  0.00  0.00    -0.479 OA
ATOM     39  H   UNL     1       7.392  -6.098  28.192  0.00  0.00    +0.295 HD
ENDBRANCH  36  38
ENDBRANCH  31  36
ENDBRANCH  22  27
ENDBRANCH   1  24
TORSDOF 7
ENDMDL
MODEL 7
REMARK VINA RESULT:      -6.6      3.083      9.364
REMARK  Name = 
REMARK  10 active torsions:
REMARK  status: ('A' for Active; 'I' for Inactive)
REMARK    1  A    between atoms: C_4  and  C_5
REMARK    2  A    between atoms: C_4  and  C_6
REMARK    3  A    between atoms: CA_7  and  C_38
REMARK    4  A    between atoms: CA_12  and  N_14
REMARK    5  A    between atoms: C_15  and  CA_17
REMARK    6  A    between atoms: CA_17  and  N_19
REMARK    7  A    between atoms: CA_17  and  C_32
REMARK    8  A    between atoms: N_25  and  C_26
REMARK    9  A    between atoms: C_26  and  C_27
REMARK   10  A    between atoms: C_38  and  O_39
REMARK                            x       y       z     vdW  Elec       q    Type
REMARK                         _______ _______ _______ _____ _____    ______ ____
ROOT
ATOM      1  CA  UNL     1       7.371  -2.119  24.367  0.00  0.00    +0.191 C 
ENDROOT
BRANCH   1   2
ATOM      2  N   UNL     1       6.459  -3.207  24.064  0.00  0.00    -0.284 N 
ATOM      3  H   UNL     1       5.584  -2.944  23.626  0.00  0.00    +0.151 HD
ATOM      4  C   UNL     1       6.520  -4.446  24.638  0.00  0.00    +0.310 C 
ATOM      5  N   UNL     1       5.489  -5.302  24.263  0.00  0.00    -0.217 N 
ATOM      6  C   UNL     1       4.520  -4.930  23.335  0.00  0.00    +0.309 C 
ATOM      7  O   UNL     1       4.687  -4.069  22.471  0.00  0.00    -0.264 OA
ATOM      8  C   UNL     1       3.162  -5.638  23.415  0.00  0.00    +0.302 C 
ATOM      9  O   UNL     1       2.183  -5.102  22.911  0.00  0.00    -0.265 OA
ATOM     10  N   UNL     1       3.150  -6.884  24.028  0.00  0.00    -0.293 N 
ATOM     11  C   UNL     1       4.071  -7.133  25.127  0.00  0.00    +0.127 C 
ATOM     12  C   UNL     1       5.478  -6.664  24.784  0.00  0.00    +0.137 C 
ATOM     13  O   UNL     1       7.410  -4.769  25.416  0.00  0.00    -0.252 OA
BRANCH  10  14
ATOM     14  C   UNL     1       2.009  -7.760  23.807  0.00  0.00    +0.105 C 
ATOM     15  C   UNL     1       1.798  -8.808  24.880  0.00  0.00    +0.024 C 
ENDBRANCH  10  14
ENDBRANCH   1   2
BRANCH   1  16
ATOM     16  C   UNL     1       6.893  -1.413  25.624  0.00  0.00    -0.018 A 
ATOM     17  C   UNL     1       7.793  -0.735  26.469  0.00  0.00    +0.006 A 
ATOM     18  C   UNL     1       7.327  -0.048  27.589  0.00  0.00    +0.000 A 
ATOM     19  C   UNL     1       5.964  -0.030  27.882  0.00  0.00    +0.000 A 
ATOM     20  C   UNL     1       5.070  -0.699  27.056  0.00  0.00    +0.000 A 
ATOM     21  C   UNL     1       5.526  -1.384  25.930  0.00  0.00    +0.006 A 
ENDBRANCH   1  16
BRANCH   1  24
ATOM     22  N   UNL     1       7.075   0.157  23.366  0.00  0.00    -0.300 N 
ATOM     23  H   UNL     1       6.546   0.368  24.210  0.00  0.00    +0.150 HD
ATOM     24  C   UNL     1       7.506  -1.146  23.166  0.00  0.00    +0.239 C 
ATOM     25  O   UNL     1       8.003  -1.483  22.089  0.00  0.00    -0.273 OA
BRANCH  22  27
ATOM     26  C   UNL     1       6.253   2.412  22.398  0.00  0.00    +0.165 C 
ATOM     27  CA  UNL     1       7.095   1.119  22.229  0.00  0.00    +0.190 C 
ATOM     28  C   UNL     1       8.290   2.091  22.109  0.00  0.00    +0.240 C 
ATOM     29  O   UNL     1       9.496   2.035  22.180  0.00  0.00    -0.273 OA
ATOM     30  N   UNL     1       7.466   3.188  22.051  0.00  0.00    -0.271 N 
ATOM     31  CA  UNL     1       7.754   4.367  22.890  0.00  0.00    +0.201 C 
ATOM     32  C   UNL     1       7.276   4.035  24.323  0.00  0.00    +0.042 C 
ATOM     33  C   UNL     1       8.326   3.225  25.111  0.00  0.00    +0.025 C 
ATOM     34  C   UNL     1       6.899   5.241  25.191  0.00  0.00    +0.025 C 
ATOM     35  S   UNL     1       5.804   2.937  24.103  0.00  0.00    -0.127 S 
BRANCH  31  36
ATOM     36  C   UNL     1       7.096   5.590  22.225  0.00  0.00    +0.327 C 
ATOM     37  OXT UNL     1       5.939   5.942  22.401  0.00  0.00    -0.249 OA
BRANCH  36  38
ATOM     38  O   UNL     1       7.957   6.339  21.493  0.00  0.00    -0.479 OA
ATOM     39  H   UNL     1       7.826   7.290  21.690  0.00  0.00    +0.295 HD
ENDBRANCH  36  38
ENDBRANCH  31  36
ENDBRANCH  22  27
ENDBRANCH   1  24
TORSDOF 7
ENDMDL
MODEL 8
REMARK VINA RESULT:      -6.6      3.534      4.827
REMARK  Name = 
REMARK  10 active torsions:
REMARK  status: ('A' for Active; 'I' for Inactive)
REMARK    1  A    between atoms: C_4  and  C_5
REMARK    2  A    between atoms: C_4  and  C_6
REMARK    3  A    between atoms: CA_7  and  C_38
REMARK    4  A    between atoms: CA_12  and  N_14
REMARK    5  A    between atoms: C_15  and  CA_17
REMARK    6  A    between atoms: CA_17  and  N_19
REMARK    7  A    between atoms: CA_17  and  C_32
REMARK    8  A    between atoms: N_25  and  C_26
REMARK    9  A    between atoms: C_26  and  C_27
REMARK   10  A    between atoms: C_38  and  O_39
REMARK                            x       y       z     vdW  Elec       q    Type
REMARK                         _______ _______ _______ _____ _____    ______ ____
ROOT
ATOM      1  CA  UNL     1       8.143   0.755  25.724  0.00  0.00    +0.191 C 
ENDROOT
BRANCH   1   2
ATOM      2  N   UNL     1       6.783   1.191  25.985  0.00  0.00    -0.284 N 
ATOM      3  H   UNL     1       6.142   1.137  25.202  0.00  0.00    +0.151 HD
ATOM      4  C   UNL     1       6.415   1.982  27.036  0.00  0.00    +0.310 C 
ATOM      5  N   UNL     1       5.073   2.348  27.036  0.00  0.00    -0.217 N 
ATOM      6  C   UNL     1       4.181   1.888  26.071  0.00  0.00    +0.309 C 
ATOM      7  O   UNL     1       4.334   0.847  25.431  0.00  0.00    -0.264 OA
ATOM      8  C   UNL     1       2.944   2.749  25.789  0.00  0.00    +0.302 C 
ATOM      9  O   UNL     1       2.357   2.613  24.724  0.00  0.00    -0.265 OA
ATOM     10  N   UNL     1       2.545   3.609  26.806  0.00  0.00    -0.293 N 
ATOM     11  C   UNL     1       3.563   4.204  27.659  0.00  0.00    +0.127 C 
ATOM     12  C   UNL     1       4.562   3.158  28.137  0.00  0.00    +0.137 C 
ATOM     13  O   UNL     1       7.207   2.336  27.904  0.00  0.00    -0.252 OA
BRANCH  10  14
ATOM     14  C   UNL     1       1.199   4.160  26.765  0.00  0.00    +0.105 C 
ATOM     15  C   UNL     1       1.105   5.556  26.184  0.00  0.00    +0.024 C 
ENDBRANCH  10  14
ENDBRANCH   1   2
BRANCH   1  16
ATOM     16  C   UNL     1       8.457   0.976  24.255  0.00  0.00    -0.018 A 
ATOM     17  C   UNL     1       9.750   0.757  23.742  0.00  0.00    +0.006 A 
ATOM     18  C   UNL     1      10.005   0.914  22.381  0.00  0.00    +0.000 A 
ATOM     19  C   UNL     1       8.979   1.293  21.517  0.00  0.00    +0.000 A 
ATOM     20  C   UNL     1       7.702   1.515  22.014  0.00  0.00    +0.000 A 
ATOM     21  C   UNL     1       7.436   1.355  23.373  0.00  0.00    +0.006 A 
ENDBRANCH   1  16
BRANCH   1  24
ATOM     22  N   UNL     1       7.685  -1.686  25.410  0.00  0.00    -0.300 N 
ATOM     23  H   UNL     1       6.973  -1.383  24.749  0.00  0.00    +0.150 HD
ATOM     24  C   UNL     1       8.352  -0.723  26.150  0.00  0.00    +0.239 C 
ATOM     25  O   UNL     1       9.100  -1.049  27.074  0.00  0.00    -0.273 OA
BRANCH  22  27
ATOM     26  C   UNL     1       6.435  -3.826  26.155  0.00  0.00    +0.165 C 
ATOM     27  CA  UNL     1       7.773  -3.116  25.818  0.00  0.00    +0.190 C 
ATOM     28  C   UNL     1       7.892  -4.190  24.714  0.00  0.00    +0.240 C 
ATOM     29  O   UNL     1       8.533  -4.363  23.703  0.00  0.00    -0.273 OA
ATOM     30  N   UNL     1       6.816  -4.891  25.199  0.00  0.00    -0.271 N 
ATOM     31  CA  UNL     1       5.762  -5.350  24.273  0.00  0.00    +0.201 C 
ATOM     32  C   UNL     1       4.872  -4.127  23.952  0.00  0.00    +0.042 C 
ATOM     33  C   UNL     1       5.469  -3.254  22.830  0.00  0.00    +0.025 C 
ATOM     34  C   UNL     1       3.428  -4.447  23.548  0.00  0.00    +0.025 C 
ATOM     35  S   UNL     1       4.879  -3.102  25.492  0.00  0.00    -0.127 S 
BRANCH  31  36
ATOM     36  C   UNL     1       5.051  -6.550  24.926  0.00  0.00    +0.327 C 
ATOM     37  OXT UNL     1       4.808  -6.652  26.118  0.00  0.00    -0.249 OA
BRANCH  36  38
ATOM     38  O   UNL     1       4.600  -7.466  24.033  0.00  0.00    -0.479 OA
ATOM     39  H   UNL     1       3.680  -7.253  23.770  0.00  0.00    +0.295 HD
ENDBRANCH  36  38
ENDBRANCH  31  36
ENDBRANCH  22  27
ENDBRANCH   1  24
TORSDOF 7
ENDMDL
MODEL 9
REMARK VINA RESULT:      -6.5      3.936      7.142
REMARK  Name = 
REMARK  10 active torsions:
REMARK  status: ('A' for Active; 'I' for Inactive)
REMARK    1  A    between atoms: C_4  and  C_5
REMARK    2  A    between atoms: C_4  and  C_6
REMARK    3  A    between atoms: CA_7  and  C_38
REMARK    4  A    between atoms: CA_12  and  N_14
REMARK    5  A    between atoms: C_15  and  CA_17
REMARK    6  A    between atoms: CA_17  and  N_19
REMARK    7  A    between atoms: CA_17  and  C_32
REMARK    8  A    between atoms: N_25  and  C_26
REMARK    9  A    between atoms: C_26  and  C_27
REMARK   10  A    between atoms: C_38  and  O_39
REMARK                            x       y       z     vdW  Elec       q    Type
REMARK                         _______ _______ _______ _____ _____    ______ ____
ROOT
ATOM      1  CA  UNL     1       5.338   3.432  24.961  0.00  0.00    +0.191 C 
ENDROOT
BRANCH   1   2
ATOM      2  N   UNL     1       6.672   3.625  24.423  0.00  0.00    -0.284 N 
ATOM      3  H   UNL     1       7.299   2.832  24.496  0.00  0.00    +0.151 HD
ATOM      4  C   UNL     1       7.238   4.846  24.186  0.00  0.00    +0.310 C 
ATOM      5  N   UNL     1       8.560   4.790  23.755  0.00  0.00    -0.217 N 
ATOM      6  C   UNL     1       9.214   3.582  23.532  0.00  0.00    +0.309 C 
ATOM      7  O   UNL     1       8.641   2.525  23.268  0.00  0.00    -0.264 OA
ATOM      8  C   UNL     1      10.745   3.582  23.638  0.00  0.00    +0.302 C 
ATOM      9  O   UNL     1      11.325   2.523  23.839  0.00  0.00    -0.265 OA
ATOM     10  N   UNL     1      11.378   4.804  23.450  0.00  0.00    -0.293 N 
ATOM     11  C   UNL     1      10.702   6.017  23.888  0.00  0.00    +0.127 C 
ATOM     12  C   UNL     1       9.249   6.035  23.431  0.00  0.00    +0.137 C 
ATOM     13  O   UNL     1       6.627   5.898  24.342  0.00  0.00    -0.252 OA
BRANCH  10  14
ATOM     14  C   UNL     1      12.804   4.814  23.163  0.00  0.00    +0.105 C 
ATOM     15  C   UNL     1      13.202   5.659  21.969  0.00  0.00    +0.024 C 
ENDBRANCH  10  14
ENDBRANCH   1   2
BRANCH   1  16
ATOM     16  C   UNL     1       5.228   4.172  26.282  0.00  0.00    -0.018 A 
ATOM     17  C   UNL     1       4.213   5.122  26.508  0.00  0.00    +0.006 A 
ATOM     18  C   UNL     1       4.098   5.751  27.746  0.00  0.00    +0.000 A 
ATOM     19  C   UNL     1       4.992   5.446  28.771  0.00  0.00    +0.000 A 
ATOM     20  C   UNL     1       5.999   4.514  28.557  0.00  0.00    +0.000 A 
ATOM     21  C   UNL     1       6.118   3.874  27.324  0.00  0.00    +0.006 A 
ENDBRANCH   1  16
BRANCH   1  24
ATOM     22  N   UNL     1       6.013   1.026  24.803  0.00  0.00    -0.300 N 
ATOM     23  H   UNL     1       6.852   1.378  24.345  0.00  0.00    +0.150 HD
ATOM     24  C   UNL     1       5.002   1.924  25.107  0.00  0.00    +0.239 C 
ATOM     25  O   UNL     1       3.908   1.522  25.508  0.00  0.00    -0.273 OA
BRANCH  22  27
ATOM     26  C   UNL     1       6.378  -1.295  23.718  0.00  0.00    +0.165 C 
ATOM     27  CA  UNL     1       5.733  -0.436  24.838  0.00  0.00    +0.190 C 
ATOM     28  C   UNL     1       6.565  -1.322  25.791  0.00  0.00    +0.240 C 
ATOM     29  O   UNL     1       6.936  -1.290  26.942  0.00  0.00    -0.273 OA
ATOM     30  N   UNL     1       6.929  -2.172  24.777  0.00  0.00    -0.271 N 
ATOM     31  CA  UNL     1       8.341  -2.575  24.628  0.00  0.00    +0.201 C 
ATOM     32  C   UNL     1       9.083  -1.395  23.958  0.00  0.00    +0.042 C 
ATOM     33  C   UNL     1       9.504  -0.320  24.981  0.00  0.00    +0.025 C 
ATOM     34  C   UNL     1      10.339  -1.769  23.163  0.00  0.00    +0.025 C 
ATOM     35  S   UNL     1       7.840  -0.611  22.835  0.00  0.00    -0.127 S 
BRANCH  31  36
ATOM     36  C   UNL     1       8.371  -3.912  23.865  0.00  0.00    +0.327 C 
ATOM     37  OXT UNL     1       7.761  -4.140  22.832  0.00  0.00    -0.249 OA
BRANCH  36  38
ATOM     38  O   UNL     1       9.245  -4.812  24.381  0.00  0.00    -0.479 OA
ATOM     39  H   UNL     1       8.761  -5.489  24.899  0.00  0.00    +0.295 HD
ENDBRANCH  36  38
ENDBRANCH  31  36
ENDBRANCH  22  27
ENDBRANCH   1  24
TORSDOF 7
ENDMDL
