MODEL 1
REMARK VINA RESULT:      -5.5      0.000      0.000
REMARK  Name = 
REMARK  3 active torsions:
REMARK  status: ('A' for Active; 'I' for Inactive)
REMARK    1  A    between atoms: C_1  and  C_2
REMARK    2  A    between atoms: C_2  and  C_3
REMARK    3  A    between atoms: C_8  and  N_9
REMARK                            x       y       z     vdW  Elec       q    Type
REMARK                         _______ _______ _______ _____ _____    ______ ____
ROOT
ATOM      1  C   UNL     1       5.695  -3.392  21.635  0.00  0.00    +0.011 C 
ATOM      2  C   UNL     1       6.368  -3.471  23.017  0.00  0.00    -0.022 C 
ATOM      3  C   UNL     1       5.618  -4.492  23.896  0.00  0.00    +0.063 C 
ATOM      4  C   UNL     1       6.355  -4.859  25.159  0.00  0.00    +0.057 A 
ATOM      5  C   UNL     1       7.728  -4.705  25.279  0.00  0.00    +0.078 A 
ATOM      6  C   UNL     1       8.293  -5.067  26.494  0.00  0.00    +0.130 A 
ATOM      7  N   UNL     1       7.559  -5.567  27.503  0.00  0.00    -0.220 NA
ATOM      8  C   UNL     1       6.244  -5.698  27.283  0.00  0.00    +0.223 A 
ATOM      9  C   UNL     1       8.511  -4.104  24.177  0.00  0.00    +0.169 C 
ATOM     10  O   UNL     1       9.672  -3.736  24.341  0.00  0.00    -0.292 OA
ATOM     11  N   UNL     1       5.597  -5.369  26.156  0.00  0.00    -0.239 NA
ATOM     12  C   UNL     1       7.819  -3.945  22.843  0.00  0.00    +0.086 C 
ATOM     13  C   UNL     1       6.323  -2.063  23.647  0.00  0.00    +0.011 C 
ENDROOT
BRANCH   6  14
ATOM     14  N   UNL     1       9.666  -5.055  26.719  0.00  0.00    -0.342 N 
ATOM     15  H   UNL     1      10.092  -5.902  26.361  0.00  0.00    +0.144 HD
ATOM     16  H   UNL     1       9.907  -4.821  27.682  0.00  0.00    +0.144 HD
ENDBRANCH   6  14
TORSDOF 1
ENDMDL
MODEL 2
REMARK VINA RESULT:      -5.4      3.441      4.930
REMARK  Name = 
REMARK  3 active torsions:
REMARK  status: ('A' for Active; 'I' for Inactive)
REMARK    1  A    between atoms: C_1  and  C_2
REMARK    2  A    between atoms: C_2  and  C_3
REMARK    3  A    between atoms: C_8  and  N_9
REMARK                            x       y       z     vdW  Elec       q    Type
REMARK                         _______ _______ _______ _____ _____    ______ ____
ROOT
ATOM      1  C   UNL     1       7.012  -5.260  25.608  0.00  0.00    +0.011 C 
ATOM      2  C   UNL     1       8.076  -4.156  25.482  0.00  0.00    -0.022 C 
ATOM      3  C   UNL     1       8.242  -3.771  23.998  0.00  0.00    +0.063 C 
ATOM      4  C   UNL     1       9.043  -2.511  23.786  0.00  0.00    +0.057 A 
ATOM      5  C   UNL     1       9.178  -1.551  24.778  0.00  0.00    +0.078 A 
ATOM      6  C   UNL     1       9.947  -0.438  24.470  0.00  0.00    +0.130 A 
ATOM      7  N   UNL     1      10.518  -0.276  23.263  0.00  0.00    -0.220 NA
ATOM      8  C   UNL     1      10.311  -1.248  22.364  0.00  0.00    +0.223 A 
ATOM      9  C   UNL     1       8.588  -1.773  26.117  0.00  0.00    +0.169 C 
ATOM     10  O   UNL     1       8.889  -1.067  27.076  0.00  0.00    -0.292 OA
ATOM     11  N   UNL     1       9.598  -2.365  22.562  0.00  0.00    -0.239 NA
ATOM     12  C   UNL     1       7.609  -2.916  26.260  0.00  0.00    +0.086 C 
ATOM     13  C   UNL     1       9.398  -4.702  26.062  0.00  0.00    +0.011 C 
ENDROOT
BRANCH   6  14
ATOM     14  N   UNL     1      10.089   0.642  25.334  0.00  0.00    -0.342 N 
ATOM     15  H   UNL     1      11.014   1.047  25.249  0.00  0.00    +0.144 HD
ATOM     16  H   UNL     1       9.795   0.428  26.287  0.00  0.00    +0.144 HD
ENDBRANCH   6  14
TORSDOF 1
ENDMDL
MODEL 3
REMARK VINA RESULT:      -5.2      2.463      3.358
REMARK  Name = 
REMARK  3 active torsions:
REMARK  status: ('A' for Active; 'I' for Inactive)
REMARK    1  A    between atoms: C_1  and  C_2
REMARK    2  A    between atoms: C_2  and  C_3
REMARK    3  A    between atoms: C_8  and  N_9
REMARK                            x       y       z     vdW  Elec       q    Type
REMARK                         _______ _______ _______ _____ _____    ______ ____
ROOT
ATOM      1  C   UNL     1       9.431  -3.185  24.300  0.00  0.00    +0.011 C 
ATOM      2  C   UNL     1       8.189  -3.763  25.001  0.00  0.00    -0.022 C 
ATOM      3  C   UNL     1       7.258  -4.401  23.950  0.00  0.00    +0.063 C 
ATOM      4  C   UNL     1       6.159  -5.243  24.549  0.00  0.00    +0.057 A 
ATOM      5  C   UNL     1       6.263  -5.791  25.819  0.00  0.00    +0.078 A 
ATOM      6  C   UNL     1       5.183  -6.539  26.266  0.00  0.00    +0.130 A 
ATOM      7  N   UNL     1       4.095  -6.751  25.504  0.00  0.00    -0.220 NA
ATOM      8  C   UNL     1       4.099  -6.198  24.283  0.00  0.00    +0.223 A 
ATOM      9  C   UNL     1       7.444  -5.502  26.662  0.00  0.00    +0.169 C 
ATOM     10  O   UNL     1       7.455  -5.767  27.862  0.00  0.00    -0.292 OA
ATOM     11  N   UNL     1       5.080  -5.451  23.760  0.00  0.00    -0.239 NA
ATOM     12  C   UNL     1       8.631  -4.852  25.990  0.00  0.00    +0.086 C 
ATOM     13  C   UNL     1       7.479  -2.607  25.737  0.00  0.00    +0.011 C 
ENDROOT
BRANCH   6  14
ATOM     14  N   UNL     1       5.191  -7.222  27.477  0.00  0.00    -0.342 N 
ATOM     15  H   UNL     1       4.976  -6.592  28.242  0.00  0.00    +0.144 HD
ATOM     16  H   UNL     1       6.027  -7.792  27.606  0.00  0.00    +0.144 HD
ENDBRANCH   6  14
TORSDOF 1
ENDMDL
MODEL 4
REMARK VINA RESULT:      -5.2      2.013      3.001
REMARK  Name = 
REMARK  3 active torsions:
REMARK  status: ('A' for Active; 'I' for Inactive)
REMARK    1  A    between atoms: C_1  and  C_2
REMARK    2  A    between atoms: C_2  and  C_3
REMARK    3  A    between atoms: C_8  and  N_9
REMARK                            x       y       z     vdW  Elec       q    Type
REMARK                         _______ _______ _______ _____ _____    ______ ____
ROOT
ATOM      1  C   UNL     1       6.065  -3.908  21.154  0.00  0.00    +0.011 C 
ATOM      2  C   UNL     1       6.347  -4.737  22.419  0.00  0.00    -0.022 C 
ATOM      3  C   UNL     1       7.227  -3.916  23.385  0.00  0.00    +0.063 C 
ATOM      4  C   UNL     1       7.326  -4.512  24.766  0.00  0.00    +0.057 A 
ATOM      5  C   UNL     1       6.366  -5.383  25.261  0.00  0.00    +0.078 A 
ATOM      6  C   UNL     1       6.571  -5.875  26.542  0.00  0.00    +0.130 A 
ATOM      7  N   UNL     1       7.630  -5.512  27.287  0.00  0.00    -0.220 NA
ATOM      8  C   UNL     1       8.490  -4.648  26.729  0.00  0.00    +0.223 A 
ATOM      9  C   UNL     1       5.237  -5.813  24.407  0.00  0.00    +0.169 C 
ATOM     10  O   UNL     1       4.515  -6.755  24.724  0.00  0.00    -0.292 OA
ATOM     11  N   UNL     1       8.393  -4.124  25.499  0.00  0.00    -0.239 NA
ATOM     12  C   UNL     1       5.016  -5.054  23.119  0.00  0.00    +0.086 C 
ATOM     13  C   UNL     1       7.063  -6.034  21.988  0.00  0.00    +0.011 C 
ENDROOT
BRANCH   6  14
ATOM     14  N   UNL     1       5.644  -6.679  27.197  0.00  0.00    -0.342 N 
ATOM     15  H   UNL     1       5.341  -7.434  26.593  0.00  0.00    +0.144 HD
ATOM     16  H   UNL     1       4.894  -6.144  27.634  0.00  0.00    +0.144 HD
ENDBRANCH   6  14
TORSDOF 1
ENDMDL
MODEL 5
REMARK VINA RESULT:      -5.2      4.861      6.131
REMARK  Name = 
REMARK  3 active torsions:
REMARK  status: ('A' for Active; 'I' for Inactive)
REMARK    1  A    between atoms: C_1  and  C_2
REMARK    2  A    between atoms: C_2  and  C_3
REMARK    3  A    between atoms: C_8  and  N_9
REMARK                            x       y       z     vdW  Elec       q    Type
REMARK                         _______ _______ _______ _____ _____    ______ ____
ROOT
ATOM      1  C   UNL     1       9.299  -3.615  24.823  0.00  0.00    +0.011 C 
ATOM      2  C   UNL     1       8.925  -2.282  24.152  0.00  0.00    -0.022 C 
ATOM      3  C   UNL     1       9.000  -1.145  25.192  0.00  0.00    +0.063 C 
ATOM      4  C   UNL     1       8.933   0.234  24.586  0.00  0.00    +0.057 A 
ATOM      5  C   UNL     1       9.273   0.471  23.262  0.00  0.00    +0.078 A 
ATOM      6  C   UNL     1       9.162   1.780  22.815  0.00  0.00    +0.130 A 
ATOM      7  N   UNL     1       8.771   2.782  23.622  0.00  0.00    -0.220 NA
ATOM      8  C   UNL     1       8.486   2.455  24.890  0.00  0.00    +0.223 A 
ATOM      9  C   UNL     1       9.649  -0.652  22.375  0.00  0.00    +0.169 C 
ATOM     10  O   UNL     1       9.719  -0.511  21.156  0.00  0.00    -0.292 OA
ATOM     11  N   UNL     1       8.547   1.226  25.420  0.00  0.00    -0.239 NA
ATOM     12  C   UNL     1       9.929  -1.985  23.028  0.00  0.00    +0.086 C 
ATOM     13  C   UNL     1       7.495  -2.419  23.588  0.00  0.00    +0.011 C 
ENDROOT
BRANCH   6  14
ATOM     14  N   UNL     1       9.558   2.176  21.542  0.00  0.00    -0.342 N 
ATOM     15  H   UNL     1       8.944   1.781  20.839  0.00  0.00    +0.144 HD
ATOM     16  H   UNL     1      10.555   2.036  21.375  0.00  0.00    +0.144 HD
ENDBRANCH   6  14
TORSDOF 1
ENDMDL
MODEL 6
REMARK VINA RESULT:      -5.2      1.936      2.278
REMARK  Name = 
REMARK  3 active torsions:
REMARK  status: ('A' for Active; 'I' for Inactive)
REMARK    1  A    between atoms: C_1  and  C_2
REMARK    2  A    between atoms: C_2  and  C_3
REMARK    3  A    between atoms: C_8  and  N_9
REMARK                            x       y       z     vdW  Elec       q    Type
REMARK                         _______ _______ _______ _____ _____    ______ ____
ROOT
ATOM      1  C   UNL     1       7.068   0.151  23.791  0.00  0.00    +0.011 C 
ATOM      2  C   UNL     1       7.728  -0.981  24.598  0.00  0.00    -0.022 C 
ATOM      3  C   UNL     1       6.636  -1.813  25.302  0.00  0.00    +0.063 C 
ATOM      4  C   UNL     1       7.143  -3.108  25.883  0.00  0.00    +0.057 A 
ATOM      5  C   UNL     1       8.298  -3.719  25.418  0.00  0.00    +0.078 A 
ATOM      6  C   UNL     1       8.671  -4.904  26.037  0.00  0.00    +0.130 A 
ATOM      7  N   UNL     1       7.943  -5.455  27.023  0.00  0.00    -0.220 NA
ATOM      8  C   UNL     1       6.831  -4.801  27.388  0.00  0.00    +0.223 A 
ATOM      9  C   UNL     1       9.116  -3.070  24.369  0.00  0.00    +0.169 C 
ATOM     10  O   UNL     1      10.253  -3.457  24.110  0.00  0.00    -0.292 OA
ATOM     11  N   UNL     1       6.388  -3.649  26.866  0.00  0.00    -0.239 NA
ATOM     12  C   UNL     1       8.499  -1.900  23.638  0.00  0.00    +0.086 C 
ATOM     13  C   UNL     1       8.681  -0.338  25.627  0.00  0.00    +0.011 C 
ENDROOT
BRANCH   6  14
ATOM     14  N   UNL     1       9.751  -5.669  25.610  0.00  0.00    -0.342 N 
ATOM     15  H   UNL     1      10.448  -5.740  26.343  0.00  0.00    +0.144 HD
ATOM     16  H   UNL     1      10.107  -5.378  24.699  0.00  0.00    +0.144 HD
ENDBRANCH   6  14
TORSDOF 1
ENDMDL
MODEL 7
REMARK VINA RESULT:      -5.1      4.444      5.751
REMARK  Name = 
REMARK  3 active torsions:
REMARK  status: ('A' for Active; 'I' for Inactive)
REMARK    1  A    between atoms: C_1  and  C_2
REMARK    2  A    between atoms: C_2  and  C_3
REMARK    3  A    between atoms: C_8  and  N_9
REMARK                            x       y       z     vdW  Elec       q    Type
REMARK                         _______ _______ _______ _____ _____    ______ ____
ROOT
ATOM      1  C   UNL     1      10.740   2.976  23.357  0.00  0.00    +0.011 C 
ATOM      2  C   UNL     1      10.036   1.619  23.530  0.00  0.00    -0.022 C 
ATOM      3  C   UNL     1       8.599   1.848  24.042  0.00  0.00    +0.063 C 
ATOM      4  C   UNL     1       7.730   0.618  23.975  0.00  0.00    +0.057 A 
ATOM      5  C   UNL     1       8.007  -0.430  23.110  0.00  0.00    +0.078 A 
ATOM      6  C   UNL     1       7.141  -1.514  23.145  0.00  0.00    +0.130 A 
ATOM      7  N   UNL     1       6.068  -1.547  23.955  0.00  0.00    -0.220 NA
ATOM      8  C   UNL     1       5.873  -0.476  24.737  0.00  0.00    +0.223 A 
ATOM      9  C   UNL     1       9.221  -0.401  22.265  0.00  0.00    +0.169 C 
ATOM     10  O   UNL     1       9.619  -1.403  21.677  0.00  0.00    -0.292 OA
ATOM     11  N   UNL     1       6.652   0.613  24.791  0.00  0.00    -0.239 NA
ATOM     12  C   UNL     1       9.963   0.912  22.167  0.00  0.00    +0.086 C 
ATOM     13  C   UNL     1      10.854   0.785  24.538  0.00  0.00    +0.011 C 
ENDROOT
BRANCH   6  14
ATOM     14  N   UNL     1       7.244  -2.589  22.269  0.00  0.00    -0.342 N 
ATOM     15  H   UNL     1       6.328  -2.975  22.069  0.00  0.00    +0.144 HD
ATOM     16  H   UNL     1       7.948  -3.269  22.557  0.00  0.00    +0.144 HD
ENDBRANCH   6  14
TORSDOF 1
ENDMDL
MODEL 8
REMARK VINA RESULT:      -5.1      3.292      4.236
REMARK  Name = 
REMARK  3 active torsions:
REMARK  status: ('A' for Active; 'I' for Inactive)
REMARK    1  A    between atoms: C_1  and  C_2
REMARK    2  A    between atoms: C_2  and  C_3
REMARK    3  A    between atoms: C_8  and  N_9
REMARK                            x       y       z     vdW  Elec       q    Type
REMARK                         _______ _______ _______ _____ _____    ______ ____
ROOT
ATOM      1  C   UNL     1       9.615   1.815  21.917  0.00  0.00    +0.011 C 
ATOM      2  C   UNL     1       9.323   0.615  22.835  0.00  0.00    -0.022 C 
ATOM      3  C   UNL     1       7.798   0.418  22.951  0.00  0.00    +0.063 C 
ATOM      4  C   UNL     1       7.404  -0.891  23.587  0.00  0.00    +0.057 A 
ATOM      5  C   UNL     1       8.256  -1.985  23.602  0.00  0.00    +0.078 A 
ATOM      6  C   UNL     1       7.787  -3.133  24.226  0.00  0.00    +0.130 A 
ATOM      7  N   UNL     1       6.559  -3.200  24.771  0.00  0.00    -0.220 NA
ATOM      8  C   UNL     1       5.803  -2.097  24.687  0.00  0.00    +0.223 A 
ATOM      9  C   UNL     1       9.622  -1.876  23.045  0.00  0.00    +0.169 C 
ATOM     10  O   UNL     1      10.472  -2.738  23.256  0.00  0.00    -0.292 OA
ATOM     11  N   UNL     1       6.162  -0.937  24.119  0.00  0.00    -0.239 NA
ATOM     12  C   UNL     1       9.935  -0.651  22.217  0.00  0.00    +0.086 C 
ATOM     13  C   UNL     1       9.947   0.910  24.215  0.00  0.00    +0.011 C 
ENDROOT
BRANCH   6  14
ATOM     14  N   UNL     1       8.495  -4.330  24.232  0.00  0.00    -0.342 N 
ATOM     15  H   UNL     1       9.470  -4.167  24.007  0.00  0.00    +0.144 HD
ATOM     16  H   UNL     1       8.040  -5.062  23.686  0.00  0.00    +0.144 HD
ENDBRANCH   6  14
TORSDOF 1
ENDMDL
MODEL 9
REMARK VINA RESULT:      -5.0      1.639      2.457
REMARK  Name = 
REMARK  3 active torsions:
REMARK  status: ('A' for Active; 'I' for Inactive)
REMARK    1  A    between atoms: C_1  and  C_2
REMARK    2  A    between atoms: C_2  and  C_3
REMARK    3  A    between atoms: C_8  and  N_9
REMARK                            x       y       z     vdW  Elec       q    Type
REMARK                         _______ _______ _______ _____ _____    ______ ____
ROOT
ATOM      1  C   UNL     1       9.275  -1.594  22.024  0.00  0.00    +0.011 C 
ATOM      2  C   UNL     1       8.469  -2.289  23.135  0.00  0.00    -0.022 C 
ATOM      3  C   UNL     1       7.558  -3.365  22.510  0.00  0.00    +0.063 C 
ATOM      4  C   UNL     1       6.941  -4.297  23.523  0.00  0.00    +0.057 A 
ATOM      5  C   UNL     1       7.501  -4.494  24.776  0.00  0.00    +0.078 A 
ATOM      6  C   UNL     1       6.837  -5.367  25.626  0.00  0.00    +0.130 A 
ATOM      7  N   UNL     1       5.720  -6.016  25.255  0.00  0.00    -0.220 NA
ATOM      8  C   UNL     1       5.269  -5.776  24.016  0.00  0.00    +0.223 A 
ATOM      9  C   UNL     1       8.700  -3.730  25.186  0.00  0.00    +0.169 C 
ATOM     10  O   UNL     1       9.073  -3.701  26.357  0.00  0.00    -0.292 OA
ATOM     11  N   UNL     1       5.824  -4.945  23.122  0.00  0.00    -0.239 NA
ATOM     12  C   UNL     1       9.441  -2.974  24.108  0.00  0.00    +0.086 C 
ATOM     13  C   UNL     1       7.633  -1.213  23.860  0.00  0.00    +0.011 C 
ENDROOT
BRANCH   6  14
ATOM     14  N   UNL     1       7.337  -5.729  26.873  0.00  0.00    -0.342 N 
ATOM     15  H   UNL     1       7.270  -6.732  27.005  0.00  0.00    +0.144 HD
ATOM     16  H   UNL     1       6.954  -5.165  27.632  0.00  0.00    +0.144 HD
ENDBRANCH   6  14
TORSDOF 1
ENDMDL
