MODEL 1
REMARK VINA RESULT:      -7.5      0.000      0.000
REMARK  Name = 
REMARK  8 active torsions:
REMARK  status: ('A' for Active; 'I' for Inactive)
REMARK    1  A    between atoms: C_2  and  C_27
REMARK    2  A    between atoms: C_8  and  O_10
REMARK    3  A    between atoms: O_10  and  C_11
REMARK    4  A    between atoms: C_11  and  C_12
REMARK    5  A    between atoms: C_19  and  N_20
REMARK    6  A    between atoms: N_20  and  S_21
REMARK    7  A    between atoms: S_21  and  O_22
REMARK    8  A    between atoms: N_29  and  C_30
REMARK                            x       y       z     vdW  Elec       q    Type
REMARK                         _______ _______ _______ _____ _____    ______ ____
ROOT
ATOM      1  C   UNL     1       6.938  -1.417  23.377  0.00  0.00    +0.170 C 
ATOM      2  N   UNL     1       8.182  -2.144  23.701  0.00  0.00    -0.251 N 
ATOM      3  C   UNL     1       9.337  -2.116  22.943  0.00  0.00    +0.404 C 
ATOM      4  O   UNL     1      10.342  -2.750  23.242  0.00  0.00    -0.226 OA
ATOM      5  C   UNL     1       8.108  -3.086  24.807  0.00  0.00    +0.147 C 
ATOM      6  C   UNL     1       6.811  -3.859  24.843  0.00  0.00    -0.025 A 
ATOM      7  C   UNL     1       6.694  -4.908  25.764  0.00  0.00    +0.030 A 
ATOM      8  C   UNL     1       5.544  -5.690  25.802  0.00  0.00    +0.050 A 
ATOM      9  C   UNL     1       4.477  -5.409  24.951  0.00  0.00    +0.025 A 
ATOM     10  C   UNL     1       4.571  -4.346  24.046  0.00  0.00    +0.006 A 
ATOM     11  C   UNL     1       5.732  -3.558  23.992  0.00  0.00    -0.040 A 
ATOM     12  C   UNL     1       5.840  -2.424  22.991  0.00  0.00    +0.067 C 
ENDROOT
BRANCH   1  13
ATOM     13  C   UNL     1       6.456  -0.490  24.525  0.00  0.00    +0.234 C 
ATOM     14  N   UNL     1       7.419   0.372  25.013  0.00  0.00    -0.317 N 
ATOM     15  H   UNL     1       8.339   0.348  24.593  0.00  0.00    +0.148 HD
ATOM     16  C   UNL     1       7.160   1.304  26.084  0.00  0.00    +0.128 C 
ATOM     17  O   UNL     1       5.282  -0.435  24.886  0.00  0.00    -0.274 OA
ENDBRANCH   1  13
BRANCH   8  18
ATOM     18  N   UNL     1       5.496  -6.763  26.735  0.00  0.00    -0.197 N 
ATOM     19  H   UNL     1       4.791  -7.472  26.543  0.00  0.00    +0.176 HD
BRANCH  18  20
ATOM     20  S   UNL     1       5.471  -6.373  28.369  0.00  0.00    +0.164 S 
ATOM     21  O   UNL     1       4.724  -5.144  28.488  0.00  0.00    -0.127 OA
ATOM     22  O   UNL     1       6.804  -6.503  28.907  0.00  0.00    -0.127 OA
BRANCH  20  23
ATOM     23  O   UNL     1       4.605  -7.554  29.031  0.00  0.00    -0.238 OA
ATOM     24  H   UNL     1       3.901  -7.785  28.392  0.00  0.00    +0.246 HD
ENDBRANCH  20  23
ENDBRANCH  18  20
ENDBRANCH   8  18
BRANCH   3  25
ATOM     25  O   UNL     1       9.251  -1.309  21.856  0.00  0.00    -0.445 OA
BRANCH  25  26
ATOM     26  C   UNL     1      10.226  -0.256  21.788  0.00  0.00    +0.269 C 
BRANCH  26  27
ATOM     27  C   UNL     1       9.593   1.042  22.222  0.00  0.00    -0.010 A 
ATOM     28  C   UNL     1      10.200   1.831  23.210  0.00  0.00    +0.007 A 
ATOM     29  C   UNL     1       9.619   3.035  23.611  0.00  0.00    +0.000 A 
ATOM     30  C   UNL     1       8.429   3.465  23.026  0.00  0.00    +0.000 A 
ATOM     31  C   UNL     1       7.819   2.690  22.042  0.00  0.00    +0.000 A 
ATOM     32  C   UNL     1       8.398   1.485  21.639  0.00  0.00    +0.007 A 
ENDBRANCH  26  27
ENDBRANCH  25  26
ENDBRANCH   3  25
TORSDOF 7
ENDMDL
MODEL 2
REMARK VINA RESULT:      -7.1      1.854      3.292
REMARK  Name = 
REMARK  8 active torsions:
REMARK  status: ('A' for Active; 'I' for Inactive)
REMARK    1  A    between atoms: C_2  and  C_27
REMARK    2  A    between atoms: C_8  and  O_10
REMARK    3  A    between atoms: O_10  and  C_11
REMARK    4  A    between atoms: C_11  and  C_12
REMARK    5  A    between atoms: C_19  and  N_20
REMARK    6  A    between atoms: N_20  and  S_21
REMARK    7  A    between atoms: S_21  and  O_22
REMARK    8  A    between atoms: N_29  and  C_30
REMARK                            x       y       z     vdW  Elec       q    Type
REMARK                         _______ _______ _______ _____ _____    ______ ____
ROOT
ATOM      1  C   UNL     1       7.507  -2.566  22.860  0.00  0.00    +0.170 C 
ATOM      2  N   UNL     1       6.702  -1.582  23.612  0.00  0.00    -0.251 N 
ATOM      3  C   UNL     1       6.811  -0.210  23.493  0.00  0.00    +0.404 C 
ATOM      4  O   UNL     1       6.133   0.569  24.150  0.00  0.00    -0.226 OA
ATOM      5  C   UNL     1       5.859  -2.115  24.672  0.00  0.00    +0.147 C 
ATOM      6  C   UNL     1       6.519  -3.227  25.452  0.00  0.00    -0.025 A 
ATOM      7  C   UNL     1       5.870  -3.705  26.598  0.00  0.00    +0.030 A 
ATOM      8  C   UNL     1       6.458  -4.688  27.386  0.00  0.00    +0.050 A 
ATOM      9  C   UNL     1       7.683  -5.241  27.018  0.00  0.00    +0.025 A 
ATOM     10  C   UNL     1       8.328  -4.793  25.859  0.00  0.00    +0.006 A 
ATOM     11  C   UNL     1       7.747  -3.792  25.064  0.00  0.00    -0.040 A 
ATOM     12  C   UNL     1       8.463  -3.290  23.824  0.00  0.00    +0.067 C 
ENDROOT
BRANCH   1  13
ATOM     13  C   UNL     1       6.644  -3.586  22.070  0.00  0.00    +0.234 C 
ATOM     14  N   UNL     1       7.134  -4.878  22.071  0.00  0.00    -0.317 N 
ATOM     15  H   UNL     1       7.989  -5.065  22.580  0.00  0.00    +0.148 HD
ATOM     16  C   UNL     1       6.474  -5.963  21.386  0.00  0.00    +0.128 C 
ATOM     17  O   UNL     1       5.549  -3.300  21.591  0.00  0.00    -0.274 OA
ENDBRANCH   1  13
BRANCH   8  18
ATOM     18  N   UNL     1       5.768  -5.109  28.557  0.00  0.00    -0.197 N 
ATOM     19  H   UNL     1       6.179  -4.800  29.436  0.00  0.00    +0.176 HD
BRANCH  18  20
ATOM     20  S   UNL     1       5.349  -6.731  28.672  0.00  0.00    +0.164 S 
ATOM     21  O   UNL     1       4.101  -6.784  29.395  0.00  0.00    -0.127 OA
ATOM     22  O   UNL     1       6.501  -7.489  29.097  0.00  0.00    -0.127 OA
BRANCH  20  23
ATOM     23  O   UNL     1       5.067  -7.163  27.150  0.00  0.00    -0.238 OA
ATOM     24  H   UNL     1       4.159  -7.528  27.120  0.00  0.00    +0.246 HD
ENDBRANCH  20  23
ENDBRANCH  18  20
ENDBRANCH   8  18
BRANCH   3  25
ATOM     25  O   UNL     1       7.726   0.181  22.570  0.00  0.00    -0.445 OA
BRANCH  25  26
ATOM     26  C   UNL     1       7.525   1.490  22.015  0.00  0.00    +0.269 C 
BRANCH  26  27
ATOM     27  C   UNL     1       8.510   2.452  22.630  0.00  0.00    -0.010 A 
ATOM     28  C   UNL     1       8.072   3.677  23.154  0.00  0.00    +0.007 A 
ATOM     29  C   UNL     1       8.981   4.567  23.728  0.00  0.00    +0.000 A 
ATOM     30  C   UNL     1      10.335   4.241  23.789  0.00  0.00    +0.000 A 
ATOM     31  C   UNL     1      10.780   3.025  23.274  0.00  0.00    +0.000 A 
ATOM     32  C   UNL     1       9.873   2.132  22.699  0.00  0.00    +0.007 A 
ENDBRANCH  26  27
ENDBRANCH  25  26
ENDBRANCH   3  25
TORSDOF 7
ENDMDL
MODEL 3
REMARK VINA RESULT:      -6.9      1.827      2.422
REMARK  Name = 
REMARK  8 active torsions:
REMARK  status: ('A' for Active; 'I' for Inactive)
REMARK    1  A    between atoms: C_2  and  C_27
REMARK    2  A    between atoms: C_8  and  O_10
REMARK    3  A    between atoms: O_10  and  C_11
REMARK    4  A    between atoms: C_11  and  C_12
REMARK    5  A    between atoms: C_19  and  N_20
REMARK    6  A    between atoms: N_20  and  S_21
REMARK    7  A    between atoms: S_21  and  O_22
REMARK    8  A    between atoms: N_29  and  C_30
REMARK                            x       y       z     vdW  Elec       q    Type
REMARK                         _______ _______ _______ _____ _____    ______ ____
ROOT
ATOM      1  C   UNL     1       6.996  -0.227  24.471  0.00  0.00    +0.170 C 
ATOM      2  N   UNL     1       8.307  -0.320  25.145  0.00  0.00    -0.251 N 
ATOM      3  C   UNL     1       9.449   0.353  24.756  0.00  0.00    +0.404 C 
ATOM      4  O   UNL     1      10.521   0.232  25.336  0.00  0.00    -0.226 OA
ATOM      5  C   UNL     1       8.425  -1.330  26.186  0.00  0.00    +0.147 C 
ATOM      6  C   UNL     1       7.716  -2.619  25.846  0.00  0.00    -0.025 A 
ATOM      7  C   UNL     1       7.898  -3.717  26.697  0.00  0.00    +0.030 A 
ATOM      8  C   UNL     1       7.314  -4.944  26.403  0.00  0.00    +0.050 A 
ATOM      9  C   UNL     1       6.504  -5.083  25.277  0.00  0.00    +0.025 A 
ATOM     10  C   UNL     1       6.292  -3.986  24.435  0.00  0.00    +0.006 A 
ATOM     11  C   UNL     1       6.886  -2.746  24.717  0.00  0.00    -0.040 A 
ATOM     12  C   UNL     1       6.674  -1.567  23.786  0.00  0.00    +0.067 C 
ENDROOT
BRANCH   1  13
ATOM     13  C   UNL     1       5.847   0.193  25.426  0.00  0.00    +0.234 C 
ATOM     14  N   UNL     1       6.074   1.366  26.121  0.00  0.00    -0.317 N 
ATOM     15  H   UNL     1       6.942   1.859  25.955  0.00  0.00    +0.148 HD
ATOM     16  C   UNL     1       5.124   1.912  27.059  0.00  0.00    +0.128 C 
ATOM     17  O   UNL     1       4.769  -0.396  25.468  0.00  0.00    -0.274 OA
ENDBRANCH   1  13
BRANCH   8  18
ATOM     18  N   UNL     1       7.563  -6.032  27.285  0.00  0.00    -0.197 N 
ATOM     19  H   UNL     1       7.886  -6.887  26.837  0.00  0.00    +0.176 HD
BRANCH  18  20
ATOM     20  S   UNL     1       6.378  -6.404  28.415  0.00  0.00    +0.164 S 
ATOM     21  O   UNL     1       5.863  -5.146  28.901  0.00  0.00    -0.127 OA
ATOM     22  O   UNL     1       6.881  -7.412  29.316  0.00  0.00    -0.127 OA
BRANCH  20  23
ATOM     23  O   UNL     1       5.229  -7.115  27.546  0.00  0.00    -0.238 OA
ATOM     24  H   UNL     1       4.577  -7.481  28.179  0.00  0.00    +0.246 HD
ENDBRANCH  20  23
ENDBRANCH  18  20
ENDBRANCH   8  18
BRANCH   3  25
ATOM     25  O   UNL     1       9.258   1.168  23.687  0.00  0.00    -0.445 OA
BRANCH  25  26
ATOM     26  C   UNL     1      10.447   1.759  23.139  0.00  0.00    +0.269 C 
BRANCH  26  27
ATOM     27  C   UNL     1      10.455   3.237  23.438  0.00  0.00    -0.010 A 
ATOM     28  C   UNL     1       9.287   3.878  23.877  0.00  0.00    +0.007 A 
ATOM     29  C   UNL     1       9.293   5.245  24.159  0.00  0.00    +0.000 A 
ATOM     30  C   UNL     1      10.465   5.984  24.009  0.00  0.00    +0.000 A 
ATOM     31  C   UNL     1      11.631   5.356  23.576  0.00  0.00    +0.000 A 
ATOM     32  C   UNL     1      11.629   3.989  23.294  0.00  0.00    +0.007 A 
ENDBRANCH  26  27
ENDBRANCH  25  26
ENDBRANCH   3  25
TORSDOF 7
ENDMDL
MODEL 4
REMARK VINA RESULT:      -6.8      3.429      7.848
REMARK  Name = 
REMARK  8 active torsions:
REMARK  status: ('A' for Active; 'I' for Inactive)
REMARK    1  A    between atoms: C_2  and  C_27
REMARK    2  A    between atoms: C_8  and  O_10
REMARK    3  A    between atoms: O_10  and  C_11
REMARK    4  A    between atoms: C_11  and  C_12
REMARK    5  A    between atoms: C_19  and  N_20
REMARK    6  A    between atoms: N_20  and  S_21
REMARK    7  A    between atoms: S_21  and  O_22
REMARK    8  A    between atoms: N_29  and  C_30
REMARK                            x       y       z     vdW  Elec       q    Type
REMARK                         _______ _______ _______ _____ _____    ______ ____
ROOT
ATOM      1  C   UNL     1       6.554  -4.053  24.043  0.00  0.00    +0.170 C 
ATOM      2  N   UNL     1       8.023  -4.121  24.172  0.00  0.00    -0.251 N 
ATOM      3  C   UNL     1       8.707  -4.954  25.036  0.00  0.00    +0.404 C 
ATOM      4  O   UNL     1       9.929  -4.963  25.121  0.00  0.00    -0.226 OA
ATOM      5  C   UNL     1       8.780  -3.108  23.451  0.00  0.00    +0.147 C 
ATOM      6  C   UNL     1       8.132  -1.744  23.489  0.00  0.00    -0.025 A 
ATOM      7  C   UNL     1       8.849  -0.658  22.971  0.00  0.00    +0.030 A 
ATOM      8  C   UNL     1       8.325   0.628  23.030  0.00  0.00    +0.050 A 
ATOM      9  C   UNL     1       7.058   0.845  23.570  0.00  0.00    +0.025 A 
ATOM     10  C   UNL     1       6.320  -0.236  24.065  0.00  0.00    +0.006 A 
ATOM     11  C   UNL     1       6.845  -1.537  24.019  0.00  0.00    -0.040 A 
ATOM     12  C   UNL     1       6.052  -2.702  24.581  0.00  0.00    +0.067 C 
ENDROOT
BRANCH   1  13
ATOM     13  C   UNL     1       6.056  -4.287  22.591  0.00  0.00    +0.234 C 
ATOM     14  N   UNL     1       6.525  -5.444  22.000  0.00  0.00    -0.317 N 
ATOM     15  H   UNL     1       7.132  -6.046  22.542  0.00  0.00    +0.148 HD
ATOM     16  C   UNL     1       6.176  -5.828  20.654  0.00  0.00    +0.128 C 
ATOM     17  O   UNL     1       5.214  -3.570  22.055  0.00  0.00    -0.274 OA
ENDBRANCH   1  13
BRANCH   8  18
ATOM     18  N   UNL     1       9.114   1.697  22.520  0.00  0.00    -0.197 N 
ATOM     19  H   UNL     1       9.650   1.477  21.682  0.00  0.00    +0.176 HD
BRANCH  18  20
ATOM     20  S   UNL     1      10.085   2.534  23.605  0.00  0.00    +0.164 S 
ATOM     21  O   UNL     1      10.982   1.565  24.188  0.00  0.00    -0.127 OA
ATOM     22  O   UNL     1       9.256   3.385  24.424  0.00  0.00    -0.127 OA
BRANCH  20  23
ATOM     23  O   UNL     1      10.946   3.517  22.669  0.00  0.00    -0.238 OA
ATOM     24  H   UNL     1      10.313   4.125  22.236  0.00  0.00    +0.246 HD
ENDBRANCH  20  23
ENDBRANCH  18  20
ENDBRANCH   8  18
BRANCH   3  25
ATOM     25  O   UNL     1       7.895  -5.764  25.761  0.00  0.00    -0.445 OA
BRANCH  25  26
ATOM     26  C   UNL     1       7.632  -5.335  27.106  0.00  0.00    +0.269 C 
BRANCH  26  27
ATOM     27  C   UNL     1       6.166  -5.514  27.411  0.00  0.00    -0.010 A 
ATOM     28  C   UNL     1       5.379  -6.374  26.632  0.00  0.00    +0.007 A 
ATOM     29  C   UNL     1       4.023  -6.546  26.915  0.00  0.00    +0.000 A 
ATOM     30  C   UNL     1       3.441  -5.863  27.982  0.00  0.00    +0.000 A 
ATOM     31  C   UNL     1       4.214  -5.008  28.764  0.00  0.00    +0.000 A 
ATOM     32  C   UNL     1       5.571  -4.835  28.483  0.00  0.00    +0.007 A 
ENDBRANCH  26  27
ENDBRANCH  25  26
ENDBRANCH   3  25
TORSDOF 7
ENDMDL
MODEL 5
REMARK VINA RESULT:      -6.8      3.793      7.973
REMARK  Name = 
REMARK  8 active torsions:
REMARK  status: ('A' for Active; 'I' for Inactive)
REMARK    1  A    between atoms: C_2  and  C_27
REMARK    2  A    between atoms: C_8  and  O_10
REMARK    3  A    between atoms: O_10  and  C_11
REMARK    4  A    between atoms: C_11  and  C_12
REMARK    5  A    between atoms: C_19  and  N_20
REMARK    6  A    between atoms: N_20  and  S_21
REMARK    7  A    between atoms: S_21  and  O_22
REMARK    8  A    between atoms: N_29  and  C_30
REMARK                            x       y       z     vdW  Elec       q    Type
REMARK                         _______ _______ _______ _____ _____    ______ ____
ROOT
ATOM      1  C   UNL     1       8.580  -1.630  24.993  0.00  0.00    +0.170 C 
ATOM      2  N   UNL     1       7.854  -1.822  23.722  0.00  0.00    -0.251 N 
ATOM      3  C   UNL     1       7.874  -2.977  22.963  0.00  0.00    +0.404 C 
ATOM      4  O   UNL     1       7.269  -3.086  21.904  0.00  0.00    -0.226 OA
ATOM      5  C   UNL     1       7.217  -0.641  23.158  0.00  0.00    +0.147 C 
ATOM      6  C   UNL     1       8.047   0.611  23.312  0.00  0.00    -0.025 A 
ATOM      7  C   UNL     1       7.612   1.775  22.665  0.00  0.00    +0.030 A 
ATOM      8  C   UNL     1       8.367   2.941  22.726  0.00  0.00    +0.050 A 
ATOM      9  C   UNL     1       9.545   2.977  23.469  0.00  0.00    +0.025 A 
ATOM     10  C   UNL     1       9.976   1.828  24.143  0.00  0.00    +0.006 A 
ATOM     11  C   UNL     1       9.227   0.642  24.079  0.00  0.00    -0.040 A 
ATOM     12  C   UNL     1       9.712  -0.608  24.789  0.00  0.00    +0.067 C 
ENDROOT
BRANCH   1  13
ATOM     13  C   UNL     1       7.656  -1.202  26.165  0.00  0.00    +0.234 C 
ATOM     14  N   UNL     1       6.447  -1.868  26.219  0.00  0.00    -0.317 N 
ATOM     15  H   UNL     1       6.258  -2.573  25.518  0.00  0.00    +0.148 HD
ATOM     16  C   UNL     1       5.455  -1.602  27.232  0.00  0.00    +0.128 C 
ATOM     17  O   UNL     1       8.019  -0.428  27.048  0.00  0.00    -0.274 OA
ENDBRANCH   1  13
BRANCH   8  18
ATOM     18  N   UNL     1       7.892   4.082  22.021  0.00  0.00    -0.197 N 
ATOM     19  H   UNL     1       8.501   4.414  21.275  0.00  0.00    +0.176 HD
BRANCH  18  20
ATOM     20  S   UNL     1       7.351   5.388  22.928  0.00  0.00    +0.164 S 
ATOM     21  O   UNL     1       8.454   6.313  23.018  0.00  0.00    -0.127 OA
ATOM     22  O   UNL     1       6.676   4.899  24.106  0.00  0.00    -0.127 OA
BRANCH  20  23
ATOM     23  O   UNL     1       6.213   6.050  22.005  0.00  0.00    -0.238 OA
ATOM     24  H   UNL     1       6.005   5.403  21.301  0.00  0.00    +0.246 HD
ENDBRANCH  20  23
ENDBRANCH  18  20
ENDBRANCH   8  18
BRANCH   3  25
ATOM     25  O   UNL     1       8.610  -3.974  23.516  0.00  0.00    -0.445 OA
BRANCH  25  26
ATOM     26  C   UNL     1       7.939  -5.236  23.654  0.00  0.00    +0.269 C 
BRANCH  26  27
ATOM     27  C   UNL     1       7.205  -5.273  24.971  0.00  0.00    -0.010 A 
ATOM     28  C   UNL     1       7.916  -5.239  26.180  0.00  0.00    +0.007 A 
ATOM     29  C   UNL     1       7.240  -5.268  27.400  0.00  0.00    +0.000 A 
ATOM     30  C   UNL     1       5.847  -5.326  27.425  0.00  0.00    +0.000 A 
ATOM     31  C   UNL     1       5.131  -5.356  26.230  0.00  0.00    +0.000 A 
ATOM     32  C   UNL     1       5.806  -5.328  25.008  0.00  0.00    +0.007 A 
ENDBRANCH  26  27
ENDBRANCH  25  26
ENDBRANCH   3  25
TORSDOF 7
ENDMDL
MODEL 6
REMARK VINA RESULT:      -6.8      3.598      8.405
REMARK  Name = 
REMARK  8 active torsions:
REMARK  status: ('A' for Active; 'I' for Inactive)
REMARK    1  A    between atoms: C_2  and  C_27
REMARK    2  A    between atoms: C_8  and  O_10
REMARK    3  A    between atoms: O_10  and  C_11
REMARK    4  A    between atoms: C_11  and  C_12
REMARK    5  A    between atoms: C_19  and  N_20
REMARK    6  A    between atoms: N_20  and  S_21
REMARK    7  A    between atoms: S_21  and  O_22
REMARK    8  A    between atoms: N_29  and  C_30
REMARK                            x       y       z     vdW  Elec       q    Type
REMARK                         _______ _______ _______ _____ _____    ______ ____
ROOT
ATOM      1  C   UNL     1       7.819  -2.778  23.395  0.00  0.00    +0.170 C 
ATOM      2  N   UNL     1       6.966  -1.943  24.263  0.00  0.00    -0.251 N 
ATOM      3  C   UNL     1       5.624  -2.164  24.506  0.00  0.00    +0.404 C 
ATOM      4  O   UNL     1       4.949  -1.434  25.222  0.00  0.00    -0.226 OA
ATOM      5  C   UNL     1       7.558  -0.707  24.752  0.00  0.00    +0.147 C 
ATOM      6  C   UNL     1       8.408  -0.007  23.719  0.00  0.00    -0.025 A 
ATOM      7  C   UNL     1       8.894   1.272  24.021  0.00  0.00    +0.030 A 
ATOM      8  C   UNL     1       9.635   1.985  23.086  0.00  0.00    +0.050 A 
ATOM      9  C   UNL     1       9.938   1.417  21.850  0.00  0.00    +0.025 A 
ATOM     10  C   UNL     1       9.482   0.129  21.547  0.00  0.00    +0.006 A 
ATOM     11  C   UNL     1       8.724  -0.596  22.481  0.00  0.00    -0.040 A 
ATOM     12  C   UNL     1       8.209  -1.980  22.138  0.00  0.00    +0.067 C 
ENDROOT
BRANCH   1  13
ATOM     13  C   UNL     1       9.083  -3.319  24.117  0.00  0.00    +0.234 C 
ATOM     14  N   UNL     1       8.838  -4.328  25.028  0.00  0.00    -0.317 N 
ATOM     15  H   UNL     1       7.884  -4.642  25.149  0.00  0.00    +0.148 HD
ATOM     16  C   UNL     1       9.886  -4.951  25.801  0.00  0.00    +0.128 C 
ATOM     17  O   UNL     1      10.222  -2.969  23.814  0.00  0.00    -0.274 OA
ENDBRANCH   1  13
BRANCH   8  18
ATOM     18  N   UNL     1      10.073   3.293  23.436  0.00  0.00    -0.197 N 
ATOM     19  H   UNL     1      10.720   3.337  24.220  0.00  0.00    +0.176 HD
BRANCH  18  20
ATOM     20  S   UNL     1       8.902   4.486  23.605  0.00  0.00    +0.164 S 
ATOM     21  O   UNL     1       8.683   4.649  25.022  0.00  0.00    -0.127 OA
ATOM     22  O   UNL     1       7.813   4.213  22.698  0.00  0.00    -0.127 OA
BRANCH  20  23
ATOM     23  O   UNL     1       9.622   5.811  23.052  0.00  0.00    -0.238 OA
ATOM     24  H   UNL     1       9.812   6.378  23.827  0.00  0.00    +0.246 HD
ENDBRANCH  20  23
ENDBRANCH  18  20
ENDBRANCH   8  18
BRANCH   3  25
ATOM     25  O   UNL     1       5.139  -3.272  23.890  0.00  0.00    -0.445 OA
BRANCH  25  26
ATOM     26  C   UNL     1       5.179  -4.480  24.666  0.00  0.00    +0.269 C 
BRANCH  26  27
ATOM     27  C   UNL     1       4.039  -5.378  24.256  0.00  0.00    -0.010 A 
ATOM     28  C   UNL     1       4.010  -6.719  24.666  0.00  0.00    +0.007 A 
ATOM     29  C   UNL     1       2.953  -7.551  24.292  0.00  0.00    +0.000 A 
ATOM     30  C   UNL     1       1.914  -7.051  23.510  0.00  0.00    +0.000 A 
ATOM     31  C   UNL     1       1.932  -5.719  23.100  0.00  0.00    +0.000 A 
ATOM     32  C   UNL     1       2.987  -4.885  23.473  0.00  0.00    +0.007 A 
ENDBRANCH  26  27
ENDBRANCH  25  26
ENDBRANCH   3  25
TORSDOF 7
ENDMDL
MODEL 7
REMARK VINA RESULT:      -6.7      3.546      8.314
REMARK  Name = 
REMARK  8 active torsions:
REMARK  status: ('A' for Active; 'I' for Inactive)
REMARK    1  A    between atoms: C_2  and  C_27
REMARK    2  A    between atoms: C_8  and  O_10
REMARK    3  A    between atoms: O_10  and  C_11
REMARK    4  A    between atoms: C_11  and  C_12
REMARK    5  A    between atoms: C_19  and  N_20
REMARK    6  A    between atoms: N_20  and  S_21
REMARK    7  A    between atoms: S_21  and  O_22
REMARK    8  A    between atoms: N_29  and  C_30
REMARK                            x       y       z     vdW  Elec       q    Type
REMARK                         _______ _______ _______ _____ _____    ______ ____
ROOT
ATOM      1  C   UNL     1       7.780  -2.713  23.430  0.00  0.00    +0.170 C 
ATOM      2  N   UNL     1       6.951  -1.869  24.314  0.00  0.00    -0.251 N 
ATOM      3  C   UNL     1       5.601  -2.051  24.547  0.00  0.00    +0.404 C 
ATOM      4  O   UNL     1       4.948  -1.315  25.276  0.00  0.00    -0.226 OA
ATOM      5  C   UNL     1       7.581  -0.663  24.830  0.00  0.00    +0.147 C 
ATOM      6  C   UNL     1       8.457   0.030  23.814  0.00  0.00    -0.025 A 
ATOM      7  C   UNL     1       8.983   1.286  24.145  0.00  0.00    +0.030 A 
ATOM      8  C   UNL     1       9.750   1.995  23.226  0.00  0.00    +0.050 A 
ATOM      9  C   UNL     1      10.039   1.443  21.980  0.00  0.00    +0.025 A 
ATOM     10  C   UNL     1       9.542   0.177  21.649  0.00  0.00    +0.006 A 
ATOM     11  C   UNL     1       8.758  -0.542  22.565  0.00  0.00    -0.040 A 
ATOM     12  C   UNL     1       8.199  -1.902  22.191  0.00  0.00    +0.067 C 
ENDROOT
BRANCH   1  13
ATOM     13  C   UNL     1       9.023  -3.309  24.145  0.00  0.00    +0.234 C 
ATOM     14  N   UNL     1       8.740  -4.313  25.051  0.00  0.00    -0.317 N 
ATOM     15  H   UNL     1       7.774  -4.588  25.173  0.00  0.00    +0.148 HD
ATOM     16  C   UNL     1       9.764  -4.983  25.816  0.00  0.00    +0.128 C 
ATOM     17  O   UNL     1      10.174  -3.005  23.840  0.00  0.00    -0.274 OA
ENDBRANCH   1  13
BRANCH   8  18
ATOM     18  N   UNL     1      10.229   3.280  23.605  0.00  0.00    -0.197 N 
ATOM     19  H   UNL     1      10.841   3.292  24.418  0.00  0.00    +0.176 HD
BRANCH  18  20
ATOM     20  S   UNL     1       9.105   4.522  23.730  0.00  0.00    +0.164 S 
ATOM     21  O   UNL     1       8.867   4.722  25.139  0.00  0.00    -0.127 OA
ATOM     22  O   UNL     1       8.022   4.277  22.808  0.00  0.00    -0.127 OA
BRANCH  20  23
ATOM     23  O   UNL     1       9.889   5.806  23.166  0.00  0.00    -0.238 OA
ATOM     24  H   UNL     1       9.321   6.586  23.335  0.00  0.00    +0.246 HD
ENDBRANCH  20  23
ENDBRANCH  18  20
ENDBRANCH   8  18
BRANCH   3  25
ATOM     25  O   UNL     1       5.083  -3.130  23.907  0.00  0.00    -0.445 OA
BRANCH  25  26
ATOM     26  C   UNL     1       3.834  -3.616  24.424  0.00  0.00    +0.269 C 
BRANCH  26  27
ATOM     27  C   UNL     1       4.101  -4.642  25.496  0.00  0.00    -0.010 A 
ATOM     28  C   UNL     1       4.760  -5.840  25.182  0.00  0.00    +0.007 A 
ATOM     29  C   UNL     1       5.013  -6.790  26.173  0.00  0.00    +0.000 A 
ATOM     30  C   UNL     1       4.614  -6.551  27.487  0.00  0.00    +0.000 A 
ATOM     31  C   UNL     1       3.962  -5.363  27.810  0.00  0.00    +0.000 A 
ATOM     32  C   UNL     1       3.708  -4.411  26.821  0.00  0.00    +0.007 A 
ENDBRANCH  26  27
ENDBRANCH  25  26
ENDBRANCH   3  25
TORSDOF 7
ENDMDL
MODEL 8
REMARK VINA RESULT:      -6.7      2.939      3.850
REMARK  Name = 
REMARK  8 active torsions:
REMARK  status: ('A' for Active; 'I' for Inactive)
REMARK    1  A    between atoms: C_2  and  C_27
REMARK    2  A    between atoms: C_8  and  O_10
REMARK    3  A    between atoms: O_10  and  C_11
REMARK    4  A    between atoms: C_11  and  C_12
REMARK    5  A    between atoms: C_19  and  N_20
REMARK    6  A    between atoms: N_20  and  S_21
REMARK    7  A    between atoms: S_21  and  O_22
REMARK    8  A    between atoms: N_29  and  C_30
REMARK                            x       y       z     vdW  Elec       q    Type
REMARK                         _______ _______ _______ _____ _____    ______ ____
ROOT
ATOM      1  C   UNL     1       6.415  -3.263  25.740  0.00  0.00    +0.170 C 
ATOM      2  N   UNL     1       7.226  -4.378  25.212  0.00  0.00    -0.251 N 
ATOM      3  C   UNL     1       8.510  -4.260  24.717  0.00  0.00    +0.404 C 
ATOM      4  O   UNL     1       9.140  -5.211  24.272  0.00  0.00    -0.226 OA
ATOM      5  C   UNL     1       6.542  -5.652  25.052  0.00  0.00    +0.147 C 
ATOM      6  C   UNL     1       5.128  -5.507  24.542  0.00  0.00    -0.025 A 
ATOM      7  C   UNL     1       4.429  -6.671  24.194  0.00  0.00    +0.030 A 
ATOM      8  C   UNL     1       3.146  -6.593  23.665  0.00  0.00    +0.050 A 
ATOM      9  C   UNL     1       2.523  -5.355  23.516  0.00  0.00    +0.025 A 
ATOM     10  C   UNL     1       3.200  -4.188  23.887  0.00  0.00    +0.006 A 
ATOM     11  C   UNL     1       4.500  -4.255  24.411  0.00  0.00    -0.040 A 
ATOM     12  C   UNL     1       5.240  -2.985  24.786  0.00  0.00    +0.067 C 
ENDROOT
BRANCH   1  13
ATOM     13  C   UNL     1       5.904  -3.510  27.185  0.00  0.00    +0.234 C 
ATOM     14  N   UNL     1       4.737  -2.842  27.506  0.00  0.00    -0.317 N 
ATOM     15  H   UNL     1       4.306  -2.266  26.795  0.00  0.00    +0.148 HD
ATOM     16  C   UNL     1       4.113  -2.943  28.803  0.00  0.00    +0.128 C 
ATOM     17  O   UNL     1       6.420  -4.330  27.942  0.00  0.00    -0.274 OA
ENDBRANCH   1  13
BRANCH   8  18
ATOM     18  N   UNL     1       2.499  -7.806  23.298  0.00  0.00    -0.197 N 
ATOM     19  H   UNL     1       2.004  -7.780  22.409  0.00  0.00    +0.176 HD
BRANCH  18  20
ATOM     20  S   UNL     1       1.540  -8.557  24.454  0.00  0.00    +0.164 S 
ATOM     21  O   UNL     1       0.659  -9.450  23.741  0.00  0.00    -0.127 OA
ATOM     22  O   UNL     1       1.030  -7.561  25.366  0.00  0.00    -0.127 OA
BRANCH  20  23
ATOM     23  O   UNL     1       2.580  -9.444  25.298  0.00  0.00    -0.238 OA
ATOM     24  H   UNL     1       3.379  -8.894  25.436  0.00  0.00    +0.246 HD
ENDBRANCH  20  23
ENDBRANCH  18  20
ENDBRANCH   8  18
BRANCH   3  25
ATOM     25  O   UNL     1       9.004  -2.998  24.790  0.00  0.00    -0.445 OA
BRANCH  25  26
ATOM     26  C   UNL     1       9.923  -2.631  23.749  0.00  0.00    +0.269 C 
BRANCH  26  27
ATOM     27  C   UNL     1       9.939  -1.130  23.600  0.00  0.00    -0.010 A 
ATOM     28  C   UNL     1       9.939  -0.306  24.735  0.00  0.00    +0.007 A 
ATOM     29  C   UNL     1       9.959   1.084  24.601  0.00  0.00    +0.000 A 
ATOM     30  C   UNL     1       9.982   1.662  23.332  0.00  0.00    +0.000 A 
ATOM     31  C   UNL     1       9.985   0.852  22.199  0.00  0.00    +0.000 A 
ATOM     32  C   UNL     1       9.965  -0.538  22.330  0.00  0.00    +0.007 A 
ENDBRANCH  26  27
ENDBRANCH  25  26
ENDBRANCH   3  25
TORSDOF 7
ENDMDL
MODEL 9
REMARK VINA RESULT:      -6.4      3.398      8.120
REMARK  Name = 
REMARK  8 active torsions:
REMARK  status: ('A' for Active; 'I' for Inactive)
REMARK    1  A    between atoms: C_2  and  C_27
REMARK    2  A    between atoms: C_8  and  O_10
REMARK    3  A    between atoms: O_10  and  C_11
REMARK    4  A    between atoms: C_11  and  C_12
REMARK    5  A    between atoms: C_19  and  N_20
REMARK    6  A    between atoms: N_20  and  S_21
REMARK    7  A    between atoms: S_21  and  O_22
REMARK    8  A    between atoms: N_29  and  C_30
REMARK                            x       y       z     vdW  Elec       q    Type
REMARK                         _______ _______ _______ _____ _____    ______ ____
ROOT
ATOM      1  C   UNL     1       6.768  -3.442  24.475  0.00  0.00    +0.170 C 
ATOM      2  N   UNL     1       6.199  -2.243  25.123  0.00  0.00    -0.251 N 
ATOM      3  C   UNL     1       4.851  -1.962  25.226  0.00  0.00    +0.404 C 
ATOM      4  O   UNL     1       4.424  -0.945  25.758  0.00  0.00    -0.226 OA
ATOM      5  C   UNL     1       7.149  -1.215  25.522  0.00  0.00    +0.147 C 
ATOM      6  C   UNL     1       8.260  -1.013  24.521  0.00  0.00    -0.025 A 
ATOM      7  C   UNL     1       9.139   0.061  24.718  0.00  0.00    +0.030 A 
ATOM      8  C   UNL     1      10.147   0.328  23.798  0.00  0.00    +0.050 A 
ATOM      9  C   UNL     1      10.320  -0.497  22.688  0.00  0.00    +0.025 A 
ATOM     10  C   UNL     1       9.466  -1.590  22.495  0.00  0.00    +0.006 A 
ATOM     11  C   UNL     1       8.439  -1.861  23.413  0.00  0.00    -0.040 A 
ATOM     12  C   UNL     1       7.500  -3.030  23.185  0.00  0.00    +0.067 C 
ENDROOT
BRANCH   1  13
ATOM     13  C   UNL     1       7.710  -4.252  25.407  0.00  0.00    +0.234 C 
ATOM     14  N   UNL     1       8.916  -4.611  24.836  0.00  0.00    -0.317 N 
ATOM     15  H   UNL     1       9.100  -4.321  23.884  0.00  0.00    +0.148 HD
ATOM     16  C   UNL     1       9.917  -5.371  25.545  0.00  0.00    +0.128 C 
ATOM     17  O   UNL     1       7.460  -4.448  26.594  0.00  0.00    -0.274 OA
ENDBRANCH   1  13
BRANCH   8  18
ATOM     18  N   UNL     1      10.986   1.452  24.033  0.00  0.00    -0.197 N 
ATOM     19  H   UNL     1      11.229   1.615  25.008  0.00  0.00    +0.176 HD
BRANCH  18  20
ATOM     20  S   UNL     1      10.559   2.907  23.310  0.00  0.00    +0.164 S 
ATOM     21  O   UNL     1      11.721   3.760  23.381  0.00  0.00    -0.127 OA
ATOM     22  O   UNL     1       9.277   3.331  23.821  0.00  0.00    -0.127 OA
BRANCH  20  23
ATOM     23  O   UNL     1      10.317   2.514  21.771  0.00  0.00    -0.238 OA
ATOM     24  H   UNL     1      10.602   1.583  21.665  0.00  0.00    +0.246 HD
ENDBRANCH  20  23
ENDBRANCH  18  20
ENDBRANCH   8  18
BRANCH   3  25
ATOM     25  O   UNL     1       4.056  -2.927  24.698  0.00  0.00    -0.445 OA
BRANCH  25  26
ATOM     26  C   UNL     1       3.110  -3.515  25.606  0.00  0.00    +0.269 C 
BRANCH  26  27
ATOM     27  C   UNL     1       3.762  -4.665  26.332  0.00  0.00    -0.010 A 
ATOM     28  C   UNL     1       4.157  -5.814  25.630  0.00  0.00    +0.007 A 
ATOM     29  C   UNL     1       4.765  -6.878  26.298  0.00  0.00    +0.000 A 
ATOM     30  C   UNL     1       4.988  -6.804  27.672  0.00  0.00    +0.000 A 
ATOM     31  C   UNL     1       4.602  -5.666  28.378  0.00  0.00    +0.000 A 
ATOM     32  C   UNL     1       3.994  -4.600  27.712  0.00  0.00    +0.007 A 
ENDBRANCH  26  27
ENDBRANCH  25  26
ENDBRANCH   3  25
TORSDOF 7
ENDMDL
