MODEL 1
REMARK VINA RESULT:      -5.4      0.000      0.000
REMARK  Name = 
REMARK  9 active torsions:
REMARK  status: ('A' for Active; 'I' for Inactive)
REMARK    1  A    between atoms: C_1  and  C_2
REMARK    2  A    between atoms: C_2  and  C_3
REMARK    3  A    between atoms: C_2  and  N_4
REMARK    4  A    between atoms: N_4  and  C_5
REMARK    5  A    between atoms: C_5  and  C_6
REMARK    6  A    between atoms: C_6  and  O_7
REMARK    7  A    between atoms: C_6  and  C_8
REMARK    8  A    between atoms: C_10  and  O_11
REMARK    9  A    between atoms: C_12  and  O_13
REMARK                            x       y       z     vdW  Elec       q    Type
REMARK                         _______ _______ _______ _____ _____    ______ ____
ROOT
ATOM      1  C   UNL     1       8.353  -4.467  24.065  0.00  0.00    -0.014 A 
ATOM      2  C   UNL     1       8.018  -3.175  23.613  0.00  0.00    +0.010 A 
ATOM      3  C   UNL     1       7.112  -2.992  22.568  0.00  0.00    +0.049 A 
ATOM      4  C   UNL     1       6.538  -4.100  21.970  0.00  0.00    +0.158 A 
ATOM      5  C   UNL     1       6.848  -5.386  22.406  0.00  0.00    +0.159 A 
ATOM      6  C   UNL     1       7.749  -5.578  23.448  0.00  0.00    +0.055 A 
ENDROOT
BRANCH   4   7
ATOM      7  O   UNL     1       5.663  -3.920  20.937  0.00  0.00    -0.503 OA
ATOM      8  H   UNL     1       6.197  -3.502  20.233  0.00  0.00    +0.292 HD
ENDBRANCH   4   7
BRANCH   5   9
ATOM      9  O   UNL     1       6.245  -6.433  21.768  0.00  0.00    -0.503 OA
ATOM     10  H   UNL     1       5.871  -6.111  20.928  0.00  0.00    +0.292 HD
ENDBRANCH   5   9
BRANCH   1  11
ATOM     11  C   UNL     1       9.383  -4.669  25.166  0.00  0.00    +0.158 C 
BRANCH  11  12
ATOM     12  O   UNL     1       9.902  -6.004  25.148  0.00  0.00    -0.386 OA
ATOM     13  H   UNL     1      10.829  -5.976  25.435  0.00  0.00    +0.210 HD
ENDBRANCH  11  12
BRANCH  11  14
ATOM     14  C   UNL     1       8.770  -4.383  26.561  0.00  0.00    +0.117 C 
BRANCH  14  15
ATOM     15  N   UNL     1       8.062  -5.551  27.112  0.00  0.00    -0.311 NA
ATOM     16  H   UNL     1       8.153  -6.316  26.435  0.00  0.00    +0.122 HD
BRANCH  15  18
ATOM     17  C   UNL     1       6.379  -3.785  27.156  0.00  0.00    +0.023 C 
ATOM     18  C   UNL     1       6.643  -5.276  27.377  0.00  0.00    +0.048 C 
ATOM     19  C   UNL     1       5.727  -6.099  26.469  0.00  0.00    +0.023 C 
ENDBRANCH  15  18
ENDBRANCH  14  15
ENDBRANCH  11  14
ENDBRANCH   1  11
TORSDOF 7
ENDMDL
MODEL 2
REMARK VINA RESULT:      -5.4      3.975      5.405
REMARK  Name = 
REMARK  9 active torsions:
REMARK  status: ('A' for Active; 'I' for Inactive)
REMARK    1  A    between atoms: C_1  and  C_2
REMARK    2  A    between atoms: C_2  and  C_3
REMARK    3  A    between atoms: C_2  and  N_4
REMARK    4  A    between atoms: N_4  and  C_5
REMARK    5  A    between atoms: C_5  and  C_6
REMARK    6  A    between atoms: C_6  and  O_7
REMARK    7  A    between atoms: C_6  and  C_8
REMARK    8  A    between atoms: C_10  and  O_11
REMARK    9  A    between atoms: C_12  and  O_13
REMARK                            x       y       z     vdW  Elec       q    Type
REMARK                         _______ _______ _______ _____ _____    ______ ____
ROOT
ATOM      1  C   UNL     1       9.454  -1.335  23.582  0.00  0.00    -0.014 A 
ATOM      2  C   UNL     1       9.222  -1.270  22.193  0.00  0.00    +0.010 A 
ATOM      3  C   UNL     1       9.465  -0.096  21.478  0.00  0.00    +0.049 A 
ATOM      4  C   UNL     1       9.940   1.018  22.150  0.00  0.00    +0.158 A 
ATOM      5  C   UNL     1      10.184   0.973  23.520  0.00  0.00    +0.159 A 
ATOM      6  C   UNL     1       9.946  -0.192  24.240  0.00  0.00    +0.055 A 
ENDROOT
BRANCH   4   7
ATOM      7  O   UNL     1      10.163   2.169  21.451  0.00  0.00    -0.503 OA
ATOM      8  H   UNL     1      10.806   2.666  21.995  0.00  0.00    +0.292 HD
ENDBRANCH   4   7
BRANCH   5   9
ATOM      9  O   UNL     1      10.651   2.110  24.116  0.00  0.00    -0.503 OA
ATOM     10  H   UNL     1      11.141   1.859  24.922  0.00  0.00    +0.292 HD
ENDBRANCH   5   9
BRANCH   1  11
ATOM     11  C   UNL     1       9.135  -2.596  24.371  0.00  0.00    +0.158 C 
BRANCH  11  12
ATOM     12  O   UNL     1      10.117  -3.613  24.135  0.00  0.00    -0.386 OA
ATOM     13  H   UNL     1       9.931  -4.359  24.727  0.00  0.00    +0.210 HD
ENDBRANCH  11  12
BRANCH  11  14
ATOM     14  C   UNL     1       7.735  -3.147  23.997  0.00  0.00    +0.117 C 
BRANCH  14  15
ATOM     15  N   UNL     1       7.804  -4.495  23.406  0.00  0.00    -0.311 NA
ATOM     16  H   UNL     1       8.794  -4.749  23.326  0.00  0.00    +0.122 HD
BRANCH  15  18
ATOM     17  C   UNL     1       6.595  -5.977  21.890  0.00  0.00    +0.023 C 
ATOM     18  C   UNL     1       7.154  -4.566  22.090  0.00  0.00    +0.048 C 
ATOM     19  C   UNL     1       6.023  -3.544  21.960  0.00  0.00    +0.023 C 
ENDBRANCH  15  18
ENDBRANCH  14  15
ENDBRANCH  11  14
ENDBRANCH   1  11
TORSDOF 7
ENDMDL
MODEL 3
REMARK VINA RESULT:      -5.2      6.648      8.402
REMARK  Name = 
REMARK  9 active torsions:
REMARK  status: ('A' for Active; 'I' for Inactive)
REMARK    1  A    between atoms: C_1  and  C_2
REMARK    2  A    between atoms: C_2  and  C_3
REMARK    3  A    between atoms: C_2  and  N_4
REMARK    4  A    between atoms: N_4  and  C_5
REMARK    5  A    between atoms: C_5  and  C_6
REMARK    6  A    between atoms: C_6  and  O_7
REMARK    7  A    between atoms: C_6  and  C_8
REMARK    8  A    between atoms: C_10  and  O_11
REMARK    9  A    between atoms: C_12  and  O_13
REMARK                            x       y       z     vdW  Elec       q    Type
REMARK                         _______ _______ _______ _____ _____    ______ ____
ROOT
ATOM      1  C   UNL     1       9.442   1.177  23.425  0.00  0.00    -0.014 A 
ATOM      2  C   UNL     1       9.403   0.591  24.705  0.00  0.00    +0.010 A 
ATOM      3  C   UNL     1       9.651  -0.772  24.879  0.00  0.00    +0.049 A 
ATOM      4  C   UNL     1       9.938  -1.553  23.773  0.00  0.00    +0.158 A 
ATOM      5  C   UNL     1       9.990  -0.992  22.500  0.00  0.00    +0.159 A 
ATOM      6  C   UNL     1       9.746   0.365  22.317  0.00  0.00    +0.055 A 
ENDROOT
BRANCH   4   7
ATOM      7  O   UNL     1      10.165  -2.888  23.944  0.00  0.00    -0.503 OA
ATOM      8  H   UNL     1       9.504  -3.325  23.371  0.00  0.00    +0.292 HD
ENDBRANCH   4   7
BRANCH   5   9
ATOM      9  O   UNL     1      10.279  -1.823  21.454  0.00  0.00    -0.503 OA
ATOM     10  H   UNL     1       9.629  -1.665  20.744  0.00  0.00    +0.292 HD
ENDBRANCH   5   9
BRANCH   1  11
ATOM     11  C   UNL     1       9.117   2.650  23.228  0.00  0.00    +0.158 C 
BRANCH  11  12
ATOM     12  O   UNL     1       8.943   2.959  21.839  0.00  0.00    -0.386 OA
ATOM     13  H   UNL     1       9.744   2.686  21.364  0.00  0.00    +0.210 HD
ENDBRANCH  11  12
BRANCH  11  14
ATOM     14  C   UNL     1      10.237   3.550  23.810  0.00  0.00    +0.117 C 
BRANCH  14  15
ATOM     15  N   UNL     1      11.239   3.922  22.796  0.00  0.00    -0.311 NA
ATOM     16  H   UNL     1      11.684   3.059  22.469  0.00  0.00    +0.122 HD
BRANCH  15  18
ATOM     17  C   UNL     1      13.074   5.396  22.152  0.00  0.00    +0.023 C 
ATOM     18  C   UNL     1      12.253   4.848  23.321  0.00  0.00    +0.048 C 
ATOM     19  C   UNL     1      11.617   6.009  24.089  0.00  0.00    +0.023 C 
ENDBRANCH  15  18
ENDBRANCH  14  15
ENDBRANCH  11  14
ENDBRANCH   1  11
TORSDOF 7
ENDMDL
MODEL 4
REMARK VINA RESULT:      -5.2      2.400      4.712
REMARK  Name = 
REMARK  9 active torsions:
REMARK  status: ('A' for Active; 'I' for Inactive)
REMARK    1  A    between atoms: C_1  and  C_2
REMARK    2  A    between atoms: C_2  and  C_3
REMARK    3  A    between atoms: C_2  and  N_4
REMARK    4  A    between atoms: N_4  and  C_5
REMARK    5  A    between atoms: C_5  and  C_6
REMARK    6  A    between atoms: C_6  and  O_7
REMARK    7  A    between atoms: C_6  and  C_8
REMARK    8  A    between atoms: C_10  and  O_11
REMARK    9  A    between atoms: C_12  and  O_13
REMARK                            x       y       z     vdW  Elec       q    Type
REMARK                         _______ _______ _______ _____ _____    ______ ____
ROOT
ATOM      1  C   UNL     1       7.302  -3.460  24.303  0.00  0.00    -0.014 A 
ATOM      2  C   UNL     1       6.423  -3.455  25.404  0.00  0.00    +0.010 A 
ATOM      3  C   UNL     1       6.655  -4.273  26.512  0.00  0.00    +0.049 A 
ATOM      4  C   UNL     1       7.766  -5.099  26.520  0.00  0.00    +0.158 A 
ATOM      5  C   UNL     1       8.651  -5.113  25.446  0.00  0.00    +0.159 A 
ATOM      6  C   UNL     1       8.430  -4.301  24.339  0.00  0.00    +0.055 A 
ENDROOT
BRANCH   4   7
ATOM      7  O   UNL     1       7.983  -5.909  27.598  0.00  0.00    -0.503 OA
ATOM      8  H   UNL     1       7.293  -5.652  28.241  0.00  0.00    +0.292 HD
ENDBRANCH   4   7
BRANCH   5   9
ATOM      9  O   UNL     1       9.726  -5.954  25.522  0.00  0.00    -0.503 OA
ATOM     10  H   UNL     1       9.514  -6.672  26.148  0.00  0.00    +0.292 HD
ENDBRANCH   5   9
BRANCH   1  11
ATOM     11  C   UNL     1       7.019  -2.611  23.072  0.00  0.00    +0.158 C 
BRANCH  11  12
ATOM     12  O   UNL     1       6.028  -1.614  23.351  0.00  0.00    -0.386 OA
ATOM     13  H   UNL     1       6.479  -0.818  23.676  0.00  0.00    +0.210 HD
ENDBRANCH  11  12
BRANCH  11  14
ATOM     14  C   UNL     1       6.536  -3.489  21.890  0.00  0.00    +0.117 C 
BRANCH  14  15
ATOM     15  N   UNL     1       5.254  -4.156  22.176  0.00  0.00    -0.311 NA
ATOM     16  H   UNL     1       4.957  -3.870  23.114  0.00  0.00    +0.122 HD
BRANCH  15  18
ATOM     17  C   UNL     1       6.739  -5.996  21.572  0.00  0.00    +0.023 C 
ATOM     18  C   UNL     1       5.353  -5.621  22.100  0.00  0.00    +0.048 C 
ATOM     19  C   UNL     1       5.129  -6.275  23.465  0.00  0.00    +0.023 C 
ENDBRANCH  15  18
ENDBRANCH  14  15
ENDBRANCH  11  14
ENDBRANCH   1  11
TORSDOF 7
ENDMDL
MODEL 5
REMARK VINA RESULT:      -5.1      4.278      5.684
REMARK  Name = 
REMARK  9 active torsions:
REMARK  status: ('A' for Active; 'I' for Inactive)
REMARK    1  A    between atoms: C_1  and  C_2
REMARK    2  A    between atoms: C_2  and  C_3
REMARK    3  A    between atoms: C_2  and  N_4
REMARK    4  A    between atoms: N_4  and  C_5
REMARK    5  A    between atoms: C_5  and  C_6
REMARK    6  A    between atoms: C_6  and  O_7
REMARK    7  A    between atoms: C_6  and  C_8
REMARK    8  A    between atoms: C_10  and  O_11
REMARK    9  A    between atoms: C_12  and  O_13
REMARK                            x       y       z     vdW  Elec       q    Type
REMARK                         _______ _______ _______ _____ _____    ______ ____
ROOT
ATOM      1  C   UNL     1       9.554  -0.759  23.653  0.00  0.00    -0.014 A 
ATOM      2  C   UNL     1      10.398  -0.038  24.521  0.00  0.00    +0.010 A 
ATOM      3  C   UNL     1      10.763   1.279  24.237  0.00  0.00    +0.049 A 
ATOM      4  C   UNL     1      10.286   1.879  23.084  0.00  0.00    +0.158 A 
ATOM      5  C   UNL     1       9.444   1.187  22.218  0.00  0.00    +0.159 A 
ATOM      6  C   UNL     1       9.074  -0.125  22.493  0.00  0.00    +0.055 A 
ENDROOT
BRANCH   4   7
ATOM      7  O   UNL     1      10.656   3.162  22.801  0.00  0.00    -0.503 OA
ATOM      8  H   UNL     1      11.180   3.091  21.979  0.00  0.00    +0.292 HD
ENDBRANCH   4   7
BRANCH   5   9
ATOM      9  O   UNL     1       9.012   1.842  21.098  0.00  0.00    -0.503 OA
ATOM     10  H   UNL     1       8.217   2.358  21.328  0.00  0.00    +0.292 HD
ENDBRANCH   5   9
BRANCH   1  11
ATOM     11  C   UNL     1       9.202  -2.213  23.933  0.00  0.00    +0.158 C 
BRANCH  11  12
ATOM     12  O   UNL     1      10.355  -3.055  23.809  0.00  0.00    -0.386 OA
ATOM     13  H   UNL     1      10.118  -3.816  23.255  0.00  0.00    +0.210 HD
ENDBRANCH  11  12
BRANCH  11  14
ATOM     14  C   UNL     1       8.102  -2.715  22.964  0.00  0.00    +0.117 C 
BRANCH  14  15
ATOM     15  N   UNL     1       7.697  -4.103  23.247  0.00  0.00    -0.311 NA
ATOM     16  H   UNL     1       8.468  -4.715  22.961  0.00  0.00    +0.122 HD
BRANCH  15  18
ATOM     17  C   UNL     1       5.846  -3.233  21.916  0.00  0.00    +0.023 C 
ATOM     18  C   UNL     1       6.462  -4.483  22.547  0.00  0.00    +0.048 C 
ATOM     19  C   UNL     1       6.725  -5.529  21.461  0.00  0.00    +0.023 C 
ENDBRANCH  15  18
ENDBRANCH  14  15
ENDBRANCH  11  14
ENDBRANCH   1  11
TORSDOF 7
ENDMDL
MODEL 6
REMARK VINA RESULT:      -5.0      3.735      5.896
REMARK  Name = 
REMARK  9 active torsions:
REMARK  status: ('A' for Active; 'I' for Inactive)
REMARK    1  A    between atoms: C_1  and  C_2
REMARK    2  A    between atoms: C_2  and  C_3
REMARK    3  A    between atoms: C_2  and  N_4
REMARK    4  A    between atoms: N_4  and  C_5
REMARK    5  A    between atoms: C_5  and  C_6
REMARK    6  A    between atoms: C_6  and  O_7
REMARK    7  A    between atoms: C_6  and  C_8
REMARK    8  A    between atoms: C_10  and  O_11
REMARK    9  A    between atoms: C_12  and  O_13
REMARK                            x       y       z     vdW  Elec       q    Type
REMARK                         _______ _______ _______ _____ _____    ______ ____
ROOT
ATOM      1  C   UNL     1       8.898  -2.686  24.918  0.00  0.00    -0.014 A 
ATOM      2  C   UNL     1       7.888  -2.558  25.891  0.00  0.00    +0.010 A 
ATOM      3  C   UNL     1       7.566  -3.620  26.738  0.00  0.00    +0.049 A 
ATOM      4  C   UNL     1       8.255  -4.814  26.614  0.00  0.00    +0.158 A 
ATOM      5  C   UNL     1       9.263  -4.960  25.665  0.00  0.00    +0.159 A 
ATOM      6  C   UNL     1       9.590  -3.908  24.817  0.00  0.00    +0.055 A 
ENDROOT
BRANCH   4   7
ATOM      7  O   UNL     1       7.929  -5.857  27.433  0.00  0.00    -0.503 OA
ATOM      8  H   UNL     1       7.032  -5.642  27.760  0.00  0.00    +0.292 HD
ENDBRANCH   4   7
BRANCH   5   9
ATOM      9  O   UNL     1       9.898  -6.168  25.598  0.00  0.00    -0.503 OA
ATOM     10  H   UNL     1      10.841  -6.035  25.808  0.00  0.00    +0.292 HD
ENDBRANCH   5   9
BRANCH   1  11
ATOM     11  C   UNL     1       9.210  -1.548  23.957  0.00  0.00    +0.158 C 
BRANCH  11  12
ATOM     12  O   UNL     1      10.097  -1.980  22.918  0.00  0.00    -0.386 OA
ATOM     13  H   UNL     1       9.898  -1.471  22.116  0.00  0.00    +0.210 HD
ENDBRANCH  11  12
BRANCH  11  14
ATOM     14  C   UNL     1       9.849  -0.350  24.703  0.00  0.00    +0.117 C 
BRANCH  14  15
ATOM     15  N   UNL     1       9.375   0.947  24.189  0.00  0.00    -0.311 NA
ATOM     16  H   UNL     1       8.457   0.794  23.760  0.00  0.00    +0.122 HD
BRANCH  15  18
ATOM     17  C   UNL     1       9.687   1.413  21.814  0.00  0.00    +0.023 C 
ATOM     18  C   UNL     1      10.300   1.536  23.211  0.00  0.00    +0.048 C 
ATOM     19  C   UNL     1      10.587   3.008  23.517  0.00  0.00    +0.023 C 
ENDBRANCH  15  18
ENDBRANCH  14  15
ENDBRANCH  11  14
ENDBRANCH   1  11
TORSDOF 7
ENDMDL
MODEL 7
REMARK VINA RESULT:      -5.0      4.781      5.921
REMARK  Name = 
REMARK  9 active torsions:
REMARK  status: ('A' for Active; 'I' for Inactive)
REMARK    1  A    between atoms: C_1  and  C_2
REMARK    2  A    between atoms: C_2  and  C_3
REMARK    3  A    between atoms: C_2  and  N_4
REMARK    4  A    between atoms: N_4  and  C_5
REMARK    5  A    between atoms: C_5  and  C_6
REMARK    6  A    between atoms: C_6  and  O_7
REMARK    7  A    between atoms: C_6  and  C_8
REMARK    8  A    between atoms: C_10  and  O_11
REMARK    9  A    between atoms: C_12  and  O_13
REMARK                            x       y       z     vdW  Elec       q    Type
REMARK                         _______ _______ _______ _____ _____    ______ ____
ROOT
ATOM      1  C   UNL     1      10.096  -0.126  23.020  0.00  0.00    -0.014 A 
ATOM      2  C   UNL     1      10.808   0.550  24.030  0.00  0.00    +0.010 A 
ATOM      3  C   UNL     1      10.731   1.938  24.158  0.00  0.00    +0.049 A 
ATOM      4  C   UNL     1       9.942   2.654  23.274  0.00  0.00    +0.158 A 
ATOM      5  C   UNL     1       9.224   2.005  22.274  0.00  0.00    +0.159 A 
ATOM      6  C   UNL     1       9.293   0.623  22.140  0.00  0.00    +0.055 A 
ENDROOT
BRANCH   4   7
ATOM      7  O   UNL     1       9.880   4.013  23.391  0.00  0.00    -0.503 OA
ATOM      8  H   UNL     1      10.721   4.331  23.007  0.00  0.00    +0.292 HD
ENDBRANCH   4   7
BRANCH   5   9
ATOM      9  O   UNL     1       8.467   2.776  21.436  0.00  0.00    -0.503 OA
ATOM     10  H   UNL     1       8.942   2.874  20.590  0.00  0.00    +0.292 HD
ENDBRANCH   5   9
BRANCH   1  11
ATOM     11  C   UNL     1      10.225  -1.632  22.846  0.00  0.00    +0.158 C 
BRANCH  11  12
ATOM     12  O   UNL     1       9.883  -2.028  21.511  0.00  0.00    -0.386 OA
ATOM     13  H   UNL     1      10.111  -1.301  20.910  0.00  0.00    +0.210 HD
ENDBRANCH  11  12
BRANCH  11  14
ATOM     14  C   UNL     1       9.314  -2.388  23.847  0.00  0.00    +0.117 C 
BRANCH  14  15
ATOM     15  N   UNL     1       9.927  -3.639  24.326  0.00  0.00    -0.311 NA
ATOM     16  H   UNL     1      10.468  -4.036  23.551  0.00  0.00    +0.122 HD
BRANCH  15  18
ATOM     17  C   UNL     1       9.003  -4.694  26.323  0.00  0.00    +0.023 C 
ATOM     18  C   UNL     1       8.929  -4.609  24.797  0.00  0.00    +0.048 C 
ATOM     19  C   UNL     1       7.511  -4.216  24.374  0.00  0.00    +0.023 C 
ENDBRANCH  15  18
ENDBRANCH  14  15
ENDBRANCH  11  14
ENDBRANCH   1  11
TORSDOF 7
ENDMDL
MODEL 8
REMARK VINA RESULT:      -4.7      6.131      7.793
REMARK  Name = 
REMARK  9 active torsions:
REMARK  status: ('A' for Active; 'I' for Inactive)
REMARK    1  A    between atoms: C_1  and  C_2
REMARK    2  A    between atoms: C_2  and  C_3
REMARK    3  A    between atoms: C_2  and  N_4
REMARK    4  A    between atoms: N_4  and  C_5
REMARK    5  A    between atoms: C_5  and  C_6
REMARK    6  A    between atoms: C_6  and  O_7
REMARK    7  A    between atoms: C_6  and  C_8
REMARK    8  A    between atoms: C_10  and  O_11
REMARK    9  A    between atoms: C_12  and  O_13
REMARK                            x       y       z     vdW  Elec       q    Type
REMARK                         _______ _______ _______ _____ _____    ______ ____
ROOT
ATOM      1  C   UNL     1       9.387   0.561  22.710  0.00  0.00    -0.014 A 
ATOM      2  C   UNL     1       9.885  -0.459  21.874  0.00  0.00    +0.010 A 
ATOM      3  C   UNL     1      10.081  -1.753  22.359  0.00  0.00    +0.049 A 
ATOM      4  C   UNL     1       9.780  -2.032  23.681  0.00  0.00    +0.158 A 
ATOM      5  C   UNL     1       9.278  -1.041  24.521  0.00  0.00    +0.159 A 
ATOM      6  C   UNL     1       9.079   0.250  24.047  0.00  0.00    +0.055 A 
ENDROOT
BRANCH   4   7
ATOM      7  O   UNL     1       9.986  -3.295  24.157  0.00  0.00    -0.503 OA
ATOM      8  H   UNL     1      10.521  -3.168  24.966  0.00  0.00    +0.292 HD
ENDBRANCH   4   7
BRANCH   5   9
ATOM      9  O   UNL     1       9.005  -1.388  25.815  0.00  0.00    -0.503 OA
ATOM     10  H   UNL     1       8.819  -0.576  26.321  0.00  0.00    +0.292 HD
ENDBRANCH   5   9
BRANCH   1  11
ATOM     11  C   UNL     1       9.226   1.984  22.197  0.00  0.00    +0.158 C 
BRANCH  11  12
ATOM     12  O   UNL     1      10.449   2.466  21.625  0.00  0.00    -0.386 OA
ATOM     13  H   UNL     1      10.991   1.701  21.374  0.00  0.00    +0.210 HD
ENDBRANCH  11  12
BRANCH  11  14
ATOM     14  C   UNL     1       8.790   2.940  23.337  0.00  0.00    +0.117 C 
BRANCH  14  15
ATOM     15  N   UNL     1       8.592   4.321  22.864  0.00  0.00    -0.311 NA
ATOM     16  H   UNL     1       9.112   4.427  21.987  0.00  0.00    +0.122 HD
BRANCH  15  18
ATOM     17  C   UNL     1       8.602   4.877  25.241  0.00  0.00    +0.023 C 
ATOM     18  C   UNL     1       9.041   5.321  23.844  0.00  0.00    +0.048 C 
ATOM     19  C   UNL     1      10.561   5.498  23.816  0.00  0.00    +0.023 C 
ENDBRANCH  15  18
ENDBRANCH  14  15
ENDBRANCH  11  14
ENDBRANCH   1  11
TORSDOF 7
ENDMDL
MODEL 9
REMARK VINA RESULT:      -4.7      3.167      4.794
REMARK  Name = 
REMARK  9 active torsions:
REMARK  status: ('A' for Active; 'I' for Inactive)
REMARK    1  A    between atoms: C_1  and  C_2
REMARK    2  A    between atoms: C_2  and  C_3
REMARK    3  A    between atoms: C_2  and  N_4
REMARK    4  A    between atoms: N_4  and  C_5
REMARK    5  A    between atoms: C_5  and  C_6
REMARK    6  A    between atoms: C_6  and  O_7
REMARK    7  A    between atoms: C_6  and  C_8
REMARK    8  A    between atoms: C_10  and  O_11
REMARK    9  A    between atoms: C_12  and  O_13
REMARK                            x       y       z     vdW  Elec       q    Type
REMARK                         _______ _______ _______ _____ _____    ______ ____
ROOT
ATOM      1  C   UNL     1       8.719  -2.930  25.439  0.00  0.00    -0.014 A 
ATOM      2  C   UNL     1       8.436  -1.998  26.457  0.00  0.00    +0.010 A 
ATOM      3  C   UNL     1       8.848  -0.669  26.350  0.00  0.00    +0.049 A 
ATOM      4  C   UNL     1       9.545  -0.267  25.223  0.00  0.00    +0.158 A 
ATOM      5  C   UNL     1       9.829  -1.169  24.202  0.00  0.00    +0.159 A 
ATOM      6  C   UNL     1       9.421  -2.495  24.299  0.00  0.00    +0.055 A 
ENDROOT
BRANCH   4   7
ATOM      7  O   UNL     1       9.961   1.030  25.127  0.00  0.00    -0.503 OA
ATOM      8  H   UNL     1       9.224   1.491  24.680  0.00  0.00    +0.292 HD
ENDBRANCH   4   7
BRANCH   5   9
ATOM      9  O   UNL     1      10.522  -0.703  23.120  0.00  0.00    -0.503 OA
ATOM     10  H   UNL     1       9.883  -0.431  22.436  0.00  0.00    +0.292 HD
ENDBRANCH   5   9
BRANCH   1  11
ATOM     11  C   UNL     1       8.320  -4.391  25.581  0.00  0.00    +0.158 C 
BRANCH  11  12
ATOM     12  O   UNL     1       9.179  -5.072  26.505  0.00  0.00    -0.386 OA
ATOM     13  H   UNL     1       9.405  -5.938  26.129  0.00  0.00    +0.210 HD
ENDBRANCH  11  12
BRANCH  11  14
ATOM     14  C   UNL     1       8.371  -5.118  24.213  0.00  0.00    +0.117 C 
BRANCH  14  15
ATOM     15  N   UNL     1       7.047  -5.195  23.571  0.00  0.00    -0.311 NA
ATOM     16  H   UNL     1       6.764  -6.181  23.563  0.00  0.00    +0.122 HD
BRANCH  15  18
ATOM     17  C   UNL     1       6.482  -5.714  21.254  0.00  0.00    +0.023 C 
ATOM     18  C   UNL     1       7.053  -4.658  22.203  0.00  0.00    +0.048 C 
ATOM     19  C   UNL     1       6.229  -3.373  22.096  0.00  0.00    +0.023 C 
ENDBRANCH  15  18
ENDBRANCH  14  15
ENDBRANCH  11  14
ENDBRANCH   1  11
TORSDOF 7
ENDMDL
