MODEL 1
REMARK VINA RESULT:      -7.7      0.000      0.000
REMARK  Name = 
REMARK  7 active torsions:
REMARK  status: ('A' for Active; 'I' for Inactive)
REMARK    1  A    between atoms: C_1  and  C_2
REMARK    2  A    between atoms: C_2  and  C_3
REMARK    3  A    between atoms: C_2  and  C_4
REMARK    4  A    between atoms: C_4  and  O_5
REMARK    5  A    between atoms: O_5  and  C_6
REMARK    6  A    between atoms: C_9  and  C_13
REMARK    7  A    between atoms: C_17  and  C_18
REMARK                            x       y       z     vdW  Elec       q    Type
REMARK                         _______ _______ _______ _____ _____    ______ ____
ROOT
ATOM      1  C   UNL     1       9.497   0.404  24.424  0.00  0.00    +0.139 A 
ATOM      2  N   UNL     1       8.625   1.466  24.530  0.00  0.00    -0.338 N 
ATOM      3  H   UNL     1       7.686   1.327  24.901  0.00  0.00    +0.167 HD
ATOM      4  C   UNL     1       9.297   2.615  24.198  0.00  0.00    +0.069 A 
ATOM      5  C   UNL     1      10.566   2.167  23.861  0.00  0.00    +0.090 A 
ATOM      6  C   UNL     1      11.565   3.081  23.503  0.00  0.00    +0.048 A 
ATOM      7  C   UNL     1      11.267   4.451  23.494  0.00  0.00    +0.098 A 
ATOM      8  C   UNL     1       9.958   4.854  23.809  0.00  0.00    +0.140 A 
ATOM      9  F   UNL     1       9.665   6.163  23.760  0.00  0.00    -0.205 F 
ATOM     10  C   UNL     1       8.942   3.962  24.172  0.00  0.00    +0.067 A 
ATOM     11  N   UNL     1      10.669   0.816  23.961  0.00  0.00    -0.228 NA
ENDROOT
BRANCH   1  16
ATOM     12  C   UNL     1       8.743  -3.321  24.579  0.00  0.00    +0.114 A 
ATOM     13  C   UNL     1       8.160  -3.350  25.868  0.00  0.00    +0.045 A 
ATOM     14  C   UNL     1       8.097  -2.222  26.664  0.00  0.00    +0.004 A 
ATOM     15  C   UNL     1       8.589  -1.034  26.167  0.00  0.00    +0.011 A 
ATOM     16  C   UNL     1       9.155  -0.960  24.876  0.00  0.00    +0.013 A 
ATOM     17  C   UNL     1       9.306  -2.119  24.031  0.00  0.00    -0.054 A 
ATOM     18  O   UNL     1       9.877  -2.062  22.876  0.00  0.00    -0.871 OA
BRANCH  12  19
ATOM     19  O   UNL     1       8.772  -4.466  23.781  0.00  0.00    -0.492 OA
BRANCH  19  20
ATOM     20  C   UNL     1       7.499  -5.011  23.439  0.00  0.00    +0.232 C 
BRANCH  20  22
ATOM     21  C   UNL     1       6.507  -5.806  21.254  0.00  0.00    +0.010 C 
ATOM     22  C   UNL     1       7.039  -4.604  22.033  0.00  0.00    +0.020 C 
ATOM     23  C   UNL     1       5.952  -3.531  22.162  0.00  0.00    +0.010 C 
ENDBRANCH  20  22
ENDBRANCH  19  20
ENDBRANCH  12  19
ENDBRANCH   1  16
BRANCH   7  24
ATOM     24  C   UNL     1      12.301   5.441  23.164  0.00  0.00    +0.269 C 
ATOM     25  N   UNL     1      12.746   6.274  24.078  0.00  0.00    -0.288 N 
ATOM     26  H   UNL     1      13.452   6.973  23.899  0.00  0.00    +0.301 HD
ATOM     27  H   UNL     1      12.388   6.201  25.028  0.00  0.00    +0.301 HD
ATOM     28  N   UNL     1      12.790   5.497  21.939  0.00  0.00    -0.250 N 
ATOM     29  H   UNL     1      13.492   6.167  21.661  0.00  0.00    +0.288 HD
ATOM     30  H   UNL     1      12.494   4.828  21.232  0.00  0.00    +0.288 HD
ENDBRANCH   7  24
TORSDOF 5
ENDMDL
MODEL 2
REMARK VINA RESULT:      -7.5      3.926      8.558
REMARK  Name = 
REMARK  7 active torsions:
REMARK  status: ('A' for Active; 'I' for Inactive)
REMARK    1  A    between atoms: C_1  and  C_2
REMARK    2  A    between atoms: C_2  and  C_3
REMARK    3  A    between atoms: C_2  and  C_4
REMARK    4  A    between atoms: C_4  and  O_5
REMARK    5  A    between atoms: O_5  and  C_6
REMARK    6  A    between atoms: C_9  and  C_13
REMARK    7  A    between atoms: C_17  and  C_18
REMARK                            x       y       z     vdW  Elec       q    Type
REMARK                         _______ _______ _______ _____ _____    ______ ____
ROOT
ATOM      1  C   UNL     1       7.953   0.261  23.625  0.00  0.00    +0.139 A 
ATOM      2  N   UNL     1       7.624  -0.686  22.678  0.00  0.00    -0.338 N 
ATOM      3  H   UNL     1       7.368  -0.401  21.734  0.00  0.00    +0.167 HD
ATOM      4  C   UNL     1       7.844  -1.929  23.211  0.00  0.00    +0.069 A 
ATOM      5  C   UNL     1       8.269  -1.662  24.505  0.00  0.00    +0.090 A 
ATOM      6  C   UNL     1       8.638  -2.709  25.358  0.00  0.00    +0.048 A 
ATOM      7  C   UNL     1       8.576  -4.028  24.887  0.00  0.00    +0.098 A 
ATOM      8  C   UNL     1       8.106  -4.253  23.581  0.00  0.00    +0.140 A 
ATOM      9  F   UNL     1       8.009  -5.519  23.147  0.00  0.00    -0.205 F 
ATOM     10  C   UNL     1       7.733  -3.224  22.708  0.00  0.00    +0.067 A 
ATOM     11  N   UNL     1       8.294  -0.328  24.763  0.00  0.00    -0.228 NA
ENDROOT
BRANCH   1  16
ATOM     12  C   UNL     1       8.779   3.973  23.631  0.00  0.00    +0.114 A 
ATOM     13  C   UNL     1       7.687   4.418  22.850  0.00  0.00    +0.045 A 
ATOM     14  C   UNL     1       6.784   3.536  22.290  0.00  0.00    +0.004 A 
ATOM     15  C   UNL     1       6.941   2.187  22.533  0.00  0.00    +0.011 A 
ATOM     16  C   UNL     1       8.003   1.707  23.328  0.00  0.00    +0.013 A 
ATOM     17  C   UNL     1       9.010   2.578  23.880  0.00  0.00    -0.054 A 
ATOM     18  O   UNL     1      10.014   2.132  24.558  0.00  0.00    -0.871 OA
BRANCH  12  19
ATOM     19  O   UNL     1       9.664   4.884  24.209  0.00  0.00    -0.492 OA
BRANCH  19  20
ATOM     20  C   UNL     1      10.581   5.508  23.310  0.00  0.00    +0.232 C 
BRANCH  20  22
ATOM     21  C   UNL     1      13.010   5.489  22.614  0.00  0.00    +0.010 C 
ATOM     22  C   UNL     1      12.035   5.413  23.788  0.00  0.00    +0.020 C 
ATOM     23  C   UNL     1      12.304   6.554  24.776  0.00  0.00    +0.010 C 
ENDBRANCH  20  22
ENDBRANCH  19  20
ENDBRANCH  12  19
ENDBRANCH   1  16
BRANCH   7  24
ATOM     24  C   UNL     1       8.994  -5.150  25.740  0.00  0.00    +0.269 C 
ATOM     25  N   UNL     1       8.159  -5.680  26.604  0.00  0.00    -0.288 N 
ATOM     26  H   UNL     1       8.400  -6.449  27.214  0.00  0.00    +0.301 HD
ATOM     27  H   UNL     1       7.206  -5.325  26.652  0.00  0.00    +0.301 HD
ATOM     28  N   UNL     1      10.218  -5.632  25.638  0.00  0.00    -0.250 N 
ATOM     29  H   UNL     1      10.556  -6.392  26.210  0.00  0.00    +0.288 HD
ATOM     30  H   UNL     1      10.862  -5.266  24.939  0.00  0.00    +0.288 HD
ENDBRANCH   7  24
TORSDOF 5
ENDMDL
MODEL 3
REMARK VINA RESULT:      -7.4      1.525      2.103
REMARK  Name = 
REMARK  7 active torsions:
REMARK  status: ('A' for Active; 'I' for Inactive)
REMARK    1  A    between atoms: C_1  and  C_2
REMARK    2  A    between atoms: C_2  and  C_3
REMARK    3  A    between atoms: C_2  and  C_4
REMARK    4  A    between atoms: C_4  and  O_5
REMARK    5  A    between atoms: O_5  and  C_6
REMARK    6  A    between atoms: C_9  and  C_13
REMARK    7  A    between atoms: C_17  and  C_18
REMARK                            x       y       z     vdW  Elec       q    Type
REMARK                         _______ _______ _______ _____ _____    ______ ____
ROOT
ATOM      1  C   UNL     1       9.102  -0.456  25.057  0.00  0.00    +0.139 A 
ATOM      2  N   UNL     1      10.325  -0.126  24.514  0.00  0.00    -0.338 N 
ATOM      3  H   UNL     1      11.001  -0.854  24.287  0.00  0.00    +0.167 HD
ATOM      4  C   UNL     1      10.337   1.220  24.255  0.00  0.00    +0.069 A 
ATOM      5  C   UNL     1       9.098   1.652  24.706  0.00  0.00    +0.090 A 
ATOM      6  C   UNL     1       8.724   2.994  24.565  0.00  0.00    +0.048 A 
ATOM      7  C   UNL     1       9.614   3.892  23.959  0.00  0.00    +0.098 A 
ATOM      8  C   UNL     1      10.871   3.416  23.549  0.00  0.00    +0.140 A 
ATOM      9  F   UNL     1      11.737   4.286  23.007  0.00  0.00    -0.205 F 
ATOM     10  C   UNL     1      11.270   2.080  23.677  0.00  0.00    +0.067 A 
ATOM     11  N   UNL     1       8.367   0.634  25.231  0.00  0.00    -0.228 NA
ENDROOT
BRANCH   1  16
ATOM     12  C   UNL     1       8.284  -4.149  24.665  0.00  0.00    +0.114 A 
ATOM     13  C   UNL     1       7.524  -4.309  25.847  0.00  0.00    +0.045 A 
ATOM     14  C   UNL     1       7.365  -3.279  26.755  0.00  0.00    +0.004 A 
ATOM     15  C   UNL     1       7.938  -2.057  26.475  0.00  0.00    +0.011 A 
ATOM     16  C   UNL     1       8.682  -1.852  25.293  0.00  0.00    +0.013 A 
ATOM     17  C   UNL     1       8.935  -2.910  24.347  0.00  0.00    -0.054 A 
ATOM     18  O   UNL     1       9.665  -2.738  23.296  0.00  0.00    -0.871 OA
BRANCH  12  19
ATOM     19  O   UNL     1       8.410  -5.195  23.749  0.00  0.00    -0.492 OA
BRANCH  19  20
ATOM     20  C   UNL     1       7.198  -5.620  23.127  0.00  0.00    +0.232 C 
BRANCH  20  22
ATOM     21  C   UNL     1       6.241  -5.858  20.800  0.00  0.00    +0.010 C 
ATOM     22  C   UNL     1       6.949  -4.926  21.782  0.00  0.00    +0.020 C 
ATOM     23  C   UNL     1       6.105  -3.670  22.024  0.00  0.00    +0.010 C 
ENDBRANCH  20  22
ENDBRANCH  19  20
ENDBRANCH  12  19
ENDBRANCH   1  16
BRANCH   7  24
ATOM     24  C   UNL     1       9.239   5.299  23.756  0.00  0.00    +0.269 C 
ATOM     25  N   UNL     1       8.601   5.670  22.669  0.00  0.00    -0.288 N 
ATOM     26  H   UNL     1       8.325   6.624  22.483  0.00  0.00    +0.301 HD
ATOM     27  H   UNL     1       8.339   4.965  21.984  0.00  0.00    +0.301 HD
ATOM     28  N   UNL     1       9.544   6.198  24.672  0.00  0.00    -0.250 N 
ATOM     29  H   UNL     1       9.319   7.178  24.572  0.00  0.00    +0.288 HD
ATOM     30  H   UNL     1       9.993   5.920  25.541  0.00  0.00    +0.288 HD
ENDBRANCH   7  24
TORSDOF 5
ENDMDL
MODEL 4
REMARK VINA RESULT:      -7.3      1.752      2.613
REMARK  Name = 
REMARK  7 active torsions:
REMARK  status: ('A' for Active; 'I' for Inactive)
REMARK    1  A    between atoms: C_1  and  C_2
REMARK    2  A    between atoms: C_2  and  C_3
REMARK    3  A    between atoms: C_2  and  C_4
REMARK    4  A    between atoms: C_4  and  O_5
REMARK    5  A    between atoms: O_5  and  C_6
REMARK    6  A    between atoms: C_9  and  C_13
REMARK    7  A    between atoms: C_17  and  C_18
REMARK                            x       y       z     vdW  Elec       q    Type
REMARK                         _______ _______ _______ _____ _____    ______ ____
ROOT
ATOM      1  C   UNL     1       9.037   1.136  23.338  0.00  0.00    +0.139 A 
ATOM      2  N   UNL     1       8.263   2.263  23.512  0.00  0.00    -0.338 N 
ATOM      3  H   UNL     1       7.259   2.179  23.666  0.00  0.00    +0.167 HD
ATOM      4  C   UNL     1       9.090   3.355  23.568  0.00  0.00    +0.069 A 
ATOM      5  C   UNL     1      10.355   2.818  23.379  0.00  0.00    +0.090 A 
ATOM      6  C   UNL     1      11.485   3.643  23.419  0.00  0.00    +0.048 A 
ATOM      7  C   UNL     1      11.322   5.016  23.655  0.00  0.00    +0.098 A 
ATOM      8  C   UNL     1      10.019   5.519  23.806  0.00  0.00    +0.140 A 
ATOM      9  F   UNL     1       9.862   6.839  23.991  0.00  0.00    -0.205 F 
ATOM     10  C   UNL     1       8.872   4.716  23.773  0.00  0.00    +0.067 A 
ATOM     11  N   UNL     1      10.312   1.472  23.199  0.00  0.00    -0.228 NA
ENDROOT
BRANCH   1  16
ATOM     12  C   UNL     1       7.654  -2.195  24.546  0.00  0.00    +0.114 A 
ATOM     13  C   UNL     1       7.796  -2.916  23.337  0.00  0.00    +0.045 A 
ATOM     14  C   UNL     1       8.244  -2.313  22.178  0.00  0.00    +0.004 A 
ATOM     15  C   UNL     1       8.591  -0.980  22.217  0.00  0.00    +0.011 A 
ATOM     16  C   UNL     1       8.486  -0.233  23.411  0.00  0.00    +0.013 A 
ATOM     17  C   UNL     1       7.962  -0.795  24.631  0.00  0.00    -0.054 A 
ATOM     18  O   UNL     1       7.812  -0.096  25.705  0.00  0.00    -0.871 OA
BRANCH  12  19
ATOM     19  O   UNL     1       7.224  -2.830  25.712  0.00  0.00    -0.492 OA
BRANCH  19  20
ATOM     20  C   UNL     1       8.252  -3.427  26.503  0.00  0.00    +0.232 C 
BRANCH  20  22
ATOM     21  C   UNL     1       6.832  -5.474  26.077  0.00  0.00    +0.010 C 
ATOM     22  C   UNL     1       8.220  -4.960  26.455  0.00  0.00    +0.020 C 
ATOM     23  C   UNL     1       9.260  -5.443  25.438  0.00  0.00    +0.010 C 
ENDBRANCH  20  22
ENDBRANCH  19  20
ENDBRANCH  12  19
ENDBRANCH   1  16
BRANCH   7  24
ATOM     24  C   UNL     1      12.488   5.906  23.744  0.00  0.00    +0.269 C 
ATOM     25  N   UNL     1      12.637   6.711  24.772  0.00  0.00    -0.288 N 
ATOM     26  H   UNL     1      13.419   7.343  24.876  0.00  0.00    +0.301 HD
ATOM     27  H   UNL     1      11.951   6.685  25.523  0.00  0.00    +0.301 HD
ATOM     28  N   UNL     1      13.395   5.898  22.786  0.00  0.00    -0.250 N 
ATOM     29  H   UNL     1      14.206   6.499  22.796  0.00  0.00    +0.288 HD
ATOM     30  H   UNL     1      13.321   5.246  22.008  0.00  0.00    +0.288 HD
ENDBRANCH   7  24
TORSDOF 5
ENDMDL
MODEL 5
REMARK VINA RESULT:      -7.1      2.188      2.781
REMARK  Name = 
REMARK  7 active torsions:
REMARK  status: ('A' for Active; 'I' for Inactive)
REMARK    1  A    between atoms: C_1  and  C_2
REMARK    2  A    between atoms: C_2  and  C_3
REMARK    3  A    between atoms: C_2  and  C_4
REMARK    4  A    between atoms: C_4  and  O_5
REMARK    5  A    between atoms: O_5  and  C_6
REMARK    6  A    between atoms: C_9  and  C_13
REMARK    7  A    between atoms: C_17  and  C_18
REMARK                            x       y       z     vdW  Elec       q    Type
REMARK                         _______ _______ _______ _____ _____    ______ ____
ROOT
ATOM      1  C   UNL     1       8.747  -1.133  23.371  0.00  0.00    +0.139 A 
ATOM      2  N   UNL     1       7.881  -0.453  22.543  0.00  0.00    -0.338 N 
ATOM      3  H   UNL     1       7.157  -0.955  22.031  0.00  0.00    +0.167 HD
ATOM      4  C   UNL     1       8.113   0.891  22.680  0.00  0.00    +0.069 A 
ATOM      5  C   UNL     1       9.166   0.952  23.582  0.00  0.00    +0.090 A 
ATOM      6  C   UNL     1       9.659   2.191  24.008  0.00  0.00    +0.048 A 
ATOM      7  C   UNL     1       9.074   3.367  23.516  0.00  0.00    +0.098 A 
ATOM      8  C   UNL     1       8.033   3.255  22.578  0.00  0.00    +0.140 A 
ATOM      9  F   UNL     1       7.502   4.382  22.077  0.00  0.00    -0.205 F 
ATOM     10  C   UNL     1       7.520   2.029  22.136  0.00  0.00    +0.067 A 
ATOM     11  N   UNL     1       9.574  -0.285  23.967  0.00  0.00    -0.228 NA
ENDROOT
BRANCH   1  16
ATOM     12  C   UNL     1       7.642  -4.772  23.411  0.00  0.00    +0.114 A 
ATOM     13  C   UNL     1       8.486  -5.222  24.452  0.00  0.00    +0.045 A 
ATOM     14  C   UNL     1       9.418  -4.392  25.045  0.00  0.00    +0.004 A 
ATOM     15  C   UNL     1       9.497  -3.081  24.625  0.00  0.00    +0.011 A 
ATOM     16  C   UNL     1       8.654  -2.588  23.606  0.00  0.00    +0.013 A 
ATOM     17  C   UNL     1       7.712  -3.428  22.909  0.00  0.00    -0.054 A 
ATOM     18  O   UNL     1       6.983  -2.992  21.937  0.00  0.00    -0.871 OA
BRANCH  12  19
ATOM     19  O   UNL     1       6.689  -5.620  22.845  0.00  0.00    -0.492 OA
BRANCH  19  20
ATOM     20  C   UNL     1       5.530  -5.865  23.641  0.00  0.00    +0.232 C 
BRANCH  20  22
ATOM     21  C   UNL     1       3.040  -5.879  23.209  0.00  0.00    +0.010 C 
ATOM     22  C   UNL     1       4.317  -5.041  23.190  0.00  0.00    +0.020 C 
ATOM     23  C   UNL     1       4.172  -3.830  24.118  0.00  0.00    +0.010 C 
ENDBRANCH  20  22
ENDBRANCH  19  20
ENDBRANCH  12  19
ENDBRANCH   1  16
BRANCH   7  24
ATOM     24  C   UNL     1       9.538   4.684  23.973  0.00  0.00    +0.269 C 
ATOM     25  N   UNL     1      10.464   5.335  23.306  0.00  0.00    -0.288 N 
ATOM     26  H   UNL     1      10.817   6.241  23.581  0.00  0.00    +0.301 HD
ATOM     27  H   UNL     1      10.832   4.929  22.448  0.00  0.00    +0.301 HD
ATOM     28  N   UNL     1       9.021   5.222  25.061  0.00  0.00    -0.250 N 
ATOM     29  H   UNL     1       9.315   6.118  25.422  0.00  0.00    +0.288 HD
ATOM     30  H   UNL     1       8.268   4.754  25.562  0.00  0.00    +0.288 HD
ENDBRANCH   7  24
TORSDOF 5
ENDMDL
MODEL 6
REMARK VINA RESULT:      -7.0      4.012      8.849
REMARK  Name = 
REMARK  7 active torsions:
REMARK  status: ('A' for Active; 'I' for Inactive)
REMARK    1  A    between atoms: C_1  and  C_2
REMARK    2  A    between atoms: C_2  and  C_3
REMARK    3  A    between atoms: C_2  and  C_4
REMARK    4  A    between atoms: C_4  and  O_5
REMARK    5  A    between atoms: O_5  and  C_6
REMARK    6  A    between atoms: C_9  and  C_13
REMARK    7  A    between atoms: C_17  and  C_18
REMARK                            x       y       z     vdW  Elec       q    Type
REMARK                         _______ _______ _______ _____ _____    ______ ____
ROOT
ATOM      1  C   UNL     1       7.968   0.016  22.927  0.00  0.00    +0.139 A 
ATOM      2  N   UNL     1       8.952  -0.768  23.491  0.00  0.00    -0.338 N 
ATOM      3  H   UNL     1       9.797  -0.341  23.868  0.00  0.00    +0.167 HD
ATOM      4  C   UNL     1       8.501  -2.062  23.542  0.00  0.00    +0.069 A 
ATOM      5  C   UNL     1       7.247  -1.996  22.952  0.00  0.00    +0.090 A 
ATOM      6  C   UNL     1       6.447  -3.142  22.864  0.00  0.00    +0.048 A 
ATOM      7  C   UNL     1       6.928  -4.353  23.382  0.00  0.00    +0.098 A 
ATOM      8  C   UNL     1       8.219  -4.379  23.939  0.00  0.00    +0.140 A 
ATOM      9  F   UNL     1       8.693  -5.548  24.397  0.00  0.00    -0.205 F 
ATOM     10  C   UNL     1       9.038  -3.247  24.041  0.00  0.00    +0.067 A 
ATOM     11  N   UNL     1       6.945  -0.736  22.543  0.00  0.00    -0.228 NA
ENDROOT
BRANCH   1  16
ATOM     12  C   UNL     1       8.863   3.656  23.567  0.00  0.00    +0.114 A 
ATOM     13  C   UNL     1       7.788   4.249  22.865  0.00  0.00    +0.045 A 
ATOM     14  C   UNL     1       6.874   3.492  22.159  0.00  0.00    +0.004 A 
ATOM     15  C   UNL     1       7.003   2.119  22.170  0.00  0.00    +0.011 A 
ATOM     16  C   UNL     1       8.048   1.490  22.879  0.00  0.00    +0.013 A 
ATOM     17  C   UNL     1       9.066   2.235  23.577  0.00  0.00    -0.054 A 
ATOM     18  O   UNL     1      10.055   1.661  24.176  0.00  0.00    -0.871 OA
BRANCH  12  19
ATOM     19  O   UNL     1       9.760   4.439  24.296  0.00  0.00    -0.492 OA
BRANCH  19  20
ATOM     20  C   UNL     1      10.058   5.718  23.736  0.00  0.00    +0.232 C 
BRANCH  20  22
ATOM     21  C   UNL     1      12.128   6.541  24.931  0.00  0.00    +0.010 C 
ATOM     22  C   UNL     1      11.566   5.978  23.627  0.00  0.00    +0.020 C 
ATOM     23  C   UNL     1      12.268   4.664  23.270  0.00  0.00    +0.010 C 
ENDBRANCH  20  22
ENDBRANCH  19  20
ENDBRANCH  12  19
ENDBRANCH   1  16
BRANCH   7  24
ATOM     24  C   UNL     1       6.101  -5.567  23.345  0.00  0.00    +0.269 C 
ATOM     25  N   UNL     1       5.370  -5.910  24.381  0.00  0.00    -0.288 N 
ATOM     26  H   UNL     1       4.788  -6.736  24.405  0.00  0.00    +0.301 HD
ATOM     27  H   UNL     1       5.358  -5.305  25.200  0.00  0.00    +0.301 HD
ATOM     28  N   UNL     1       6.088  -6.320  22.261  0.00  0.00    -0.250 N 
ATOM     29  H   UNL     1       5.546  -7.169  22.192  0.00  0.00    +0.288 HD
ATOM     30  H   UNL     1       6.609  -6.043  21.432  0.00  0.00    +0.288 HD
ENDBRANCH   7  24
TORSDOF 5
ENDMDL
MODEL 7
REMARK VINA RESULT:      -6.9      4.728      9.095
REMARK  Name = 
REMARK  7 active torsions:
REMARK  status: ('A' for Active; 'I' for Inactive)
REMARK    1  A    between atoms: C_1  and  C_2
REMARK    2  A    between atoms: C_2  and  C_3
REMARK    3  A    between atoms: C_2  and  C_4
REMARK    4  A    between atoms: C_4  and  O_5
REMARK    5  A    between atoms: O_5  and  C_6
REMARK    6  A    between atoms: C_9  and  C_13
REMARK    7  A    between atoms: C_17  and  C_18
REMARK                            x       y       z     vdW  Elec       q    Type
REMARK                         _______ _______ _______ _____ _____    ______ ____
ROOT
ATOM      1  C   UNL     1       8.144  -2.765  23.862  0.00  0.00    +0.139 A 
ATOM      2  N   UNL     1       8.280  -3.227  25.154  0.00  0.00    -0.338 N 
ATOM      3  H   UNL     1       8.920  -2.766  25.800  0.00  0.00    +0.167 HD
ATOM      4  C   UNL     1       7.360  -4.222  25.361  0.00  0.00    +0.069 A 
ATOM      5  C   UNL     1       6.724  -4.340  24.133  0.00  0.00    +0.090 A 
ATOM      6  C   UNL     1       5.669  -5.246  23.969  0.00  0.00    +0.048 A 
ATOM      7  C   UNL     1       5.264  -6.028  25.060  0.00  0.00    +0.098 A 
ATOM      8  C   UNL     1       5.961  -5.899  26.274  0.00  0.00    +0.140 A 
ATOM      9  F   UNL     1       5.598  -6.678  27.304  0.00  0.00    -0.205 F 
ATOM     10  C   UNL     1       7.017  -4.999  26.465  0.00  0.00    +0.067 A 
ATOM     11  N   UNL     1       7.233  -3.479  23.214  0.00  0.00    -0.228 NA
ENDROOT
BRANCH   1  16
ATOM     12  C   UNL     1       9.800   0.641  23.526  0.00  0.00    +0.114 A 
ATOM     13  C   UNL     1       9.902   0.672  22.116  0.00  0.00    +0.045 A 
ATOM     14  C   UNL     1       9.521  -0.402  21.335  0.00  0.00    +0.004 A 
ATOM     15  C   UNL     1       8.999  -1.517  21.954  0.00  0.00    +0.011 A 
ATOM     16  C   UNL     1       8.858  -1.575  23.358  0.00  0.00    +0.013 A 
ATOM     17  C   UNL     1       9.301  -0.510  24.223  0.00  0.00    -0.054 A 
ATOM     18  O   UNL     1       9.227  -0.589  25.509  0.00  0.00    -0.871 OA
BRANCH  12  19
ATOM     19  O   UNL     1      10.166   1.748  24.294  0.00  0.00    -0.492 OA
BRANCH  19  20
ATOM     20  C   UNL     1      10.120   3.007  23.622  0.00  0.00    +0.232 C 
BRANCH  20  22
ATOM     21  C   UNL     1       7.903   3.974  22.890  0.00  0.00    +0.010 C 
ATOM     22  C   UNL     1       8.909   3.854  24.033  0.00  0.00    +0.020 C 
ATOM     23  C   UNL     1       8.249   3.208  25.256  0.00  0.00    +0.010 C 
ENDBRANCH  20  22
ENDBRANCH  19  20
ENDBRANCH  12  19
ENDBRANCH   1  16
BRANCH   7  24
ATOM     24  C   UNL     1       4.134  -6.961  24.937  0.00  0.00    +0.269 C 
ATOM     25  N   UNL     1       3.593  -7.500  26.005  0.00  0.00    -0.288 N 
ATOM     26  H   UNL     1       2.818  -8.147  25.971  0.00  0.00    +0.301 HD
ATOM     27  H   UNL     1       3.944  -7.237  26.924  0.00  0.00    +0.301 HD
ATOM     28  N   UNL     1       3.657  -7.260  23.743  0.00  0.00    -0.250 N 
ATOM     29  H   UNL     1       2.892  -7.904  23.606  0.00  0.00    +0.288 HD
ATOM     30  H   UNL     1       4.032  -6.814  22.909  0.00  0.00    +0.288 HD
ENDBRANCH   7  24
TORSDOF 5
ENDMDL
MODEL 8
REMARK VINA RESULT:      -6.9      4.241      8.872
REMARK  Name = 
REMARK  7 active torsions:
REMARK  status: ('A' for Active; 'I' for Inactive)
REMARK    1  A    between atoms: C_1  and  C_2
REMARK    2  A    between atoms: C_2  and  C_3
REMARK    3  A    between atoms: C_2  and  C_4
REMARK    4  A    between atoms: C_4  and  O_5
REMARK    5  A    between atoms: O_5  and  C_6
REMARK    6  A    between atoms: C_9  and  C_13
REMARK    7  A    between atoms: C_17  and  C_18
REMARK                            x       y       z     vdW  Elec       q    Type
REMARK                         _______ _______ _______ _____ _____    ______ ____
ROOT
ATOM      1  C   UNL     1       8.571  -0.949  23.729  0.00  0.00    +0.139 A 
ATOM      2  N   UNL     1       8.413  -1.660  24.899  0.00  0.00    -0.338 N 
ATOM      3  H   UNL     1       8.674  -1.245  25.792  0.00  0.00    +0.167 HD
ATOM      4  C   UNL     1       7.768  -2.835  24.611  0.00  0.00    +0.069 A 
ATOM      5  C   UNL     1       7.602  -2.789  23.234  0.00  0.00    +0.090 A 
ATOM      6  C   UNL     1       6.927  -3.820  22.570  0.00  0.00    +0.048 A 
ATOM      7  C   UNL     1       6.421  -4.896  23.312  0.00  0.00    +0.098 A 
ATOM      8  C   UNL     1       6.644  -4.917  24.700  0.00  0.00    +0.140 A 
ATOM      9  F   UNL     1       6.194  -5.968  25.403  0.00  0.00    -0.205 F 
ATOM     10  C   UNL     1       7.313  -3.898  25.389  0.00  0.00    +0.067 A 
ATOM     11  N   UNL     1       8.129  -1.657  22.698  0.00  0.00    -0.228 NA
ENDROOT
BRANCH   1  16
ATOM     12  C   UNL     1       9.106   2.763  24.357  0.00  0.00    +0.114 A 
ATOM     13  C   UNL     1       9.916   3.038  23.230  0.00  0.00    +0.045 A 
ATOM     14  C   UNL     1      10.324   2.041  22.366  0.00  0.00    +0.004 A 
ATOM     15  C   UNL     1       9.899   0.750  22.598  0.00  0.00    +0.011 A 
ATOM     16  C   UNL     1       9.069   0.441  23.697  0.00  0.00    +0.013 A 
ATOM     17  C   UNL     1       8.670   1.431  24.666  0.00  0.00    -0.054 A 
ATOM     18  O   UNL     1       7.961   1.137  25.704  0.00  0.00    -0.871 OA
BRANCH  12  19
ATOM     19  O   UNL     1       8.684   3.791  25.202  0.00  0.00    -0.492 OA
BRANCH  19  20
ATOM     20  C   UNL     1       7.756   4.715  24.633  0.00  0.00    +0.232 C 
BRANCH  20  22
ATOM     21  C   UNL     1       9.461   6.322  25.581  0.00  0.00    +0.010 C 
ATOM     22  C   UNL     1       8.289   6.153  24.616  0.00  0.00    +0.020 C 
ATOM     23  C   UNL     1       8.722   6.501  23.188  0.00  0.00    +0.010 C 
ENDBRANCH  20  22
ENDBRANCH  19  20
ENDBRANCH  12  19
ENDBRANCH   1  16
BRANCH   7  24
ATOM     24  C   UNL     1       5.672  -5.976  22.655  0.00  0.00    +0.269 C 
ATOM     25  N   UNL     1       6.294  -6.867  21.916  0.00  0.00    -0.288 N 
ATOM     26  H   UNL     1       5.823  -7.625  21.441  0.00  0.00    +0.301 HD
ATOM     27  H   UNL     1       7.307  -6.819  21.832  0.00  0.00    +0.301 HD
ATOM     28  N   UNL     1       4.364  -6.055  22.807  0.00  0.00    -0.250 N 
ATOM     29  H   UNL     1       3.804  -6.771  22.365  0.00  0.00    +0.288 HD
ATOM     30  H   UNL     1       3.873  -5.404  23.415  0.00  0.00    +0.288 HD
ENDBRANCH   7  24
TORSDOF 5
ENDMDL
MODEL 9
REMARK VINA RESULT:      -6.9      4.183      8.417
REMARK  Name = 
REMARK  7 active torsions:
REMARK  status: ('A' for Active; 'I' for Inactive)
REMARK    1  A    between atoms: C_1  and  C_2
REMARK    2  A    between atoms: C_2  and  C_3
REMARK    3  A    between atoms: C_2  and  C_4
REMARK    4  A    between atoms: C_4  and  O_5
REMARK    5  A    between atoms: O_5  and  C_6
REMARK    6  A    between atoms: C_9  and  C_13
REMARK    7  A    between atoms: C_17  and  C_18
REMARK                            x       y       z     vdW  Elec       q    Type
REMARK                         _______ _______ _______ _____ _____    ______ ____
ROOT
ATOM      1  C   UNL     1       8.104   0.331  24.007  0.00  0.00    +0.139 A 
ATOM      2  N   UNL     1       7.722  -0.531  23.001  0.00  0.00    -0.338 N 
ATOM      3  H   UNL     1       7.474  -0.169  22.080  0.00  0.00    +0.167 HD
ATOM      4  C   UNL     1       7.881  -1.817  23.445  0.00  0.00    +0.069 A 
ATOM      5  C   UNL     1       8.327  -1.661  24.750  0.00  0.00    +0.090 A 
ATOM      6  C   UNL     1       8.647  -2.782  25.525  0.00  0.00    +0.048 A 
ATOM      7  C   UNL     1       8.515  -4.061  24.966  0.00  0.00    +0.098 A 
ATOM      8  C   UNL     1       8.026  -4.171  23.653  0.00  0.00    +0.140 A 
ATOM      9  F   UNL     1       7.861  -5.398  23.135  0.00  0.00    -0.205 F 
ATOM     10  C   UNL     1       7.701  -3.067  22.856  0.00  0.00    +0.067 A 
ATOM     11  N   UNL     1       8.422  -0.352  25.099  0.00  0.00    -0.228 NA
ENDROOT
BRANCH   1  16
ATOM     12  C   UNL     1       7.713   3.901  22.758  0.00  0.00    +0.114 A 
ATOM     13  C   UNL     1       8.862   4.451  23.372  0.00  0.00    +0.045 A 
ATOM     14  C   UNL     1       9.667   3.705  24.212  0.00  0.00    +0.004 A 
ATOM     15  C   UNL     1       9.351   2.380  24.425  0.00  0.00    +0.011 A 
ATOM     16  C   UNL     1       8.227   1.789  23.809  0.00  0.00    +0.013 A 
ATOM     17  C   UNL     1       7.318   2.539  22.978  0.00  0.00    -0.054 A 
ATOM     18  O   UNL     1       6.258   2.013  22.463  0.00  0.00    -0.871 OA
BRANCH  12  19
ATOM     19  O   UNL     1       6.930   4.666  21.892  0.00  0.00    -0.492 OA
BRANCH  19  20
ATOM     20  C   UNL     1       7.071   6.081  22.021  0.00  0.00    +0.232 C 
BRANCH  20  22
ATOM     21  C   UNL     1       4.660   5.816  22.734  0.00  0.00    +0.010 C 
ATOM     22  C   UNL     1       5.884   6.730  22.744  0.00  0.00    +0.020 C 
ATOM     23  C   UNL     1       6.299   7.045  24.186  0.00  0.00    +0.010 C 
ENDBRANCH  20  22
ENDBRANCH  19  20
ENDBRANCH  12  19
ENDBRANCH   1  16
BRANCH   7  24
ATOM     24  C   UNL     1       8.880  -5.258  25.736  0.00  0.00    +0.269 C 
ATOM     25  N   UNL     1       8.037  -5.783  26.596  0.00  0.00    -0.288 N 
ATOM     26  H   UNL     1       8.243  -6.603  27.150  0.00  0.00    +0.301 HD
ATOM     27  H   UNL     1       7.113  -5.370  26.698  0.00  0.00    +0.301 HD
ATOM     28  N   UNL     1      10.065  -5.814  25.564  0.00  0.00    -0.250 N 
ATOM     29  H   UNL     1      10.367  -6.629  26.078  0.00  0.00    +0.288 HD
ATOM     30  H   UNL     1      10.711  -5.450  24.867  0.00  0.00    +0.288 HD
ENDBRANCH   7  24
TORSDOF 5
ENDMDL
