MODEL 1
REMARK VINA RESULT:      -6.0      0.000      0.000
REMARK  Name = 
REMARK  10 active torsions:
REMARK  status: ('A' for Active; 'I' for Inactive)
REMARK    1  A    between atoms: C_1  and  C_2
REMARK    2  A    between atoms: C_2  and  N_3
REMARK    3  A    between atoms: N_3  and  C_4
REMARK    4  A    between atoms: N_3  and  C_5
REMARK    5  A    between atoms: N_3  and  C_7
REMARK    6  A    between atoms: C_5  and  C_6
REMARK    7  A    between atoms: C_7  and  C_8
REMARK    8  A    between atoms: C_8  and  O_9
REMARK    9  A    between atoms: O_9  and  C_10
REMARK   10  A    between atoms: C_10  and  C_12
REMARK                            x       y       z     vdW  Elec       q    Type
REMARK                         _______ _______ _______ _____ _____    ______ ____
ROOT
ATOM      1  C   UNL     1       8.822  -3.303  23.738  0.00  0.00    +0.164 C 
ATOM      2  C   UNL     1       8.697  -1.840  24.070  0.00  0.00    +0.013 A 
ATOM      3  C   UNL     1       7.445  -1.226  24.050  0.00  0.00    +0.133 A 
ATOM      4  C   UNL     1       7.316   0.114  24.418  0.00  0.00    +0.046 A 
ATOM      5  C   UNL     1       8.438   0.847  24.807  0.00  0.00    +0.004 A 
ATOM      6  C   UNL     1       9.694   0.244  24.819  0.00  0.00    +0.001 A 
ATOM      7  O   UNL     1       6.286  -1.873  23.695  0.00  0.00    -0.455 OA
ATOM      8  C   UNL     1       6.353  -3.178  23.278  0.00  0.00    +0.133 A 
ATOM      9  C   UNL     1       5.141  -3.780  22.928  0.00  0.00    +0.046 A 
ATOM     10  C   UNL     1       5.106  -5.120  22.540  0.00  0.00    +0.004 A 
ATOM     11  C   UNL     1       6.284  -5.861  22.487  0.00  0.00    +0.001 A 
ATOM     12  C   UNL     1       7.496  -5.260  22.821  0.00  0.00    +0.008 A 
ATOM     13  C   UNL     1       9.826  -1.093  24.449  0.00  0.00    +0.008 A 
ATOM     14  C   UNL     1       7.536  -3.914  23.230  0.00  0.00    +0.013 A 
ENDROOT
BRANCH   1  15
ATOM     15  C   UNL     1       9.253  -4.096  24.972  0.00  0.00    +0.319 C 
ATOM     16  O   UNL     1      10.171  -4.909  25.004  0.00  0.00    -0.250 OA
BRANCH  15  17
ATOM     17  O   UNL     1       8.392  -3.896  26.017  0.00  0.00    -0.459 OA
BRANCH  17  18
ATOM     18  C   UNL     1       8.015  -5.093  26.703  0.00  0.00    +0.282 C 
BRANCH  18  19
ATOM     19  C   UNL     1       6.597  -5.526  26.323  0.00  0.00    +0.174 C 
BRANCH  19  20
ATOM     20  N   UNL     1       5.620  -5.659  27.526  0.00  0.00    +0.243 N 
ATOM     21  C   UNL     1       6.408  -6.192  28.737  0.00  0.00    +0.192 C 
BRANCH  20  23
ATOM     22  C   UNL     1       4.827  -3.380  26.609  0.00  0.00    +0.060 C 
ATOM     23  C   UNL     1       5.137  -4.218  27.835  0.00  0.00    +0.129 C 
ENDBRANCH  20  23
BRANCH  20  24
ATOM     24  C   UNL     1       4.461  -6.629  27.228  0.00  0.00    +0.129 C 
ATOM     25  C   UNL     1       4.306  -6.965  25.752  0.00  0.00    +0.060 C 
ENDBRANCH  20  24
ENDBRANCH  19  20
ENDBRANCH  18  19
ENDBRANCH  17  18
ENDBRANCH  15  17
ENDBRANCH   1  15
TORSDOF 7
ENDMDL
MODEL 2
REMARK VINA RESULT:      -6.0      3.288      5.715
REMARK  Name = 
REMARK  10 active torsions:
REMARK  status: ('A' for Active; 'I' for Inactive)
REMARK    1  A    between atoms: C_1  and  C_2
REMARK    2  A    between atoms: C_2  and  N_3
REMARK    3  A    between atoms: N_3  and  C_4
REMARK    4  A    between atoms: N_3  and  C_5
REMARK    5  A    between atoms: N_3  and  C_7
REMARK    6  A    between atoms: C_5  and  C_6
REMARK    7  A    between atoms: C_7  and  C_8
REMARK    8  A    between atoms: C_8  and  O_9
REMARK    9  A    between atoms: O_9  and  C_10
REMARK   10  A    between atoms: C_10  and  C_12
REMARK                            x       y       z     vdW  Elec       q    Type
REMARK                         _______ _______ _______ _____ _____    ______ ____
ROOT
ATOM      1  C   UNL     1       9.555  -1.343  24.799  0.00  0.00    +0.164 C 
ATOM      2  C   UNL     1       9.734  -0.251  23.777  0.00  0.00    +0.013 A 
ATOM      3  C   UNL     1       9.194  -0.398  22.500  0.00  0.00    +0.133 A 
ATOM      4  C   UNL     1       9.302   0.637  21.570  0.00  0.00    +0.046 A 
ATOM      5  C   UNL     1       9.952   1.824  21.912  0.00  0.00    +0.004 A 
ATOM      6  C   UNL     1      10.503   1.974  23.183  0.00  0.00    +0.001 A 
ATOM      7  O   UNL     1       8.526  -1.524  22.080  0.00  0.00    -0.455 OA
ATOM      8  C   UNL     1       8.427  -2.594  22.932  0.00  0.00    +0.133 A 
ATOM      9  C   UNL     1       7.740  -3.711  22.447  0.00  0.00    +0.046 A 
ATOM     10  C   UNL     1       7.546  -4.827  23.262  0.00  0.00    +0.004 A 
ATOM     11  C   UNL     1       8.050  -4.840  24.560  0.00  0.00    +0.001 A 
ATOM     12  C   UNL     1       8.749  -3.735  25.041  0.00  0.00    +0.008 A 
ATOM     13  C   UNL     1      10.400   0.941  24.112  0.00  0.00    +0.008 A 
ATOM     14  C   UNL     1       8.933  -2.598  24.231  0.00  0.00    +0.013 A 
ENDROOT
BRANCH   1  15
ATOM     15  C   UNL     1       8.663  -0.863  25.943  0.00  0.00    +0.319 C 
ATOM     16  O   UNL     1       8.985  -0.838  27.127  0.00  0.00    -0.250 OA
BRANCH  15  17
ATOM     17  O   UNL     1       7.394  -0.594  25.505  0.00  0.00    -0.459 OA
BRANCH  17  18
ATOM     18  C   UNL     1       6.929   0.720  25.827  0.00  0.00    +0.282 C 
BRANCH  18  19
ATOM     19  C   UNL     1       6.668   1.540  24.562  0.00  0.00    +0.174 C 
BRANCH  19  20
ATOM     20  N   UNL     1       6.605   3.077  24.792  0.00  0.00    +0.243 N 
ATOM     21  C   UNL     1       5.365   3.390  25.649  0.00  0.00    +0.192 C 
BRANCH  20  23
ATOM     22  C   UNL     1       8.669   4.606  25.052  0.00  0.00    +0.060 C 
ATOM     23  C   UNL     1       7.878   3.433  25.602  0.00  0.00    +0.129 C 
ENDBRANCH  20  23
BRANCH  20  24
ATOM     24  C   UNL     1       6.499   3.858  23.468  0.00  0.00    +0.129 C 
ATOM     25  C   UNL     1       6.440   2.970  22.235  0.00  0.00    +0.060 C 
ENDBRANCH  20  24
ENDBRANCH  19  20
ENDBRANCH  18  19
ENDBRANCH  17  18
ENDBRANCH  15  17
ENDBRANCH   1  15
TORSDOF 7
ENDMDL
MODEL 3
REMARK VINA RESULT:      -5.9      1.940      2.934
REMARK  Name = 
REMARK  10 active torsions:
REMARK  status: ('A' for Active; 'I' for Inactive)
REMARK    1  A    between atoms: C_1  and  C_2
REMARK    2  A    between atoms: C_2  and  N_3
REMARK    3  A    between atoms: N_3  and  C_4
REMARK    4  A    between atoms: N_3  and  C_5
REMARK    5  A    between atoms: N_3  and  C_7
REMARK    6  A    between atoms: C_5  and  C_6
REMARK    7  A    between atoms: C_7  and  C_8
REMARK    8  A    between atoms: C_8  and  O_9
REMARK    9  A    between atoms: O_9  and  C_10
REMARK   10  A    between atoms: C_10  and  C_12
REMARK                            x       y       z     vdW  Elec       q    Type
REMARK                         _______ _______ _______ _____ _____    ______ ____
ROOT
ATOM      1  C   UNL     1       9.525  -1.518  24.691  0.00  0.00    +0.164 C 
ATOM      2  C   UNL     1       9.682  -0.383  23.713  0.00  0.00    +0.013 A 
ATOM      3  C   UNL     1       9.109  -0.472  22.445  0.00  0.00    +0.133 A 
ATOM      4  C   UNL     1       9.197   0.603  21.559  0.00  0.00    +0.046 A 
ATOM      5  C   UNL     1       9.861   1.771  21.937  0.00  0.00    +0.004 A 
ATOM      6  C   UNL     1      10.445   1.864  23.198  0.00  0.00    +0.001 A 
ATOM      7  O   UNL     1       8.425  -1.576  21.994  0.00  0.00    -0.455 OA
ATOM      8  C   UNL     1       8.344  -2.683  22.800  0.00  0.00    +0.133 A 
ATOM      9  C   UNL     1       7.640  -3.774  22.284  0.00  0.00    +0.046 A 
ATOM     10  C   UNL     1       7.462  -4.925  23.054  0.00  0.00    +0.004 A 
ATOM     11  C   UNL     1       8.000  -4.996  24.337  0.00  0.00    +0.001 A 
ATOM     12  C   UNL     1       8.715  -3.916  24.848  0.00  0.00    +0.008 A 
ATOM     13  C   UNL     1      10.361   0.791  24.083  0.00  0.00    +0.008 A 
ATOM     14  C   UNL     1       8.883  -2.745  24.085  0.00  0.00    +0.013 A 
ENDROOT
BRANCH   1  15
ATOM     15  C   UNL     1       8.664  -1.086  25.877  0.00  0.00    +0.319 C 
ATOM     16  O   UNL     1       9.038  -1.052  27.045  0.00  0.00    -0.250 OA
BRANCH  15  17
ATOM     17  O   UNL     1       7.365  -0.875  25.499  0.00  0.00    -0.459 OA
BRANCH  17  18
ATOM     18  C   UNL     1       6.397  -1.343  26.442  0.00  0.00    +0.282 C 
BRANCH  18  19
ATOM     19  C   UNL     1       5.343  -2.220  25.763  0.00  0.00    +0.174 C 
BRANCH  19  20
ATOM     20  N   UNL     1       4.960  -3.501  26.559  0.00  0.00    +0.243 N 
ATOM     21  C   UNL     1       3.755  -3.172  27.460  0.00  0.00    +0.192 C 
BRANCH  20  23
ATOM     22  C   UNL     1       4.100  -3.941  24.165  0.00  0.00    +0.060 C 
ATOM     23  C   UNL     1       4.522  -4.540  25.494  0.00  0.00    +0.129 C 
ENDBRANCH  20  23
BRANCH  20  24
ATOM     24  C   UNL     1       6.116  -4.001  27.445  0.00  0.00    +0.129 C 
ATOM     25  C   UNL     1       6.202  -5.516  27.545  0.00  0.00    +0.060 C 
ENDBRANCH  20  24
ENDBRANCH  19  20
ENDBRANCH  18  19
ENDBRANCH  17  18
ENDBRANCH  15  17
ENDBRANCH   1  15
TORSDOF 7
ENDMDL
MODEL 4
REMARK VINA RESULT:      -5.9      2.211      5.921
REMARK  Name = 
REMARK  10 active torsions:
REMARK  status: ('A' for Active; 'I' for Inactive)
REMARK    1  A    between atoms: C_1  and  C_2
REMARK    2  A    between atoms: C_2  and  N_3
REMARK    3  A    between atoms: N_3  and  C_4
REMARK    4  A    between atoms: N_3  and  C_5
REMARK    5  A    between atoms: N_3  and  C_7
REMARK    6  A    between atoms: C_5  and  C_6
REMARK    7  A    between atoms: C_7  and  C_8
REMARK    8  A    between atoms: C_8  and  O_9
REMARK    9  A    between atoms: O_9  and  C_10
REMARK   10  A    between atoms: C_10  and  C_12
REMARK                            x       y       z     vdW  Elec       q    Type
REMARK                         _______ _______ _______ _____ _____    ______ ____
ROOT
ATOM      1  C   UNL     1       7.257  -5.003  25.675  0.00  0.00    +0.164 C 
ATOM      2  C   UNL     1       6.822  -5.194  24.246  0.00  0.00    +0.013 A 
ATOM      3  C   UNL     1       5.601  -5.805  23.966  0.00  0.00    +0.133 A 
ATOM      4  C   UNL     1       5.164  -5.928  22.646  0.00  0.00    +0.046 A 
ATOM      5  C   UNL     1       5.949  -5.442  21.599  0.00  0.00    +0.004 A 
ATOM      6  C   UNL     1       7.175  -4.840  21.870  0.00  0.00    +0.001 A 
ATOM      7  O   UNL     1       4.757  -6.299  24.933  0.00  0.00    -0.455 OA
ATOM      8  C   UNL     1       5.150  -6.251  26.246  0.00  0.00    +0.133 A 
ATOM      9  C   UNL     1       4.252  -6.773  27.181  0.00  0.00    +0.046 A 
ATOM     10  C   UNL     1       4.545  -6.721  28.545  0.00  0.00    +0.004 A 
ATOM     11  C   UNL     1       5.744  -6.161  28.979  0.00  0.00    +0.001 A 
ATOM     12  C   UNL     1       6.649  -5.654  28.049  0.00  0.00    +0.008 A 
ATOM     13  C   UNL     1       7.615  -4.719  23.187  0.00  0.00    +0.008 A 
ATOM     14  C   UNL     1       6.352  -5.687  26.673  0.00  0.00    +0.013 A 
ENDROOT
BRANCH   1  15
ATOM     15  C   UNL     1       7.293  -3.516  26.027  0.00  0.00    +0.319 C 
ATOM     16  O   UNL     1       6.316  -2.775  26.063  0.00  0.00    -0.250 OA
BRANCH  15  17
ATOM     17  O   UNL     1       8.580  -3.068  26.161  0.00  0.00    -0.459 OA
BRANCH  17  18
ATOM     18  C   UNL     1       8.796  -1.747  25.656  0.00  0.00    +0.282 C 
BRANCH  18  19
ATOM     19  C   UNL     1       9.676  -1.771  24.405  0.00  0.00    +0.174 C 
BRANCH  19  20
ATOM     20  N   UNL     1       9.220  -0.801  23.277  0.00  0.00    +0.243 N 
ATOM     21  C   UNL     1       9.183  -1.581  21.950  0.00  0.00    +0.192 C 
BRANCH  20  23
ATOM     22  C   UNL     1       6.686  -1.118  22.899  0.00  0.00    +0.060 C 
ATOM     23  C   UNL     1       7.776  -0.375  23.650  0.00  0.00    +0.129 C 
ENDBRANCH  20  23
BRANCH  20  24
ATOM     24  C   UNL     1      10.177   0.395  23.119  0.00  0.00    +0.129 C 
ATOM     25  C   UNL     1       9.831   1.307  21.951  0.00  0.00    +0.060 C 
ENDBRANCH  20  24
ENDBRANCH  19  20
ENDBRANCH  18  19
ENDBRANCH  17  18
ENDBRANCH  15  17
ENDBRANCH   1  15
TORSDOF 7
ENDMDL
MODEL 5
REMARK VINA RESULT:      -5.8      2.354      6.329
REMARK  Name = 
REMARK  10 active torsions:
REMARK  status: ('A' for Active; 'I' for Inactive)
REMARK    1  A    between atoms: C_1  and  C_2
REMARK    2  A    between atoms: C_2  and  N_3
REMARK    3  A    between atoms: N_3  and  C_4
REMARK    4  A    between atoms: N_3  and  C_5
REMARK    5  A    between atoms: N_3  and  C_7
REMARK    6  A    between atoms: C_5  and  C_6
REMARK    7  A    between atoms: C_7  and  C_8
REMARK    8  A    between atoms: C_8  and  O_9
REMARK    9  A    between atoms: O_9  and  C_10
REMARK   10  A    between atoms: C_10  and  C_12
REMARK                            x       y       z     vdW  Elec       q    Type
REMARK                         _______ _______ _______ _____ _____    ______ ____
ROOT
ATOM      1  C   UNL     1       5.594  -5.117  23.375  0.00  0.00    +0.164 C 
ATOM      2  C   UNL     1       4.255  -5.349  24.024  0.00  0.00    +0.013 A 
ATOM      3  C   UNL     1       4.144  -5.336  25.414  0.00  0.00    +0.133 A 
ATOM      4  C   UNL     1       2.895  -5.488  26.019  0.00  0.00    +0.046 A 
ATOM      5  C   UNL     1       1.752  -5.654  25.236  0.00  0.00    +0.004 A 
ATOM      6  C   UNL     1       1.856  -5.678  23.847  0.00  0.00    +0.001 A 
ATOM      7  O   UNL     1       5.212  -5.165  26.262  0.00  0.00    -0.455 OA
ATOM      8  C   UNL     1       6.472  -5.058  25.730  0.00  0.00    +0.133 A 
ATOM      9  C   UNL     1       7.517  -4.889  26.643  0.00  0.00    +0.046 A 
ATOM     10  C   UNL     1       8.827  -4.720  26.191  0.00  0.00    +0.004 A 
ATOM     11  C   UNL     1       9.101  -4.735  24.826  0.00  0.00    +0.001 A 
ATOM     12  C   UNL     1       8.064  -4.919  23.914  0.00  0.00    +0.008 A 
ATOM     13  C   UNL     1       3.102  -5.530  23.241  0.00  0.00    +0.008 A 
ATOM     14  C   UNL     1       6.738  -5.071  24.362  0.00  0.00    +0.013 A 
ENDROOT
BRANCH   1  15
ATOM     15  C   UNL     1       5.593  -3.796  22.607  0.00  0.00    +0.319 C 
ATOM     16  O   UNL     1       5.761  -3.682  21.397  0.00  0.00    -0.250 OA
BRANCH  15  17
ATOM     17  O   UNL     1       5.527  -2.726  23.459  0.00  0.00    -0.459 OA
BRANCH  17  18
ATOM     18  C   UNL     1       6.276  -1.586  23.028  0.00  0.00    +0.282 C 
BRANCH  18  19
ATOM     19  C   UNL     1       7.411  -1.270  24.005  0.00  0.00    +0.174 C 
BRANCH  19  20
ATOM     20  N   UNL     1       8.758  -0.886  23.326  0.00  0.00    +0.243 N 
ATOM     21  C   UNL     1       8.952  -1.785  22.090  0.00  0.00    +0.192 C 
BRANCH  20  23
ATOM     22  C   UNL     1       9.105   0.862  21.458  0.00  0.00    +0.060 C 
ATOM     23  C   UNL     1       8.587   0.582  22.857  0.00  0.00    +0.129 C 
ENDBRANCH  20  23
BRANCH  20  24
ATOM     24  C   UNL     1       9.959  -1.079  24.269  0.00  0.00    +0.129 C 
ATOM     25  C   UNL     1      10.497   0.220  24.851  0.00  0.00    +0.060 C 
ENDBRANCH  20  24
ENDBRANCH  19  20
ENDBRANCH  18  19
ENDBRANCH  17  18
ENDBRANCH  15  17
ENDBRANCH   1  15
TORSDOF 7
ENDMDL
MODEL 6
REMARK VINA RESULT:      -5.7      2.926      6.454
REMARK  Name = 
REMARK  10 active torsions:
REMARK  status: ('A' for Active; 'I' for Inactive)
REMARK    1  A    between atoms: C_1  and  C_2
REMARK    2  A    between atoms: C_2  and  N_3
REMARK    3  A    between atoms: N_3  and  C_4
REMARK    4  A    between atoms: N_3  and  C_5
REMARK    5  A    between atoms: N_3  and  C_7
REMARK    6  A    between atoms: C_5  and  C_6
REMARK    7  A    between atoms: C_7  and  C_8
REMARK    8  A    between atoms: C_8  and  O_9
REMARK    9  A    between atoms: O_9  and  C_10
REMARK   10  A    between atoms: C_10  and  C_12
REMARK                            x       y       z     vdW  Elec       q    Type
REMARK                         _______ _______ _______ _____ _____    ______ ____
ROOT
ATOM      1  C   UNL     1       8.133  -3.465  24.762  0.00  0.00    +0.164 C 
ATOM      2  C   UNL     1       7.129  -4.204  23.918  0.00  0.00    +0.013 A 
ATOM      3  C   UNL     1       5.826  -3.720  23.801  0.00  0.00    +0.133 A 
ATOM      4  C   UNL     1       4.910  -4.366  22.969  0.00  0.00    +0.046 A 
ATOM      5  C   UNL     1       5.292  -5.501  22.252  0.00  0.00    +0.004 A 
ATOM      6  C   UNL     1       6.588  -5.997  22.372  0.00  0.00    +0.001 A 
ATOM      7  O   UNL     1       5.367  -2.603  24.458  0.00  0.00    -0.455 OA
ATOM      8  C   UNL     1       6.205  -1.951  25.326  0.00  0.00    +0.133 A 
ATOM      9  C   UNL     1       5.680  -0.825  25.966  0.00  0.00    +0.046 A 
ATOM     10  C   UNL     1       6.476  -0.069  26.828  0.00  0.00    +0.004 A 
ATOM     11  C   UNL     1       7.796  -0.443  27.066  0.00  0.00    +0.001 A 
ATOM     12  C   UNL     1       8.319  -1.574  26.441  0.00  0.00    +0.008 A 
ATOM     13  C   UNL     1       7.504  -5.356  23.204  0.00  0.00    +0.008 A 
ATOM     14  C   UNL     1       7.527  -2.331  25.557  0.00  0.00    +0.013 A 
ENDROOT
BRANCH   1  15
ATOM     15  C   UNL     1       9.237  -2.876  23.886  0.00  0.00    +0.319 C 
ATOM     16  O   UNL     1      10.419  -3.201  23.925  0.00  0.00    -0.250 OA
BRANCH  15  17
ATOM     17  O   UNL     1       8.773  -1.825  23.140  0.00  0.00    -0.459 OA
BRANCH  17  18
ATOM     18  C   UNL     1       9.802  -1.011  22.570  0.00  0.00    +0.282 C 
BRANCH  18  19
ATOM     19  C   UNL     1      10.215   0.108  23.527  0.00  0.00    +0.174 C 
BRANCH  19  20
ATOM     20  N   UNL     1       9.582   1.494  23.211  0.00  0.00    +0.243 N 
ATOM     21  C   UNL     1       9.222   1.533  21.714  0.00  0.00    +0.192 C 
BRANCH  20  23
ATOM     22  C   UNL     1       7.006   1.320  23.245  0.00  0.00    +0.060 C 
ATOM     23  C   UNL     1       8.275   1.557  24.044  0.00  0.00    +0.129 C 
ENDBRANCH  20  23
BRANCH  20  24
ATOM     24  C   UNL     1      10.545   2.656  23.517  0.00  0.00    +0.129 C 
ATOM     25  C   UNL     1       9.847   3.989  23.742  0.00  0.00    +0.060 C 
ENDBRANCH  20  24
ENDBRANCH  19  20
ENDBRANCH  18  19
ENDBRANCH  17  18
ENDBRANCH  15  17
ENDBRANCH   1  15
TORSDOF 7
ENDMDL
MODEL 7
REMARK VINA RESULT:      -5.6      3.763      7.038
REMARK  Name = 
REMARK  10 active torsions:
REMARK  status: ('A' for Active; 'I' for Inactive)
REMARK    1  A    between atoms: C_1  and  C_2
REMARK    2  A    between atoms: C_2  and  N_3
REMARK    3  A    between atoms: N_3  and  C_4
REMARK    4  A    between atoms: N_3  and  C_5
REMARK    5  A    between atoms: N_3  and  C_7
REMARK    6  A    between atoms: C_5  and  C_6
REMARK    7  A    between atoms: C_7  and  C_8
REMARK    8  A    between atoms: C_8  and  O_9
REMARK    9  A    between atoms: O_9  and  C_10
REMARK   10  A    between atoms: C_10  and  C_12
REMARK                            x       y       z     vdW  Elec       q    Type
REMARK                         _______ _______ _______ _____ _____    ______ ____
ROOT
ATOM      1  C   UNL     1       9.079   2.171  23.674  0.00  0.00    +0.164 C 
ATOM      2  C   UNL     1       7.668   2.380  24.158  0.00  0.00    +0.013 A 
ATOM      3  C   UNL     1       7.216   3.667  24.448  0.00  0.00    +0.133 A 
ATOM      4  C   UNL     1       5.891   3.873  24.835  0.00  0.00    +0.046 A 
ATOM      5  C   UNL     1       5.013   2.793  24.937  0.00  0.00    +0.004 A 
ATOM      6  C   UNL     1       5.460   1.503  24.659  0.00  0.00    +0.001 A 
ATOM      7  O   UNL     1       8.004   4.790  24.361  0.00  0.00    -0.455 OA
ATOM      8  C   UNL     1       9.328   4.648  24.031  0.00  0.00    +0.133 A 
ATOM      9  C   UNL     1      10.079   5.825  23.964  0.00  0.00    +0.046 A 
ATOM     10  C   UNL     1      11.422   5.783  23.586  0.00  0.00    +0.004 A 
ATOM     11  C   UNL     1      12.025   4.564  23.289  0.00  0.00    +0.001 A 
ATOM     12  C   UNL     1      11.284   3.387  23.370  0.00  0.00    +0.008 A 
ATOM     13  C   UNL     1       6.784   1.295  24.275  0.00  0.00    +0.008 A 
ATOM     14  C   UNL     1       9.924   3.423  23.733  0.00  0.00    +0.013 A 
ENDROOT
BRANCH   1  15
ATOM     15  C   UNL     1       9.081   1.681  22.227  0.00  0.00    +0.319 C 
ATOM     16  O   UNL     1       8.290   2.038  21.360  0.00  0.00    -0.250 OA
BRANCH  15  17
ATOM     17  O   UNL     1       9.990   0.675  22.044  0.00  0.00    -0.459 OA
BRANCH  17  18
ATOM     18  C   UNL     1      10.125  -0.205  23.163  0.00  0.00    +0.282 C 
BRANCH  18  19
ATOM     19  C   UNL     1       9.347  -1.504  22.942  0.00  0.00    +0.174 C 
BRANCH  19  20
ATOM     20  N   UNL     1       8.741  -2.120  24.236  0.00  0.00    +0.243 N 
ATOM     21  C   UNL     1       9.393  -3.495  24.471  0.00  0.00    +0.192 C 
BRANCH  20  23
ATOM     22  C   UNL     1       8.313  -1.297  26.646  0.00  0.00    +0.060 C 
ATOM     23  C   UNL     1       9.152  -1.166  25.387  0.00  0.00    +0.129 C 
ENDBRANCH  20  23
BRANCH  20  24
ATOM     24  C   UNL     1       7.216  -2.310  24.130  0.00  0.00    +0.129 C 
ATOM     25  C   UNL     1       6.659  -2.030  22.742  0.00  0.00    +0.060 C 
ENDBRANCH  20  24
ENDBRANCH  19  20
ENDBRANCH  18  19
ENDBRANCH  17  18
ENDBRANCH  15  17
ENDBRANCH   1  15
TORSDOF 7
ENDMDL
MODEL 8
REMARK VINA RESULT:      -5.6      1.642      4.595
REMARK  Name = 
REMARK  10 active torsions:
REMARK  status: ('A' for Active; 'I' for Inactive)
REMARK    1  A    between atoms: C_1  and  C_2
REMARK    2  A    between atoms: C_2  and  N_3
REMARK    3  A    between atoms: N_3  and  C_4
REMARK    4  A    between atoms: N_3  and  C_5
REMARK    5  A    between atoms: N_3  and  C_7
REMARK    6  A    between atoms: C_5  and  C_6
REMARK    7  A    between atoms: C_7  and  C_8
REMARK    8  A    between atoms: C_8  and  O_9
REMARK    9  A    between atoms: O_9  and  C_10
REMARK   10  A    between atoms: C_10  and  C_12
REMARK                            x       y       z     vdW  Elec       q    Type
REMARK                         _______ _______ _______ _____ _____    ______ ____
ROOT
ATOM      1  C   UNL     1       6.119  -1.636  23.206  0.00  0.00    +0.164 C 
ATOM      2  C   UNL     1       6.065  -3.108  22.890  0.00  0.00    +0.013 A 
ATOM      3  C   UNL     1       7.205  -3.761  22.422  0.00  0.00    +0.133 A 
ATOM      4  C   UNL     1       7.178  -5.137  22.188  0.00  0.00    +0.046 A 
ATOM      5  C   UNL     1       6.010  -5.865  22.420  0.00  0.00    +0.004 A 
ATOM      6  C   UNL     1       4.865  -5.218  22.877  0.00  0.00    +0.001 A 
ATOM      7  O   UNL     1       8.400  -3.127  22.180  0.00  0.00    -0.455 OA
ATOM      8  C   UNL     1       8.478  -1.768  22.346  0.00  0.00    +0.133 A 
ATOM      9  C   UNL     1       9.719  -1.181  22.080  0.00  0.00    +0.046 A 
ATOM     10  C   UNL     1       9.905   0.189  22.270  0.00  0.00    +0.004 A 
ATOM     11  C   UNL     1       8.849   0.982  22.712  0.00  0.00    +0.001 A 
ATOM     12  C   UNL     1       7.606   0.403  22.963  0.00  0.00    +0.008 A 
ATOM     13  C   UNL     1       4.888  -3.844  23.108  0.00  0.00    +0.008 A 
ATOM     14  C   UNL     1       7.416  -0.981  22.791  0.00  0.00    +0.013 A 
ENDROOT
BRANCH   1  15
ATOM     15  C   UNL     1       5.946  -1.406  24.707  0.00  0.00    +0.319 C 
ATOM     16  O   UNL     1       5.125  -0.648  25.215  0.00  0.00    -0.250 OA
BRANCH  15  17
ATOM     17  O   UNL     1       6.922  -2.043  25.424  0.00  0.00    -0.459 OA
BRANCH  17  18
ATOM     18  C   UNL     1       6.505  -2.486  26.718  0.00  0.00    +0.282 C 
BRANCH  18  19
ATOM     19  C   UNL     1       5.562  -3.687  26.614  0.00  0.00    +0.174 C 
BRANCH  19  20
ATOM     20  N   UNL     1       6.141  -5.012  27.188  0.00  0.00    +0.243 N 
ATOM     21  C   UNL     1       5.620  -6.181  26.332  0.00  0.00    +0.192 C 
BRANCH  20  23
ATOM     22  C   UNL     1       8.200  -5.436  25.690  0.00  0.00    +0.060 C 
ATOM     23  C   UNL     1       7.678  -4.908  27.014  0.00  0.00    +0.129 C 
ENDBRANCH  20  23
BRANCH  20  24
ATOM     24  C   UNL     1       5.717  -5.245  28.650  0.00  0.00    +0.129 C 
ATOM     25  C   UNL     1       4.999  -6.567  28.878  0.00  0.00    +0.060 C 
ENDBRANCH  20  24
ENDBRANCH  19  20
ENDBRANCH  18  19
ENDBRANCH  17  18
ENDBRANCH  15  17
ENDBRANCH   1  15
TORSDOF 7
ENDMDL
MODEL 9
REMARK VINA RESULT:      -5.5      2.345      5.951
REMARK  Name = 
REMARK  10 active torsions:
REMARK  status: ('A' for Active; 'I' for Inactive)
REMARK    1  A    between atoms: C_1  and  C_2
REMARK    2  A    between atoms: C_2  and  N_3
REMARK    3  A    between atoms: N_3  and  C_4
REMARK    4  A    between atoms: N_3  and  C_5
REMARK    5  A    between atoms: N_3  and  C_7
REMARK    6  A    between atoms: C_5  and  C_6
REMARK    7  A    between atoms: C_7  and  C_8
REMARK    8  A    between atoms: C_8  and  O_9
REMARK    9  A    between atoms: O_9  and  C_10
REMARK   10  A    between atoms: C_10  and  C_12
REMARK                            x       y       z     vdW  Elec       q    Type
REMARK                         _______ _______ _______ _____ _____    ______ ____
ROOT
ATOM      1  C   UNL     1       6.733  -3.923  25.063  0.00  0.00    +0.164 C 
ATOM      2  C   UNL     1       6.116  -4.732  26.174  0.00  0.00    +0.013 A 
ATOM      3  C   UNL     1       5.493  -5.946  25.887  0.00  0.00    +0.133 A 
ATOM      4  C   UNL     1       4.976  -6.730  26.919  0.00  0.00    +0.046 A 
ATOM      5  C   UNL     1       5.078  -6.302  28.244  0.00  0.00    +0.004 A 
ATOM      6  C   UNL     1       5.690  -5.086  28.538  0.00  0.00    +0.001 A 
ATOM      7  O   UNL     1       5.359  -6.452  24.615  0.00  0.00    -0.455 OA
ATOM      8  C   UNL     1       5.805  -5.707  23.553  0.00  0.00    +0.133 A 
ATOM      9  C   UNL     1       5.637  -6.273  22.286  0.00  0.00    +0.046 A 
ATOM     10  C   UNL     1       6.106  -5.610  21.151  0.00  0.00    +0.004 A 
ATOM     11  C   UNL     1       6.731  -4.371  21.275  0.00  0.00    +0.001 A 
ATOM     12  C   UNL     1       6.886  -3.797  22.535  0.00  0.00    +0.008 A 
ATOM     13  C   UNL     1       6.204  -4.300  27.508  0.00  0.00    +0.008 A 
ATOM     14  C   UNL     1       6.431  -4.468  23.686  0.00  0.00    +0.013 A 
ENDROOT
BRANCH   1  15
ATOM     15  C   UNL     1       8.252  -3.874  25.218  0.00  0.00    +0.319 C 
ATOM     16  O   UNL     1       8.996  -4.850  25.195  0.00  0.00    -0.250 OA
BRANCH  15  17
ATOM     17  O   UNL     1       8.680  -2.613  25.534  0.00  0.00    -0.459 OA
BRANCH  17  18
ATOM     18  C   UNL     1       9.445  -1.978  24.506  0.00  0.00    +0.282 C 
BRANCH  18  19
ATOM     19  C   UNL     1       8.697  -0.779  23.920  0.00  0.00    +0.174 C 
BRANCH  19  20
ATOM     20  N   UNL     1       9.514   0.545  23.903  0.00  0.00    +0.243 N 
ATOM     21  C   UNL     1      10.684   0.407  24.895  0.00  0.00    +0.192 C 
BRANCH  20  23
ATOM     22  C   UNL     1       9.253  -0.016  21.397  0.00  0.00    +0.060 C 
ATOM     23  C   UNL     1      10.085   0.667  22.467  0.00  0.00    +0.129 C 
ENDBRANCH  20  23
BRANCH  20  24
ATOM     24  C   UNL     1       8.660   1.759  24.314  0.00  0.00    +0.129 C 
ATOM     25  C   UNL     1       9.353   3.097  24.101  0.00  0.00    +0.060 C 
ENDBRANCH  20  24
ENDBRANCH  19  20
ENDBRANCH  18  19
ENDBRANCH  17  18
ENDBRANCH  15  17
ENDBRANCH   1  15
TORSDOF 7
ENDMDL
