MODEL 1
REMARK VINA RESULT:      -7.4      0.000      0.000
REMARK  Name = 
REMARK  10 active torsions:
REMARK  status: ('A' for Active; 'I' for Inactive)
REMARK    1  A    between atoms: N_5  and  C_6
REMARK    2  A    between atoms: C_8  and  S_33
REMARK    3  A    between atoms: C_12  and  O_13
REMARK    4  A    between atoms: C_14  and  N_15
REMARK    5  A    between atoms: N_16  and  C_17
REMARK    6  A    between atoms: C_22  and  S_23
REMARK    7  A    between atoms: S_23  and  O_24
REMARK    8  A    between atoms: C_27  and  S_29
REMARK    9  A    between atoms: S_29  and  O_30
REMARK   10  A    between atoms: S_33  and  O_34
REMARK                            x       y       z     vdW  Elec       q    Type
REMARK                         _______ _______ _______ _____ _____    ______ ____
ROOT
ATOM      1  C   UNL     1       6.715   1.167  25.288  0.00  0.00    +0.047 A 
ATOM      2  C   UNL     1       6.492  -0.163  24.779  0.00  0.00    +0.047 A 
ATOM      3  C   UNL     1       5.452  -1.083  25.173  0.00  0.00    +0.155 A 
ATOM      4  C   UNL     1       5.263  -2.371  24.600  0.00  0.00    +0.155 A 
ATOM      5  C   UNL     1       6.174  -2.728  23.601  0.00  0.00    +0.148 A 
ATOM      6  C   UNL     1       7.208  -1.871  23.195  0.00  0.00    +0.040 A 
ATOM      7  C   UNL     1       7.377  -0.615  23.770  0.00  0.00    -0.009 A 
ATOM      8  C   UNL     1       8.445   0.165  23.317  0.00  0.00    +0.038 A 
ATOM      9  C   UNL     1       8.671   1.417  23.865  0.00  0.00    +0.119 A 
ATOM     10  C   UNL     1       7.823   1.919  24.846  0.00  0.00    +0.053 A 
ENDROOT
BRANCH   1  22
ATOM     11  N   UNL     1       8.460   1.238  30.093  0.00  0.00    -0.327 N 
ATOM     12  H   UNL     1       8.392   0.816  31.008  0.00  0.00    +0.145 HD
ATOM     13  H   UNL     1       9.118   0.826  29.444  0.00  0.00    +0.145 HD
ATOM     14  C   UNL     1       7.216   1.364  29.509  0.00  0.00    +0.218 A 
ATOM     15  N   UNL     1       6.160   1.383  30.301  0.00  0.00    -0.181 NA
ATOM     16  C   UNL     1       5.001   1.506  29.678  0.00  0.00    +0.218 A 
ATOM     17  N   UNL     1       3.865   1.536  30.467  0.00  0.00    -0.327 N 
ATOM     18  H   UNL     1       4.094   1.847  31.402  0.00  0.00    +0.145 HD
ATOM     19  H   UNL     1       3.109   2.008  29.993  0.00  0.00    +0.145 HD
ATOM     20  N   UNL     1       4.840   1.632  28.369  0.00  0.00    -0.181 NA
ATOM     21  C   UNL     1       5.960   1.575  27.659  0.00  0.00    +0.225 A 
ATOM     22  N   UNL     1       5.845   1.718  26.265  0.00  0.00    -0.283 N 
ATOM     23  H   UNL     1       4.864   1.679  26.004  0.00  0.00    +0.155 HD
ATOM     24  N   UNL     1       7.168   1.435  28.193  0.00  0.00    -0.181 NA
ENDBRANCH   1  22
BRANCH   5  25
ATOM     25  S   UNL     1       6.126  -4.287  22.766  0.00  0.00    +0.112 S 
ATOM     26  O   UNL     1       7.451  -4.533  22.239  0.00  0.00    -0.142 OA
ATOM     27  O   UNL     1       4.961  -4.263  21.910  0.00  0.00    -0.142 OA
BRANCH  25  28
ATOM     28  O   UNL     1       5.849  -5.405  23.888  0.00  0.00    -0.250 OA
ATOM     29  H   UNL     1       6.355  -6.203  23.643  0.00  0.00    +0.245 HD
ENDBRANCH  25  28
ENDBRANCH   5  25
BRANCH   9  30
ATOM     30  S   UNL     1      10.056   2.382  23.333  0.00  0.00    +0.110 S 
ATOM     31  O   UNL     1      11.244   1.815  23.924  0.00  0.00    -0.142 OA
ATOM     32  O   UNL     1       9.712   3.782  23.478  0.00  0.00    -0.142 OA
BRANCH  30  33
ATOM     33  O   UNL     1      10.098   2.130  21.741  0.00  0.00    -0.250 OA
ATOM     34  H   UNL     1       9.238   1.738  21.480  0.00  0.00    +0.245 HD
ENDBRANCH  30  33
ENDBRANCH   9  30
BRANCH   4  35
ATOM     35  N   UNL     1       4.268  -3.299  25.035  0.00  0.00    -0.144 NA
ATOM     36  N   UNL     1       4.489  -3.801  26.160  0.00  0.00    -0.147 NA
BRANCH  36  37
ATOM     37  C   UNL     1       3.572  -4.818  26.548  0.00  0.00    +0.113 A 
ATOM     38  C   UNL     1       3.974  -5.895  27.354  0.00  0.00    +0.144 A 
ATOM     39  C   UNL     1       3.074  -6.907  27.750  0.00  0.00    +0.032 A 
ATOM     40  C   UNL     1       1.743  -6.861  27.354  0.00  0.00    +0.002 A 
ATOM     41  C   UNL     1       1.322  -5.821  26.539  0.00  0.00    +0.002 A 
ATOM     42  C   UNL     1       2.225  -4.824  26.130  0.00  0.00    +0.031 A 
BRANCH  38  43
ATOM     43  S   UNL     1       5.626  -6.084  27.950  0.00  0.00    +0.112 S 
ATOM     44  O   UNL     1       5.744  -7.434  28.457  0.00  0.00    -0.142 OA
ATOM     45  O   UNL     1       6.042  -4.939  28.732  0.00  0.00    -0.142 OA
BRANCH  43  46
ATOM     46  O   UNL     1       6.535  -5.997  26.619  0.00  0.00    -0.250 OA
ATOM     47  H   UNL     1       6.678  -6.916  26.305  0.00  0.00    +0.245 HD
ENDBRANCH  43  46
ENDBRANCH  38  43
ENDBRANCH  36  37
ENDBRANCH   4  35
BRANCH   3  48
ATOM     48  O   UNL     1       4.602  -0.700  26.191  0.00  0.00    -0.504 OA
ATOM     49  H   UNL     1       5.179  -0.477  26.947  0.00  0.00    +0.292 HD
ENDBRANCH   3  48
TORSDOF 10
ENDMDL
MODEL 2
REMARK VINA RESULT:      -7.2      3.183      7.792
REMARK  Name = 
REMARK  10 active torsions:
REMARK  status: ('A' for Active; 'I' for Inactive)
REMARK    1  A    between atoms: N_5  and  C_6
REMARK    2  A    between atoms: C_8  and  S_33
REMARK    3  A    between atoms: C_12  and  O_13
REMARK    4  A    between atoms: C_14  and  N_15
REMARK    5  A    between atoms: N_16  and  C_17
REMARK    6  A    between atoms: C_22  and  S_23
REMARK    7  A    between atoms: S_23  and  O_24
REMARK    8  A    between atoms: C_27  and  S_29
REMARK    9  A    between atoms: S_29  and  O_30
REMARK   10  A    between atoms: S_33  and  O_34
REMARK                            x       y       z     vdW  Elec       q    Type
REMARK                         _______ _______ _______ _____ _____    ______ ____
ROOT
ATOM      1  C   UNL     1       4.827  -2.583  25.185  0.00  0.00    +0.047 A 
ATOM      2  C   UNL     1       6.010  -2.000  24.604  0.00  0.00    +0.047 A 
ATOM      3  C   UNL     1       6.610  -0.731  24.940  0.00  0.00    +0.155 A 
ATOM      4  C   UNL     1       7.806  -0.230  24.354  0.00  0.00    +0.155 A 
ATOM      5  C   UNL     1       8.396  -1.052  23.388  0.00  0.00    +0.148 A 
ATOM      6  C   UNL     1       7.841  -2.288  23.022  0.00  0.00    +0.040 A 
ATOM      7  C   UNL     1       6.669  -2.758  23.606  0.00  0.00    -0.009 A 
ATOM      8  C   UNL     1       6.179  -3.991  23.168  0.00  0.00    +0.038 A 
ATOM      9  C   UNL     1       5.007  -4.502  23.702  0.00  0.00    +0.119 A 
ATOM     10  C   UNL     1       4.328  -3.809  24.698  0.00  0.00    +0.053 A 
ENDROOT
BRANCH   1  22
ATOM     11  N   UNL     1       4.987  -4.786  29.796  0.00  0.00    -0.327 N 
ATOM     12  H   UNL     1       4.468  -5.314  30.483  0.00  0.00    +0.145 HD
ATOM     13  H   UNL     1       5.489  -5.312  29.094  0.00  0.00    +0.145 HD
ATOM     14  C   UNL     1       4.193  -3.823  29.207  0.00  0.00    +0.218 A 
ATOM     15  N   UNL     1       3.127  -3.411  29.866  0.00  0.00    -0.181 NA
ATOM     16  C   UNL     1       2.411  -2.489  29.245  0.00  0.00    +0.218 A 
ATOM     17  N   UNL     1       1.286  -2.023  29.899  0.00  0.00    -0.327 N 
ATOM     18  H   UNL     1       1.378  -2.157  30.898  0.00  0.00    +0.145 HD
ATOM     19  H   UNL     1       1.037  -1.099  29.577  0.00  0.00    +0.145 HD
ATOM     20  N   UNL     1       2.699  -1.957  28.067  0.00  0.00    -0.181 NA
ATOM     21  C   UNL     1       3.776  -2.455  27.474  0.00  0.00    +0.225 A 
ATOM     22  N   UNL     1       4.133  -1.913  26.227  0.00  0.00    -0.283 N 
ATOM     23  H   UNL     1       3.382  -1.314  25.895  0.00  0.00    +0.155 HD
ATOM     24  N   UNL     1       4.548  -3.395  28.010  0.00  0.00    -0.181 NA
ENDBRANCH   1  22
BRANCH   5  25
ATOM     25  S   UNL     1       9.880  -0.615  22.530  0.00  0.00    +0.112 S 
ATOM     26  O   UNL     1       9.513   0.317  21.485  0.00  0.00    -0.142 OA
ATOM     27  O   UNL     1      10.568  -1.852  22.235  0.00  0.00    -0.142 OA
BRANCH  25  28
ATOM     28  O   UNL     1      10.801   0.186  23.575  0.00  0.00    -0.250 OA
ATOM     29  H   UNL     1      11.589  -0.362  23.757  0.00  0.00    +0.245 HD
ENDBRANCH  25  28
ENDBRANCH   5  25
BRANCH   9  30
ATOM     30  S   UNL     1       4.354  -6.035  23.107  0.00  0.00    +0.110 S 
ATOM     31  O   UNL     1       3.022  -5.786  22.610  0.00  0.00    -0.142 OA
ATOM     32  O   UNL     1       4.632  -7.058  24.095  0.00  0.00    -0.142 OA
BRANCH  30  33
ATOM     33  O   UNL     1       5.313  -6.392  21.861  0.00  0.00    -0.250 OA
ATOM     34  H   UNL     1       6.241  -6.309  22.168  0.00  0.00    +0.245 HD
ENDBRANCH  30  33
ENDBRANCH   9  30
BRANCH   4  35
ATOM     35  N   UNL     1       8.361   1.052  24.649  0.00  0.00    -0.144 NA
ATOM     36  N   UNL     1       7.641   2.016  24.306  0.00  0.00    -0.147 NA
BRANCH  36  37
ATOM     37  C   UNL     1       8.239   3.297  24.480  0.00  0.00    +0.113 A 
ATOM     38  C   UNL     1       8.011   4.057  25.637  0.00  0.00    +0.144 A 
ATOM     39  C   UNL     1       8.601   5.325  25.826  0.00  0.00    +0.032 A 
ATOM     40  C   UNL     1       9.443   5.861  24.859  0.00  0.00    +0.002 A 
ATOM     41  C   UNL     1       9.670   5.142  23.694  0.00  0.00    +0.002 A 
ATOM     42  C   UNL     1       9.066   3.888  23.501  0.00  0.00    +0.031 A 
BRANCH  38  43
ATOM     43  S   UNL     1       6.979   3.506  26.961  0.00  0.00    +0.112 S 
ATOM     44  O   UNL     1       5.655   3.302  26.413  0.00  0.00    -0.142 OA
ATOM     45  O   UNL     1       7.193   4.287  28.161  0.00  0.00    -0.142 OA
BRANCH  43  46
ATOM     46  O   UNL     1       7.567   2.050  27.335  0.00  0.00    -0.250 OA
ATOM     47  H   UNL     1       7.828   1.618  26.492  0.00  0.00    +0.245 HD
ENDBRANCH  43  46
ENDBRANCH  38  43
ENDBRANCH  36  37
ENDBRANCH   4  35
BRANCH   3  48
ATOM     48  O   UNL     1       5.968   0.062  25.870  0.00  0.00    -0.504 OA
ATOM     49  H   UNL     1       5.012  -0.053  25.700  0.00  0.00    +0.292 HD
ENDBRANCH   3  48
TORSDOF 10
ENDMDL
MODEL 3
REMARK VINA RESULT:      -7.2      3.298      4.592
REMARK  Name = 
REMARK  10 active torsions:
REMARK  status: ('A' for Active; 'I' for Inactive)
REMARK    1  A    between atoms: N_5  and  C_6
REMARK    2  A    between atoms: C_8  and  S_33
REMARK    3  A    between atoms: C_12  and  O_13
REMARK    4  A    between atoms: C_14  and  N_15
REMARK    5  A    between atoms: N_16  and  C_17
REMARK    6  A    between atoms: C_22  and  S_23
REMARK    7  A    between atoms: S_23  and  O_24
REMARK    8  A    between atoms: C_27  and  S_29
REMARK    9  A    between atoms: S_29  and  O_30
REMARK   10  A    between atoms: S_33  and  O_34
REMARK                            x       y       z     vdW  Elec       q    Type
REMARK                         _______ _______ _______ _____ _____    ______ ____
ROOT
ATOM      1  C   UNL     1       6.523   3.241  24.441  0.00  0.00    +0.047 A 
ATOM      2  C   UNL     1       7.063   1.963  24.049  0.00  0.00    +0.047 A 
ATOM      3  C   UNL     1       6.389   0.688  24.075  0.00  0.00    +0.155 A 
ATOM      4  C   UNL     1       6.970  -0.534  23.634  0.00  0.00    +0.155 A 
ATOM      5  C   UNL     1       8.284  -0.444  23.165  0.00  0.00    +0.148 A 
ATOM      6  C   UNL     1       8.982   0.773  23.134  0.00  0.00    +0.040 A 
ATOM      7  C   UNL     1       8.396   1.956  23.571  0.00  0.00    -0.009 A 
ATOM      8  C   UNL     1       9.172   3.118  23.520  0.00  0.00    +0.038 A 
ATOM      9  C   UNL     1       8.646   4.323  23.958  0.00  0.00    +0.119 A 
ATOM     10  C   UNL     1       7.336   4.392  24.421  0.00  0.00    +0.053 A 
ENDROOT
BRANCH   1  22
ATOM     11  N   UNL     1       3.006   4.118  20.835  0.00  0.00    -0.327 N 
ATOM     12  H   UNL     1       2.388   4.805  20.426  0.00  0.00    +0.145 HD
ATOM     13  H   UNL     1       3.944   4.063  20.461  0.00  0.00    +0.145 HD
ATOM     14  C   UNL     1       3.037   4.232  22.210  0.00  0.00    +0.218 A 
ATOM     15  N   UNL     1       2.012   4.813  22.805  0.00  0.00    -0.181 NA
ATOM     16  C   UNL     1       2.106   4.890  24.122  0.00  0.00    +0.218 A 
ATOM     17  N   UNL     1       1.053   5.487  24.791  0.00  0.00    -0.327 N 
ATOM     18  H   UNL     1       0.207   5.430  24.240  0.00  0.00    +0.145 HD
ATOM     19  H   UNL     1       1.006   5.167  25.748  0.00  0.00    +0.145 HD
ATOM     20  N   UNL     1       3.106   4.418  24.851  0.00  0.00    -0.181 NA
ATOM     21  C   UNL     1       4.098   3.875  24.157  0.00  0.00    +0.225 A 
ATOM     22  N   UNL     1       5.178   3.346  24.886  0.00  0.00    -0.283 N 
ATOM     23  H   UNL     1       5.092   3.622  25.860  0.00  0.00    +0.155 HD
ATOM     24  N   UNL     1       4.104   3.769  22.833  0.00  0.00    -0.181 NA
ENDBRANCH   1  22
BRANCH   5  25
ATOM     25  S   UNL     1       9.195  -1.843  22.581  0.00  0.00    +0.112 S 
ATOM     26  O   UNL     1      10.154  -2.190  23.608  0.00  0.00    -0.142 OA
ATOM     27  O   UNL     1       9.609  -1.535  21.230  0.00  0.00    -0.142 OA
BRANCH  25  28
ATOM     28  O   UNL     1       8.154  -3.063  22.476  0.00  0.00    -0.250 OA
ATOM     29  H   UNL     1       7.273  -2.687  22.288  0.00  0.00    +0.245 HD
ENDBRANCH  25  28
ENDBRANCH   5  25
BRANCH   9  30
ATOM     30  S   UNL     1       9.645   5.783  23.949  0.00  0.00    +0.110 S 
ATOM     31  O   UNL     1       9.932   6.132  25.320  0.00  0.00    -0.142 OA
ATOM     32  O   UNL     1       9.058   6.726  23.018  0.00  0.00    -0.142 OA
BRANCH  30  33
ATOM     33  O   UNL     1      11.010   5.298  23.242  0.00  0.00    -0.250 OA
ATOM     34  H   UNL     1      11.498   4.744  23.888  0.00  0.00    +0.245 HD
ENDBRANCH  30  33
ENDBRANCH   9  30
BRANCH   4  35
ATOM     35  N   UNL     1       6.317  -1.802  23.716  0.00  0.00    -0.144 NA
ATOM     36  N   UNL     1       6.190  -2.241  24.881  0.00  0.00    -0.147 NA
BRANCH  36  37
ATOM     37  C   UNL     1       5.655  -3.557  24.966  0.00  0.00    +0.113 A 
ATOM     38  C   UNL     1       6.457  -4.649  25.335  0.00  0.00    +0.144 A 
ATOM     39  C   UNL     1       5.939  -5.958  25.428  0.00  0.00    +0.032 A 
ATOM     40  C   UNL     1       4.598  -6.206  25.160  0.00  0.00    +0.002 A 
ATOM     41  C   UNL     1       3.786  -5.150  24.771  0.00  0.00    +0.002 A 
ATOM     42  C   UNL     1       4.309  -3.851  24.661  0.00  0.00    +0.031 A 
BRANCH  38  43
ATOM     43  S   UNL     1       8.174  -4.492  25.722  0.00  0.00    +0.112 S 
ATOM     44  O   UNL     1       8.914  -5.019  24.596  0.00  0.00    -0.142 OA
ATOM     45  O   UNL     1       8.452  -4.913  27.079  0.00  0.00    -0.142 OA
BRANCH  43  46
ATOM     46  O   UNL     1       8.424  -2.897  25.750  0.00  0.00    -0.250 OA
ATOM     47  H   UNL     1       9.393  -2.756  25.685  0.00  0.00    +0.245 HD
ENDBRANCH  43  46
ENDBRANCH  38  43
ENDBRANCH  36  37
ENDBRANCH   4  35
BRANCH   3  48
ATOM     48  O   UNL     1       5.107   0.644  24.584  0.00  0.00    -0.504 OA
ATOM     49  H   UNL     1       4.745  -0.223  24.316  0.00  0.00    +0.292 HD
ENDBRANCH   3  48
TORSDOF 10
ENDMDL
MODEL 4
REMARK VINA RESULT:      -7.0      2.914      7.653
REMARK  Name = 
REMARK  10 active torsions:
REMARK  status: ('A' for Active; 'I' for Inactive)
REMARK    1  A    between atoms: N_5  and  C_6
REMARK    2  A    between atoms: C_8  and  S_33
REMARK    3  A    between atoms: C_12  and  O_13
REMARK    4  A    between atoms: C_14  and  N_15
REMARK    5  A    between atoms: N_16  and  C_17
REMARK    6  A    between atoms: C_22  and  S_23
REMARK    7  A    between atoms: S_23  and  O_24
REMARK    8  A    between atoms: C_27  and  S_29
REMARK    9  A    between atoms: S_29  and  O_30
REMARK   10  A    between atoms: S_33  and  O_34
REMARK                            x       y       z     vdW  Elec       q    Type
REMARK                         _______ _______ _______ _____ _____    ______ ____
ROOT
ATOM      1  C   UNL     1       5.805  -2.881  24.720  0.00  0.00    +0.047 A 
ATOM      2  C   UNL     1       6.679  -1.779  24.407  0.00  0.00    +0.047 A 
ATOM      3  C   UNL     1       6.888  -0.584  25.189  0.00  0.00    +0.155 A 
ATOM      4  C   UNL     1       7.800   0.451  24.841  0.00  0.00    +0.155 A 
ATOM      5  C   UNL     1       8.508   0.259  23.650  0.00  0.00    +0.148 A 
ATOM      6  C   UNL     1       8.327  -0.881  22.853  0.00  0.00    +0.040 A 
ATOM      7  C   UNL     1       7.429  -1.882  23.210  0.00  0.00    -0.009 A 
ATOM      8  C   UNL     1       7.301  -2.974  22.346  0.00  0.00    +0.038 A 
ATOM      9  C   UNL     1       6.409  -3.992  22.644  0.00  0.00    +0.119 A 
ATOM     10  C   UNL     1       5.660  -3.952  23.814  0.00  0.00    +0.053 A 
ENDROOT
BRANCH   1  22
ATOM     11  N   UNL     1       7.138  -6.365  28.217  0.00  0.00    -0.327 N 
ATOM     12  H   UNL     1       6.886  -7.239  28.658  0.00  0.00    +0.145 HD
ATOM     13  H   UNL     1       7.700  -6.419  27.377  0.00  0.00    +0.145 HD
ATOM     14  C   UNL     1       6.026  -5.575  28.007  0.00  0.00    +0.218 A 
ATOM     15  N   UNL     1       4.962  -5.793  28.758  0.00  0.00    -0.181 NA
ATOM     16  C   UNL     1       3.933  -5.003  28.505  0.00  0.00    +0.218 A 
ATOM     17  N   UNL     1       2.796  -5.190  29.270  0.00  0.00    -0.327 N 
ATOM     18  H   UNL     1       3.033  -5.624  30.152  0.00  0.00    +0.145 HD
ATOM     19  H   UNL     1       2.240  -4.348  29.302  0.00  0.00    +0.145 HD
ATOM     20  N   UNL     1       3.912  -4.031  27.605  0.00  0.00    -0.181 NA
ATOM     21  C   UNL     1       5.020  -3.909  26.886  0.00  0.00    +0.225 A 
ATOM     22  N   UNL     1       5.054  -2.883  25.926  0.00  0.00    -0.283 N 
ATOM     23  H   UNL     1       4.123  -2.488  25.825  0.00  0.00    +0.155 HD
ATOM     24  N   UNL     1       6.098  -4.668  27.053  0.00  0.00    -0.181 NA
ENDBRANCH   1  22
BRANCH   5  25
ATOM     25  S   UNL     1       9.681   1.427  23.029  0.00  0.00    +0.112 S 
ATOM     26  O   UNL     1       9.836   1.168  21.613  0.00  0.00    -0.142 OA
ATOM     27  O   UNL     1      10.809   1.404  23.932  0.00  0.00    -0.142 OA
BRANCH  25  28
ATOM     28  O   UNL     1       9.008   2.880  23.171  0.00  0.00    -0.250 OA
ATOM     29  H   UNL     1       8.062   2.793  22.946  0.00  0.00    +0.245 HD
ENDBRANCH  25  28
ENDBRANCH   5  25
BRANCH   9  30
ATOM     30  S   UNL     1       6.203  -5.346  21.523  0.00  0.00    +0.110 S 
ATOM     31  O   UNL     1       7.287  -6.273  21.744  0.00  0.00    -0.142 OA
ATOM     32  O   UNL     1       5.903  -4.805  20.213  0.00  0.00    -0.142 OA
BRANCH  30  33
ATOM     33  O   UNL     1       4.828  -6.031  22.012  0.00  0.00    -0.250 OA
ATOM     34  H   UNL     1       4.497  -5.517  22.779  0.00  0.00    +0.245 HD
ENDBRANCH  30  33
ENDBRANCH   9  30
BRANCH   4  35
ATOM     35  N   UNL     1       7.959   1.658  25.589  0.00  0.00    -0.144 NA
ATOM     36  N   UNL     1       6.934   2.374  25.636  0.00  0.00    -0.147 NA
BRANCH  36  37
ATOM     37  C   UNL     1       7.117   3.634  26.271  0.00  0.00    +0.113 A 
ATOM     38  C   UNL     1       6.895   3.797  27.648  0.00  0.00    +0.144 A 
ATOM     39  C   UNL     1       7.078   5.039  28.292  0.00  0.00    +0.032 A 
ATOM     40  C   UNL     1       7.497   6.151  27.571  0.00  0.00    +0.002 A 
ATOM     41  C   UNL     1       7.704   6.026  26.205  0.00  0.00    +0.002 A 
ATOM     42  C   UNL     1       7.502   4.792  25.563  0.00  0.00    +0.031 A 
BRANCH  38  43
ATOM     43  S   UNL     1       6.376   2.476  28.700  0.00  0.00    +0.112 S 
ATOM     44  O   UNL     1       5.121   1.982  28.176  0.00  0.00    -0.142 OA
ATOM     45  O   UNL     1       6.535   2.818  30.097  0.00  0.00    -0.142 OA
BRANCH  43  46
ATOM     46  O   UNL     1       7.479   1.323  28.453  0.00  0.00    -0.250 OA
ATOM     47  H   UNL     1       7.474   1.119  27.493  0.00  0.00    +0.245 HD
ENDBRANCH  43  46
ENDBRANCH  38  43
ENDBRANCH  36  37
ENDBRANCH   4  35
BRANCH   3  48
ATOM     48  O   UNL     1       6.136  -0.422  26.335  0.00  0.00    -0.504 OA
ATOM     49  H   UNL     1       5.295  -0.890  26.168  0.00  0.00    +0.292 HD
ENDBRANCH   3  48
TORSDOF 10
ENDMDL
MODEL 5
REMARK VINA RESULT:      -7.0      3.025      4.092
REMARK  Name = 
REMARK  10 active torsions:
REMARK  status: ('A' for Active; 'I' for Inactive)
REMARK    1  A    between atoms: N_5  and  C_6
REMARK    2  A    between atoms: C_8  and  S_33
REMARK    3  A    between atoms: C_12  and  O_13
REMARK    4  A    between atoms: C_14  and  N_15
REMARK    5  A    between atoms: N_16  and  C_17
REMARK    6  A    between atoms: C_22  and  S_23
REMARK    7  A    between atoms: S_23  and  O_24
REMARK    8  A    between atoms: C_27  and  S_29
REMARK    9  A    between atoms: S_29  and  O_30
REMARK   10  A    between atoms: S_33  and  O_34
REMARK                            x       y       z     vdW  Elec       q    Type
REMARK                         _______ _______ _______ _____ _____    ______ ____
ROOT
ATOM      1  C   UNL     1       7.695   2.964  25.820  0.00  0.00    +0.047 A 
ATOM      2  C   UNL     1       8.084   1.731  25.184  0.00  0.00    +0.047 A 
ATOM      3  C   UNL     1       7.641   0.400  25.522  0.00  0.00    +0.155 A 
ATOM      4  C   UNL     1       8.035  -0.777  24.824  0.00  0.00    +0.155 A 
ATOM      5  C   UNL     1       8.916  -0.580  23.756  0.00  0.00    +0.148 A 
ATOM      6  C   UNL     1       9.382   0.696  23.400  0.00  0.00    +0.040 A 
ATOM      7  C   UNL     1       8.986   1.833  24.097  0.00  0.00    -0.009 A 
ATOM      8  C   UNL     1       9.513   3.060  23.684  0.00  0.00    +0.038 A 
ATOM      9  C   UNL     1       9.167   4.224  24.351  0.00  0.00    +0.119 A 
ATOM     10  C   UNL     1       8.271   4.185  25.414  0.00  0.00    +0.053 A 
ENDROOT
BRANCH   1  22
ATOM     11  N   UNL     1       2.765   3.263  24.498  0.00  0.00    -0.327 N 
ATOM     12  H   UNL     1       1.949   3.858  24.461  0.00  0.00    +0.145 HD
ATOM     13  H   UNL     1       3.386   3.282  23.700  0.00  0.00    +0.145 HD
ATOM     14  C   UNL     1       3.471   3.461  25.668  0.00  0.00    +0.218 A 
ATOM     15  N   UNL     1       2.826   3.969  26.701  0.00  0.00    -0.181 NA
ATOM     16  C   UNL     1       3.561   4.133  27.788  0.00  0.00    +0.218 A 
ATOM     17  N   UNL     1       2.927   4.657  28.899  0.00  0.00    -0.327 N 
ATOM     18  H   UNL     1       1.932   4.482  28.854  0.00  0.00    +0.145 HD
ATOM     19  H   UNL     1       3.406   4.392  29.747  0.00  0.00    +0.145 HD
ATOM     20  N   UNL     1       4.839   3.809  27.908  0.00  0.00    -0.181 NA
ATOM     21  C   UNL     1       5.403   3.330  26.806  0.00  0.00    +0.225 A 
ATOM     22  N   UNL     1       6.756   2.958  26.886  0.00  0.00    -0.283 N 
ATOM     23  H   UNL     1       7.141   3.281  27.769  0.00  0.00    +0.155 HD
ATOM     24  N   UNL     1       4.752   3.147  25.663  0.00  0.00    -0.181 NA
ENDBRANCH   1  22
BRANCH   5  25
ATOM     25  S   UNL     1       9.538  -1.905  22.764  0.00  0.00    +0.112 S 
ATOM     26  O   UNL     1      10.913  -1.590  22.438  0.00  0.00    -0.142 OA
ATOM     27  O   UNL     1       8.552  -2.153  21.737  0.00  0.00    -0.142 OA
BRANCH  25  28
ATOM     28  O   UNL     1       9.564  -3.212  23.701  0.00  0.00    -0.250 OA
ATOM     29  H   UNL     1      10.423  -3.228  24.165  0.00  0.00    +0.245 HD
ENDBRANCH  25  28
ENDBRANCH   5  25
BRANCH   9  30
ATOM     30  S   UNL     1       9.878   5.770  23.867  0.00  0.00    +0.110 S 
ATOM     31  O   UNL     1      10.381   6.418  25.054  0.00  0.00    -0.142 OA
ATOM     32  O   UNL     1       8.958   6.425  22.959  0.00  0.00    -0.142 OA
BRANCH  30  33
ATOM     33  O   UNL     1      11.128   5.334  22.946  0.00  0.00    -0.250 OA
ATOM     34  H   UNL     1      10.768   4.972  22.109  0.00  0.00    +0.245 HD
ENDBRANCH  30  33
ENDBRANCH   9  30
BRANCH   4  35
ATOM     35  N   UNL     1       7.639  -2.096  25.200  0.00  0.00    -0.144 NA
ATOM     36  N   UNL     1       6.554  -2.470  24.702  0.00  0.00    -0.147 NA
BRANCH  36  37
ATOM     37  C   UNL     1       6.089  -3.732  25.168  0.00  0.00    +0.113 A 
ATOM     38  C   UNL     1       5.687  -4.737  24.275  0.00  0.00    +0.144 A 
ATOM     39  C   UNL     1       5.229  -5.995  24.723  0.00  0.00    +0.032 A 
ATOM     40  C   UNL     1       5.168  -6.279  26.082  0.00  0.00    +0.002 A 
ATOM     41  C   UNL     1       5.538  -5.297  26.990  0.00  0.00    +0.002 A 
ATOM     42  C   UNL     1       5.976  -4.039  26.540  0.00  0.00    +0.031 A 
BRANCH  38  43
ATOM     43  S   UNL     1       5.722  -4.533  22.520  0.00  0.00    +0.112 S 
ATOM     44  O   UNL     1       5.197  -3.215  22.234  0.00  0.00    -0.142 OA
ATOM     45  O   UNL     1       5.228  -5.712  21.840  0.00  0.00    -0.142 OA
BRANCH  43  46
ATOM     46  O   UNL     1       7.295  -4.506  22.161  0.00  0.00    -0.250 OA
ATOM     47  H   UNL     1       7.371  -4.255  21.215  0.00  0.00    +0.245 HD
ENDBRANCH  43  46
ENDBRANCH  38  43
ENDBRANCH  36  37
ENDBRANCH   4  35
BRANCH   3  48
ATOM     48  O   UNL     1       6.804   0.253  26.609  0.00  0.00    -0.504 OA
ATOM     49  H   UNL     1       5.910   0.484  26.287  0.00  0.00    +0.292 HD
ENDBRANCH   3  48
TORSDOF 10
ENDMDL
MODEL 6
REMARK VINA RESULT:      -7.0      2.904      5.110
REMARK  Name = 
REMARK  10 active torsions:
REMARK  status: ('A' for Active; 'I' for Inactive)
REMARK    1  A    between atoms: N_5  and  C_6
REMARK    2  A    between atoms: C_8  and  S_33
REMARK    3  A    between atoms: C_12  and  O_13
REMARK    4  A    between atoms: C_14  and  N_15
REMARK    5  A    between atoms: N_16  and  C_17
REMARK    6  A    between atoms: C_22  and  S_23
REMARK    7  A    between atoms: S_23  and  O_24
REMARK    8  A    between atoms: C_27  and  S_29
REMARK    9  A    between atoms: S_29  and  O_30
REMARK   10  A    between atoms: S_33  and  O_34
REMARK                            x       y       z     vdW  Elec       q    Type
REMARK                         _______ _______ _______ _____ _____    ______ ____
ROOT
ATOM      1  C   UNL     1       8.118  -0.457  24.767  0.00  0.00    +0.047 A 
ATOM      2  C   UNL     1       6.849  -0.433  25.450  0.00  0.00    +0.047 A 
ATOM      3  C   UNL     1       6.312  -1.447  26.325  0.00  0.00    +0.155 A 
ATOM      4  C   UNL     1       5.065  -1.341  27.002  0.00  0.00    +0.155 A 
ATOM      5  C   UNL     1       4.346  -0.165  26.766  0.00  0.00    +0.148 A 
ATOM      6  C   UNL     1       4.825   0.841  25.913  0.00  0.00    +0.040 A 
ATOM      7  C   UNL     1       6.046   0.718  25.258  0.00  0.00    -0.009 A 
ATOM      8  C   UNL     1       6.435   1.762  24.415  0.00  0.00    +0.038 A 
ATOM      9  C   UNL     1       7.634   1.686  23.724  0.00  0.00    +0.119 A 
ATOM     10  C   UNL     1       8.471   0.588  23.888  0.00  0.00    +0.053 A 
ENDROOT
BRANCH   1  22
ATOM     11  N   UNL     1       7.108  -4.661  22.038  0.00  0.00    -0.327 N 
ATOM     12  H   UNL     1       6.752  -5.606  22.068  0.00  0.00    +0.145 HD
ATOM     13  H   UNL     1       6.436  -3.922  21.880  0.00  0.00    +0.145 HD
ATOM     14  C   UNL     1       7.882  -4.385  23.147  0.00  0.00    +0.218 A 
ATOM     15  N   UNL     1       8.421  -5.402  23.793  0.00  0.00    -0.181 NA
ATOM     16  C   UNL     1       9.149  -5.068  24.845  0.00  0.00    +0.218 A 
ATOM     17  N   UNL     1       9.739  -6.099  25.552  0.00  0.00    -0.327 N 
ATOM     18  H   UNL     1       9.854  -6.912  24.961  0.00  0.00    +0.145 HD
ATOM     19  H   UNL     1      10.551  -5.774  26.056  0.00  0.00    +0.145 HD
ATOM     20  N   UNL     1       9.385  -3.831  25.256  0.00  0.00    -0.181 NA
ATOM     21  C   UNL     1       8.778  -2.882  24.554  0.00  0.00    +0.225 A 
ATOM     22  N   UNL     1       9.008  -1.550  24.942  0.00  0.00    -0.283 N 
ATOM     23  H   UNL     1       9.493  -1.540  25.834  0.00  0.00    +0.155 HD
ATOM     24  N   UNL     1       8.013  -3.120  23.495  0.00  0.00    -0.181 NA
ENDBRANCH   1  22
BRANCH   5  25
ATOM     25  S   UNL     1       2.770   0.163  27.498  0.00  0.00    +0.112 S 
ATOM     26  O   UNL     1       2.088   1.113  26.644  0.00  0.00    -0.142 OA
ATOM     27  O   UNL     1       3.011   0.437  28.897  0.00  0.00    -0.142 OA
BRANCH  25  28
ATOM     28  O   UNL     1       1.935  -1.209  27.437  0.00  0.00    -0.250 OA
ATOM     29  H   UNL     1       1.137  -1.097  27.987  0.00  0.00    +0.245 HD
ENDBRANCH  25  28
ENDBRANCH   5  25
BRANCH   9  30
ATOM     30  S   UNL     1       8.101   2.979  22.611  0.00  0.00    +0.110 S 
ATOM     31  O   UNL     1       8.924   3.915  23.340  0.00  0.00    -0.142 OA
ATOM     32  O   UNL     1       6.921   3.393  21.880  0.00  0.00    -0.142 OA
BRANCH  30  33
ATOM     33  O   UNL     1       9.019   2.223  21.522  0.00  0.00    -0.250 OA
ATOM     34  H   UNL     1       8.471   2.080  20.721  0.00  0.00    +0.245 HD
ENDBRANCH  30  33
ENDBRANCH   9  30
BRANCH   4  35
ATOM     35  N   UNL     1       4.513  -2.374  27.820  0.00  0.00    -0.144 NA
ATOM     36  N   UNL     1       4.333  -3.460  27.226  0.00  0.00    -0.147 NA
BRANCH  36  37
ATOM     37  C   UNL     1       3.668  -4.456  27.996  0.00  0.00    +0.113 A 
ATOM     38  C   UNL     1       4.296  -5.669  28.319  0.00  0.00    +0.144 A 
ATOM     39  C   UNL     1       3.652  -6.663  29.086  0.00  0.00    +0.032 A 
ATOM     40  C   UNL     1       2.359  -6.462  29.556  0.00  0.00    +0.002 A 
ATOM     41  C   UNL     1       1.705  -5.282  29.234  0.00  0.00    +0.002 A 
ATOM     42  C   UNL     1       2.343  -4.302  28.454  0.00  0.00    +0.031 A 
BRANCH  38  43
ATOM     43  S   UNL     1       5.942  -6.065  27.810  0.00  0.00    +0.112 S 
ATOM     44  O   UNL     1       5.905  -6.276  26.379  0.00  0.00    -0.142 OA
ATOM     45  O   UNL     1       6.558  -7.021  28.704  0.00  0.00    -0.142 OA
BRANCH  43  46
ATOM     46  O   UNL     1       6.769  -4.702  28.067  0.00  0.00    -0.250 OA
ATOM     47  H   UNL     1       6.117  -4.012  28.318  0.00  0.00    +0.245 HD
ENDBRANCH  43  46
ENDBRANCH  38  43
ENDBRANCH  36  37
ENDBRANCH   4  35
BRANCH   3  48
ATOM     48  O   UNL     1       7.040  -2.607  26.495  0.00  0.00    -0.504 OA
ATOM     49  H   UNL     1       6.822  -3.170  25.727  0.00  0.00    +0.292 HD
ENDBRANCH   3  48
TORSDOF 10
ENDMDL
MODEL 7
REMARK VINA RESULT:      -6.9      3.330      7.943
REMARK  Name = 
REMARK  10 active torsions:
REMARK  status: ('A' for Active; 'I' for Inactive)
REMARK    1  A    between atoms: N_5  and  C_6
REMARK    2  A    between atoms: C_8  and  S_33
REMARK    3  A    between atoms: C_12  and  O_13
REMARK    4  A    between atoms: C_14  and  N_15
REMARK    5  A    between atoms: N_16  and  C_17
REMARK    6  A    between atoms: C_22  and  S_23
REMARK    7  A    between atoms: S_23  and  O_24
REMARK    8  A    between atoms: C_27  and  S_29
REMARK    9  A    between atoms: S_29  and  O_30
REMARK   10  A    between atoms: S_33  and  O_34
REMARK                            x       y       z     vdW  Elec       q    Type
REMARK                         _______ _______ _______ _____ _____    ______ ____
ROOT
ATOM      1  C   UNL     1       6.215  -2.073  24.951  0.00  0.00    +0.047 A 
ATOM      2  C   UNL     1       7.079  -0.975  24.600  0.00  0.00    +0.047 A 
ATOM      3  C   UNL     1       6.706   0.410  24.441  0.00  0.00    +0.155 A 
ATOM      4  C   UNL     1       7.621   1.456  24.132  0.00  0.00    +0.155 A 
ATOM      5  C   UNL     1       8.954   1.065  23.971  0.00  0.00    +0.148 A 
ATOM      6  C   UNL     1       9.359  -0.272  24.105  0.00  0.00    +0.040 A 
ATOM      7  C   UNL     1       8.448  -1.280  24.405  0.00  0.00    -0.009 A 
ATOM      8  C   UNL     1       8.938  -2.585  24.502  0.00  0.00    +0.038 A 
ATOM      9  C   UNL     1       8.073  -3.631  24.783  0.00  0.00    +0.119 A 
ATOM     10  C   UNL     1       6.722  -3.388  25.001  0.00  0.00    +0.053 A 
ENDROOT
BRANCH   1  22
ATOM     11  N   UNL     1       5.092   0.193  29.394  0.00  0.00    -0.327 N 
ATOM     12  H   UNL     1       4.722   0.060  30.325  0.00  0.00    +0.145 HD
ATOM     13  H   UNL     1       6.085   0.050  29.268  0.00  0.00    +0.145 HD
ATOM     14  C   UNL     1       4.374  -0.535  28.466  0.00  0.00    +0.218 A 
ATOM     15  N   UNL     1       3.139  -0.883  28.774  0.00  0.00    -0.181 NA
ATOM     16  C   UNL     1       2.510  -1.578  27.841  0.00  0.00    +0.218 A 
ATOM     17  N   UNL     1       1.210  -1.962  28.116  0.00  0.00    -0.327 N 
ATOM     18  H   UNL     1       0.798  -1.344  28.803  0.00  0.00    +0.145 HD
ATOM     19  H   UNL     1       0.692  -2.120  27.264  0.00  0.00    +0.145 HD
ATOM     20  N   UNL     1       3.008  -1.909  26.660  0.00  0.00    -0.181 NA
ATOM     21  C   UNL     1       4.265  -1.533  26.457  0.00  0.00    +0.225 A 
ATOM     22  N   UNL     1       4.837  -1.848  25.212  0.00  0.00    -0.283 N 
ATOM     23  H   UNL     1       4.219  -2.480  24.710  0.00  0.00    +0.155 HD
ATOM     24  N   UNL     1       4.985  -0.849  27.340  0.00  0.00    -0.181 NA
ENDBRANCH   1  22
BRANCH   5  25
ATOM     25  S   UNL     1      10.250   2.202  23.575  0.00  0.00    +0.112 S 
ATOM     26  O   UNL     1      10.196   2.432  22.146  0.00  0.00    -0.142 OA
ATOM     27  O   UNL     1      11.446   1.710  24.220  0.00  0.00    -0.142 OA
BRANCH  25  28
ATOM     28  O   UNL     1       9.880   3.593  24.291  0.00  0.00    -0.250 OA
ATOM     29  H   UNL     1      10.612   4.217  24.124  0.00  0.00    +0.245 HD
ENDBRANCH  25  28
ENDBRANCH   5  25
BRANCH   9  30
ATOM     30  S   UNL     1       8.681  -5.292  24.849  0.00  0.00    +0.110 S 
ATOM     31  O   UNL     1       8.474  -5.891  23.552  0.00  0.00    -0.142 OA
ATOM     32  O   UNL     1       8.194  -5.903  26.069  0.00  0.00    -0.142 OA
BRANCH  30  33
ATOM     33  O   UNL     1      10.265  -5.102  25.084  0.00  0.00    -0.250 OA
ATOM     34  H   UNL     1      10.692  -5.051  24.202  0.00  0.00    +0.245 HD
ENDBRANCH  30  33
ENDBRANCH   9  30
BRANCH   4  35
ATOM     35  N   UNL     1       7.236   2.815  23.918  0.00  0.00    -0.144 NA
ATOM     36  N   UNL     1       6.556   3.000  22.884  0.00  0.00    -0.147 NA
BRANCH  36  37
ATOM     37  C   UNL     1       6.274   4.365  22.596  0.00  0.00    +0.113 A 
ATOM     38  C   UNL     1       5.007   4.917  22.844  0.00  0.00    +0.144 A 
ATOM     39  C   UNL     1       4.715   6.270  22.568  0.00  0.00    +0.032 A 
ATOM     40  C   UNL     1       5.691   7.108  22.041  0.00  0.00    +0.002 A 
ATOM     41  C   UNL     1       6.946   6.586  21.765  0.00  0.00    +0.002 A 
ATOM     42  C   UNL     1       7.228   5.233  22.023  0.00  0.00    +0.031 A 
BRANCH  38  43
ATOM     43  S   UNL     1       3.670   3.985  23.525  0.00  0.00    +0.112 S 
ATOM     44  O   UNL     1       2.447   4.668  23.164  0.00  0.00    -0.142 OA
ATOM     45  O   UNL     1       3.943   3.585  24.889  0.00  0.00    -0.142 OA
BRANCH  43  46
ATOM     46  O   UNL     1       3.700   2.598  22.699  0.00  0.00    -0.250 OA
ATOM     47  H   UNL     1       4.086   1.917  23.292  0.00  0.00    +0.245 HD
ENDBRANCH  43  46
ENDBRANCH  38  43
ENDBRANCH  36  37
ENDBRANCH   4  35
BRANCH   3  48
ATOM     48  O   UNL     1       5.372   0.740  24.569  0.00  0.00    -0.504 OA
ATOM     49  H   UNL     1       4.934   0.383  23.772  0.00  0.00    +0.292 HD
ENDBRANCH   3  48
TORSDOF 10
ENDMDL
MODEL 8
REMARK VINA RESULT:      -6.8      3.080      4.197
REMARK  Name = 
REMARK  10 active torsions:
REMARK  status: ('A' for Active; 'I' for Inactive)
REMARK    1  A    between atoms: N_5  and  C_6
REMARK    2  A    between atoms: C_8  and  S_33
REMARK    3  A    between atoms: C_12  and  O_13
REMARK    4  A    between atoms: C_14  and  N_15
REMARK    5  A    between atoms: N_16  and  C_17
REMARK    6  A    between atoms: C_22  and  S_23
REMARK    7  A    between atoms: S_23  and  O_24
REMARK    8  A    between atoms: C_27  and  S_29
REMARK    9  A    between atoms: S_29  and  O_30
REMARK   10  A    between atoms: S_33  and  O_34
REMARK                            x       y       z     vdW  Elec       q    Type
REMARK                         _______ _______ _______ _____ _____    ______ ____
ROOT
ATOM      1  C   UNL     1       5.575   3.014  23.996  0.00  0.00    +0.047 A 
ATOM      2  C   UNL     1       6.501   1.918  23.868  0.00  0.00    +0.047 A 
ATOM      3  C   UNL     1       6.260   0.532  24.191  0.00  0.00    +0.155 A 
ATOM      4  C   UNL     1       7.209  -0.511  24.003  0.00  0.00    +0.155 A 
ATOM      5  C   UNL     1       8.444  -0.118  23.477  0.00  0.00    +0.148 A 
ATOM      6  C   UNL     1       8.726   1.220  23.160  0.00  0.00    +0.040 A 
ATOM      7  C   UNL     1       7.784   2.225  23.354  0.00  0.00    -0.009 A 
ATOM      8  C   UNL     1       8.158   3.532  23.027  0.00  0.00    +0.038 A 
ATOM      9  C   UNL     1       7.266   4.576  23.215  0.00  0.00    +0.119 A 
ATOM     10  C   UNL     1       5.987   4.330  23.700  0.00  0.00    +0.053 A 
ENDROOT
BRANCH   1  22
ATOM     11  N   UNL     1       4.640   4.197  28.881  0.00  0.00    -0.327 N 
ATOM     12  H   UNL     1       4.480   3.831  29.809  0.00  0.00    +0.145 HD
ATOM     13  H   UNL     1       5.600   4.370  28.614  0.00  0.00    +0.145 HD
ATOM     14  C   UNL     1       4.000   3.431  27.927  0.00  0.00    +0.218 A 
ATOM     15  N   UNL     1       2.973   2.696  28.311  0.00  0.00    -0.181 NA
ATOM     16  C   UNL     1       2.408   1.987  27.349  0.00  0.00    +0.218 A 
ATOM     17  N   UNL     1       1.324   1.205  27.702  0.00  0.00    -0.327 N 
ATOM     18  H   UNL     1       0.880   1.571  28.534  0.00  0.00    +0.145 HD
ATOM     19  H   UNL     1       0.733   1.025  26.903  0.00  0.00    +0.145 HD
ATOM     20  N   UNL     1       2.773   1.989  26.076  0.00  0.00    -0.181 NA
ATOM     21  C   UNL     1       3.831   2.740  25.797  0.00  0.00    +0.225 A 
ATOM     22  N   UNL     1       4.250   2.787  24.456  0.00  0.00    -0.283 N 
ATOM     23  H   UNL     1       3.751   2.080  23.924  0.00  0.00    +0.155 HD
ATOM     24  N   UNL     1       4.477   3.472  26.698  0.00  0.00    -0.181 NA
ENDBRANCH   1  22
BRANCH   5  25
ATOM     25  S   UNL     1       9.767  -1.252  23.174  0.00  0.00    +0.112 S 
ATOM     26  O   UNL     1      10.998  -0.583  23.537  0.00  0.00    -0.142 OA
ATOM     27  O   UNL     1       9.557  -1.791  21.849  0.00  0.00    -0.142 OA
BRANCH  25  28
ATOM     28  O   UNL     1       9.574  -2.473  24.202  0.00  0.00    -0.250 OA
ATOM     29  H   UNL     1       9.697  -2.124  25.106  0.00  0.00    +0.245 HD
ENDBRANCH  25  28
ENDBRANCH   5  25
BRANCH   9  30
ATOM     30  S   UNL     1       7.758   6.238  22.856  0.00  0.00    +0.110 S 
ATOM     31  O   UNL     1       7.403   7.059  23.989  0.00  0.00    -0.142 OA
ATOM     32  O   UNL     1       7.330   6.554  21.508  0.00  0.00    -0.142 OA
BRANCH  30  33
ATOM     33  O   UNL     1       9.365   6.143  22.768  0.00  0.00    -0.250 OA
ATOM     34  H   UNL     1       9.621   6.312  21.837  0.00  0.00    +0.245 HD
ENDBRANCH  30  33
ENDBRANCH   9  30
BRANCH   4  35
ATOM     35  N   UNL     1       6.984  -1.871  24.379  0.00  0.00    -0.144 NA
ATOM     36  N   UNL     1       5.899  -2.344  23.973  0.00  0.00    -0.147 NA
BRANCH  36  37
ATOM     37  C   UNL     1       5.608  -3.655  24.447  0.00  0.00    +0.113 A 
ATOM     38  C   UNL     1       5.803  -4.784  23.637  0.00  0.00    +0.144 A 
ATOM     39  C   UNL     1       5.524  -6.089  24.095  0.00  0.00    +0.032 A 
ATOM     40  C   UNL     1       5.047  -6.296  25.384  0.00  0.00    +0.002 A 
ATOM     41  C   UNL     1       4.823  -5.197  26.201  0.00  0.00    +0.002 A 
ATOM     42  C   UNL     1       5.085  -3.897  25.734  0.00  0.00    +0.031 A 
BRANCH  38  43
ATOM     43  S   UNL     1       6.418  -4.686  21.983  0.00  0.00    +0.112 S 
ATOM     44  O   UNL     1       5.455  -3.925  21.216  0.00  0.00    -0.142 OA
ATOM     45  O   UNL     1       6.914  -5.966  21.525  0.00  0.00    -0.142 OA
BRANCH  43  46
ATOM     46  O   UNL     1       7.745  -3.777  22.113  0.00  0.00    -0.250 OA
ATOM     47  H   UNL     1       7.473  -2.924  22.515  0.00  0.00    +0.245 HD
ENDBRANCH  43  46
ENDBRANCH  38  43
ENDBRANCH  36  37
ENDBRANCH   4  35
BRANCH   3  48
ATOM     48  O   UNL     1       5.040   0.200  24.745  0.00  0.00    -0.504 OA
ATOM     49  H   UNL     1       5.225  -0.020  25.679  0.00  0.00    +0.292 HD
ENDBRANCH   3  48
TORSDOF 10
ENDMDL
MODEL 9
REMARK VINA RESULT:      -6.7      3.216      4.269
REMARK  Name = 
REMARK  10 active torsions:
REMARK  status: ('A' for Active; 'I' for Inactive)
REMARK    1  A    between atoms: N_5  and  C_6
REMARK    2  A    between atoms: C_8  and  S_33
REMARK    3  A    between atoms: C_12  and  O_13
REMARK    4  A    between atoms: C_14  and  N_15
REMARK    5  A    between atoms: N_16  and  C_17
REMARK    6  A    between atoms: C_22  and  S_23
REMARK    7  A    between atoms: S_23  and  O_24
REMARK    8  A    between atoms: C_27  and  S_29
REMARK    9  A    between atoms: S_29  and  O_30
REMARK   10  A    between atoms: S_33  and  O_34
REMARK                            x       y       z     vdW  Elec       q    Type
REMARK                         _______ _______ _______ _____ _____    ______ ____
ROOT
ATOM      1  C   UNL     1       7.517   3.195  25.287  0.00  0.00    +0.047 A 
ATOM      2  C   UNL     1       7.901   1.870  24.870  0.00  0.00    +0.047 A 
ATOM      3  C   UNL     1       7.193   0.638  25.123  0.00  0.00    +0.155 A 
ATOM      4  C   UNL     1       7.609  -0.637  24.646  0.00  0.00    +0.155 A 
ATOM      5  C   UNL     1       8.789  -0.646  23.896  0.00  0.00    +0.148 A 
ATOM      6  C   UNL     1       9.515   0.526  23.635  0.00  0.00    +0.040 A 
ATOM      7  C   UNL     1       9.093   1.762  24.113  0.00  0.00    -0.009 A 
ATOM      8  C   UNL     1       9.888   2.874  23.820  0.00  0.00    +0.038 A 
ATOM      9  C   UNL     1       9.525   4.128  24.284  0.00  0.00    +0.119 A 
ATOM     10  C   UNL     1       8.356   4.296  25.017  0.00  0.00    +0.053 A 
ENDROOT
BRANCH   1  22
ATOM     11  N   UNL     1       3.194   3.001  22.564  0.00  0.00    -0.327 N 
ATOM     12  H   UNL     1       2.444   3.541  22.156  0.00  0.00    +0.145 HD
ATOM     13  H   UNL     1       4.020   2.859  21.998  0.00  0.00    +0.145 HD
ATOM     14  C   UNL     1       3.537   3.489  23.809  0.00  0.00    +0.218 A 
ATOM     15  N   UNL     1       2.637   4.197  24.465  0.00  0.00    -0.181 NA
ATOM     16  C   UNL     1       3.030   4.633  25.650  0.00  0.00    +0.218 A 
ATOM     17  N   UNL     1       2.119   5.376  26.378  0.00  0.00    -0.327 N 
ATOM     18  H   UNL     1       1.175   5.158  26.088  0.00  0.00    +0.145 HD
ATOM     19  H   UNL     1       2.323   5.330  27.366  0.00  0.00    +0.145 HD
ATOM     20  N   UNL     1       4.208   4.393  26.206  0.00  0.00    -0.181 NA
ATOM     21  C   UNL     1       5.050   3.694  25.456  0.00  0.00    +0.225 A 
ATOM     22  N   UNL     1       6.309   3.400  26.007  0.00  0.00    -0.283 N 
ATOM     23  H   UNL     1       6.433   3.931  26.864  0.00  0.00    +0.155 HD
ATOM     24  N   UNL     1       4.754   3.229  24.248  0.00  0.00    -0.181 NA
ENDBRANCH   1  22
BRANCH   5  25
ATOM     25  S   UNL     1       9.487  -2.124  23.218  0.00  0.00    +0.112 S 
ATOM     26  O   UNL     1       9.926  -2.940  24.329  0.00  0.00    -0.142 OA
ATOM     27  O   UNL     1      10.396  -1.711  22.172  0.00  0.00    -0.142 OA
BRANCH  25  28
ATOM     28  O   UNL     1       8.287  -2.914  22.497  0.00  0.00    -0.250 OA
ATOM     29  H   UNL     1       7.466  -2.403  22.639  0.00  0.00    +0.245 HD
ENDBRANCH  25  28
ENDBRANCH   5  25
BRANCH   9  30
ATOM     30  S   UNL     1      10.561   5.527  23.964  0.00  0.00    +0.110 S 
ATOM     31  O   UNL     1      11.830   5.038  23.481  0.00  0.00    -0.142 OA
ATOM     32  O   UNL     1      10.459   6.431  25.092  0.00  0.00    -0.142 OA
BRANCH  30  33
ATOM     33  O   UNL     1       9.805   6.284  22.757  0.00  0.00    -0.250 OA
ATOM     34  H   UNL     1       8.926   6.566  23.089  0.00  0.00    +0.245 HD
ENDBRANCH  30  33
ENDBRANCH   9  30
BRANCH   4  35
ATOM     35  N   UNL     1       6.935  -1.859  24.949  0.00  0.00    -0.144 NA
ATOM     36  N   UNL     1       6.867  -2.119  26.171  0.00  0.00    -0.147 NA
BRANCH  36  37
ATOM     37  C   UNL     1       6.311  -3.393  26.478  0.00  0.00    +0.113 A 
ATOM     38  C   UNL     1       5.012  -3.517  26.996  0.00  0.00    +0.144 A 
ATOM     39  C   UNL     1       4.446  -4.773  27.300  0.00  0.00    +0.032 A 
ATOM     40  C   UNL     1       5.168  -5.942  27.084  0.00  0.00    +0.002 A 
ATOM     41  C   UNL     1       6.462  -5.850  26.594  0.00  0.00    +0.002 A 
ATOM     42  C   UNL     1       7.030  -4.595  26.310  0.00  0.00    +0.031 A 
BRANCH  38  43
ATOM     43  S   UNL     1       3.966  -2.128  27.310  0.00  0.00    +0.112 S 
ATOM     44  O   UNL     1       2.937  -2.568  28.226  0.00  0.00    -0.142 OA
ATOM     45  O   UNL     1       3.645  -1.420  26.089  0.00  0.00    -0.142 OA
BRANCH  43  46
ATOM     46  O   UNL     1       4.913  -1.100  28.118  0.00  0.00    -0.250 OA
ATOM     47  H   UNL     1       4.534  -0.203  27.999  0.00  0.00    +0.245 HD
ENDBRANCH  43  46
ENDBRANCH  38  43
ENDBRANCH  36  37
ENDBRANCH   4  35
BRANCH   3  48
ATOM     48  O   UNL     1       6.055   0.694  25.902  0.00  0.00    -0.504 OA
ATOM     49  H   UNL     1       5.526  -0.088  25.652  0.00  0.00    +0.292 HD
ENDBRANCH   3  48
TORSDOF 10
ENDMDL
