MODEL 1
REMARK VINA RESULT:      -6.8      0.000      0.000
REMARK  Name = 
REMARK  8 active torsions:
REMARK  status: ('A' for Active; 'I' for Inactive)
REMARK    1  A    between atoms: C_5  and  O_6
REMARK    2  A    between atoms: O_6  and  C_7
REMARK    3  A    between atoms: CA_8  and  C_26
REMARK    4  A    between atoms: CA_12  and  N_14
REMARK    5  A    between atoms: C_15  and  CA_17
REMARK    6  A    between atoms: CA_17  and  N_19
REMARK    7  A    between atoms: CA_17  and  C_20
REMARK    8  A    between atoms: C_26  and  O_27
REMARK                            x       y       z     vdW  Elec       q    Type
REMARK                         _______ _______ _______ _____ _____    ______ ____
ROOT
ATOM      1  C   UNL     1       7.734  -5.304  25.423  0.00  0.00    +0.169 C 
ATOM      2  CA  UNL     1       8.724  -4.550  24.472  0.00  0.00    +0.191 C 
ATOM      3  C   UNL     1       7.580  -4.757  23.414  0.00  0.00    +0.244 C 
ATOM      4  O   UNL     1       7.372  -4.563  22.239  0.00  0.00    -0.273 OA
ATOM      5  N   UNL     1       6.735  -5.180  24.377  0.00  0.00    -0.246 N 
ATOM      6  CA  UNL     1       5.397  -5.421  24.538  0.00  0.00    +0.161 C 
ATOM      7  C   UNL     1       4.871  -5.497  25.795  0.00  0.00    +0.135 C 
ATOM      8  C   UNL     1       5.668  -5.306  27.072  0.00  0.00    +0.146 C 
ATOM      9  S   UNL     1       7.199  -4.373  26.881  0.00  0.00    -0.128 S 
ENDROOT
BRANCH   2  10
ATOM     10  N   UNL     1       9.008  -3.147  24.838  0.00  0.00    -0.300 N 
ATOM     11  H   UNL     1       8.576  -2.726  25.665  0.00  0.00    +0.150 HD
ATOM     12  C   UNL     1       9.758  -2.264  24.093  0.00  0.00    +0.235 C 
ATOM     13  O   UNL     1      10.334  -2.576  23.057  0.00  0.00    -0.274 OA
BRANCH  12  14
ATOM     14  CA  UNL     1       9.762  -0.827  24.702  0.00  0.00    +0.164 C 
BRANCH  14  15
ATOM     15  C   UNL     1       9.130   0.118  23.704  0.00  0.00    -0.044 C 
ATOM     16  C   UNL     1      10.118   0.926  22.882  0.00  0.00    +0.059 C 
ATOM     17  C   UNL     1       9.489   1.717  21.770  0.00  0.00    -0.026 C 
ATOM     18  C   UNL     1       8.163   1.816  21.594  0.00  0.00    -0.027 C 
ATOM     19  C   UNL     1       7.168   1.148  22.494  0.00  0.00    +0.054 C 
ATOM     20  C   UNL     1       7.798   0.252  23.521  0.00  0.00    -0.021 C 
ENDBRANCH  14  15
BRANCH  14  21
ATOM     21  N   UNL     1       9.029  -0.849  25.995  0.00  0.00    -0.317 NA
ATOM     22  H1  UNL     1       8.032  -0.807  25.790  0.00  0.00    +0.119 HD
ATOM     23  H2  UNL     1       9.185  -1.764  26.414  0.00  0.00    +0.119 HD
ENDBRANCH  14  21
ENDBRANCH  12  14
ENDBRANCH   2  10
BRANCH   6  24
ATOM     24  C   UNL     1       4.463  -5.577  23.348  0.00  0.00    +0.355 C 
ATOM     25  OXT UNL     1       4.102  -4.655  22.629  0.00  0.00    -0.244 OA
BRANCH  24  26
ATOM     26  O   UNL     1       3.935  -6.801  23.145  0.00  0.00    -0.476 OA
ATOM     27  H   UNL     1       3.484  -6.979  22.292  0.00  0.00    +0.295 HD
ENDBRANCH  24  26
ENDBRANCH   6  24
BRANCH   7  28
ATOM     28  O   UNL     1       3.499  -5.610  25.978  0.00  0.00    -0.496 OA
ATOM     29  C   UNL     1       3.020  -6.774  26.642  0.00  0.00    +0.276 C 
ENDBRANCH   7  28
TORSDOF 7
ENDMDL
MODEL 2
REMARK VINA RESULT:      -6.8      2.947      3.974
REMARK  Name = 
REMARK  8 active torsions:
REMARK  status: ('A' for Active; 'I' for Inactive)
REMARK    1  A    between atoms: C_5  and  O_6
REMARK    2  A    between atoms: O_6  and  C_7
REMARK    3  A    between atoms: CA_8  and  C_26
REMARK    4  A    between atoms: CA_12  and  N_14
REMARK    5  A    between atoms: C_15  and  CA_17
REMARK    6  A    between atoms: CA_17  and  N_19
REMARK    7  A    between atoms: CA_17  and  C_20
REMARK    8  A    between atoms: C_26  and  O_27
REMARK                            x       y       z     vdW  Elec       q    Type
REMARK                         _______ _______ _______ _____ _____    ______ ____
ROOT
ATOM      1  C   UNL     1       7.738  -1.555  25.495  0.00  0.00    +0.169 C 
ATOM      2  CA  UNL     1       9.092  -0.859  25.126  0.00  0.00    +0.191 C 
ATOM      3  C   UNL     1       9.348  -2.186  24.322  0.00  0.00    +0.244 C 
ATOM      4  O   UNL     1      10.221  -2.709  23.672  0.00  0.00    -0.273 OA
ATOM      5  N   UNL     1       8.070  -2.575  24.516  0.00  0.00    -0.246 N 
ATOM      6  CA  UNL     1       7.198  -3.515  24.038  0.00  0.00    +0.161 C 
ATOM      7  C   UNL     1       5.857  -3.353  24.230  0.00  0.00    +0.135 C 
ATOM      8  C   UNL     1       5.229  -2.163  24.932  0.00  0.00    +0.146 C 
ATOM      9  S   UNL     1       6.246  -0.675  24.968  0.00  0.00    -0.128 S 
ENDROOT
BRANCH   2  10
ATOM     10  N   UNL     1       8.972   0.368  24.311  0.00  0.00    -0.300 N 
ATOM     11  H   UNL     1       8.082   0.617  23.873  0.00  0.00    +0.150 HD
ATOM     12  C   UNL     1      10.010   1.210  23.980  0.00  0.00    +0.235 C 
ATOM     13  O   UNL     1      11.156   1.061  24.388  0.00  0.00    -0.274 OA
BRANCH  12  14
ATOM     14  CA  UNL     1       9.565   2.346  23.008  0.00  0.00    +0.164 C 
BRANCH  14  15
ATOM     15  C   UNL     1       9.946   3.678  23.618  0.00  0.00    -0.044 C 
ATOM     16  C   UNL     1      11.349   4.151  23.282  0.00  0.00    +0.059 C 
ATOM     17  C   UNL     1      11.648   5.553  23.733  0.00  0.00    -0.026 C 
ATOM     18  C   UNL     1      10.807   6.281  24.483  0.00  0.00    -0.027 C 
ATOM     19  C   UNL     1       9.480   5.769  24.953  0.00  0.00    +0.054 C 
ATOM     20  C   UNL     1       9.126   4.422  24.392  0.00  0.00    -0.021 C 
ENDBRANCH  14  15
BRANCH  14  21
ATOM     21  N   UNL     1      10.212   2.131  21.686  0.00  0.00    -0.317 NA
ATOM     22  H1  UNL     1      10.268   3.033  21.215  0.00  0.00    +0.119 HD
ATOM     23  H2  UNL     1      11.176   1.853  21.864  0.00  0.00    +0.119 HD
ENDBRANCH  14  21
ENDBRANCH  12  14
ENDBRANCH   2  10
BRANCH   6  24
ATOM     24  C   UNL     1       7.679  -4.732  23.263  0.00  0.00    +0.355 C 
ATOM     25  OXT UNL     1       8.484  -5.549  23.691  0.00  0.00    -0.244 OA
BRANCH  24  26
ATOM     26  O   UNL     1       7.252  -4.850  21.989  0.00  0.00    -0.476 OA
ATOM     27  H   UNL     1       6.893  -5.715  21.696  0.00  0.00    +0.295 HD
ENDBRANCH  24  26
ENDBRANCH   6  24
BRANCH   7  28
ATOM     28  O   UNL     1       4.950  -4.225  23.640  0.00  0.00    -0.496 OA
ATOM     29  C   UNL     1       4.097  -4.966  24.506  0.00  0.00    +0.276 C 
ENDBRANCH   7  28
TORSDOF 7
ENDMDL
MODEL 3
REMARK VINA RESULT:      -6.6      1.540      1.683
REMARK  Name = 
REMARK  8 active torsions:
REMARK  status: ('A' for Active; 'I' for Inactive)
REMARK    1  A    between atoms: C_5  and  O_6
REMARK    2  A    between atoms: O_6  and  C_7
REMARK    3  A    between atoms: CA_8  and  C_26
REMARK    4  A    between atoms: CA_12  and  N_14
REMARK    5  A    between atoms: C_15  and  CA_17
REMARK    6  A    between atoms: CA_17  and  N_19
REMARK    7  A    between atoms: CA_17  and  C_20
REMARK    8  A    between atoms: C_26  and  O_27
REMARK                            x       y       z     vdW  Elec       q    Type
REMARK                         _______ _______ _______ _____ _____    ______ ____
ROOT
ATOM      1  C   UNL     1       8.748  -4.217  24.676  0.00  0.00    +0.169 C 
ATOM      2  CA  UNL     1       9.267  -2.997  23.842  0.00  0.00    +0.191 C 
ATOM      3  C   UNL     1       8.039  -3.336  22.920  0.00  0.00    +0.244 C 
ATOM      4  O   UNL     1       7.550  -2.975  21.876  0.00  0.00    -0.273 OA
ATOM      5  N   UNL     1       7.565  -4.207  23.835  0.00  0.00    -0.246 N 
ATOM      6  CA  UNL     1       6.412  -4.900  24.095  0.00  0.00    +0.161 C 
ATOM      7  C   UNL     1       6.197  -5.408  25.342  0.00  0.00    +0.135 C 
ATOM      8  C   UNL     1       7.148  -5.244  26.512  0.00  0.00    +0.146 C 
ATOM      9  S   UNL     1       8.278  -3.845  26.384  0.00  0.00    -0.128 S 
ENDROOT
BRANCH   2  10
ATOM     10  N   UNL     1       9.207  -1.690  24.528  0.00  0.00    -0.300 N 
ATOM     11  H   UNL     1       8.605  -1.558  25.345  0.00  0.00    +0.150 HD
ATOM     12  C   UNL     1       9.837  -0.539  24.109  0.00  0.00    +0.235 C 
ATOM     13  O   UNL     1      10.579  -0.493  23.135  0.00  0.00    -0.274 OA
BRANCH  12  14
ATOM     14  CA  UNL     1       9.470   0.694  24.992  0.00  0.00    +0.164 C 
BRANCH  14  15
ATOM     15  C   UNL     1       8.685   1.674  24.148  0.00  0.00    -0.044 C 
ATOM     16  C   UNL     1       9.094   3.126  24.317  0.00  0.00    +0.059 C 
ATOM     17  C   UNL     1       8.444   4.065  23.341  0.00  0.00    -0.026 C 
ATOM     18  C   UNL     1       7.485   3.687  22.482  0.00  0.00    -0.027 C 
ATOM     19  C   UNL     1       6.960   2.285  22.410  0.00  0.00    +0.054 C 
ATOM     20  C   UNL     1       7.702   1.322  23.290  0.00  0.00    -0.021 C 
ENDBRANCH  14  15
BRANCH  14  21
ATOM     21  N   UNL     1       8.697   0.228  26.174  0.00  0.00    -0.317 NA
ATOM     22  H1  UNL     1       7.717   0.166  25.902  0.00  0.00    +0.119 HD
ATOM     23  H2  UNL     1       8.989  -0.729  26.367  0.00  0.00    +0.119 HD
ENDBRANCH  14  21
ENDBRANCH  12  14
ENDBRANCH   2  10
BRANCH   6  24
ATOM     24  C   UNL     1       5.340  -5.094  23.034  0.00  0.00    +0.355 C 
ATOM     25  OXT UNL     1       4.598  -4.208  22.633  0.00  0.00    -0.244 OA
BRANCH  24  26
ATOM     26  O   UNL     1       5.148  -6.352  22.588  0.00  0.00    -0.476 OA
ATOM     27  H   UNL     1       5.929  -6.866  22.291  0.00  0.00    +0.295 HD
ENDBRANCH  24  26
ENDBRANCH   6  24
BRANCH   7  28
ATOM     28  O   UNL     1       4.981  -5.999  25.661  0.00  0.00    -0.496 OA
ATOM     29  C   UNL     1       4.917  -6.761  26.862  0.00  0.00    +0.276 C 
ENDBRANCH   7  28
TORSDOF 7
ENDMDL
MODEL 4
REMARK VINA RESULT:      -6.4      2.429      3.328
REMARK  Name = 
REMARK  8 active torsions:
REMARK  status: ('A' for Active; 'I' for Inactive)
REMARK    1  A    between atoms: C_5  and  O_6
REMARK    2  A    between atoms: O_6  and  C_7
REMARK    3  A    between atoms: CA_8  and  C_26
REMARK    4  A    between atoms: CA_12  and  N_14
REMARK    5  A    between atoms: C_15  and  CA_17
REMARK    6  A    between atoms: CA_17  and  N_19
REMARK    7  A    between atoms: CA_17  and  C_20
REMARK    8  A    between atoms: C_26  and  O_27
REMARK                            x       y       z     vdW  Elec       q    Type
REMARK                         _______ _______ _______ _____ _____    ______ ____
ROOT
ATOM      1  C   UNL     1       4.582  -3.738  24.553  0.00  0.00    +0.169 C 
ATOM      2  CA  UNL     1       5.683  -2.793  25.142  0.00  0.00    +0.191 C 
ATOM      3  C   UNL     1       5.662  -3.812  26.339  0.00  0.00    +0.244 C 
ATOM      4  O   UNL     1       6.161  -3.954  27.430  0.00  0.00    -0.273 OA
ATOM      5  N   UNL     1       4.888  -4.661  25.631  0.00  0.00    -0.246 N 
ATOM      6  CA  UNL     1       4.462  -5.961  25.695  0.00  0.00    +0.161 C 
ATOM      7  C   UNL     1       3.970  -6.566  24.576  0.00  0.00    +0.135 C 
ATOM      8  C   UNL     1       3.874  -5.904  23.214  0.00  0.00    +0.146 C 
ATOM      9  S   UNL     1       4.988  -4.508  22.966  0.00  0.00    -0.128 S 
ENDROOT
BRANCH   2  10
ATOM     10  N   UNL     1       6.945  -2.737  24.374  0.00  0.00    -0.300 N 
ATOM     11  H   UNL     1       7.677  -3.438  24.522  0.00  0.00    +0.150 HD
ATOM     12  C   UNL     1       7.303  -1.735  23.500  0.00  0.00    +0.235 C 
ATOM     13  O   UNL     1       6.570  -0.796  23.214  0.00  0.00    -0.274 OA
BRANCH  12  14
ATOM     14  CA  UNL     1       8.751  -1.918  22.948  0.00  0.00    +0.164 C 
BRANCH  14  15
ATOM     15  C   UNL     1       9.478  -0.596  23.059  0.00  0.00    -0.044 C 
ATOM     16  C   UNL     1       9.477   0.237  21.789  0.00  0.00    +0.059 C 
ATOM     17  C   UNL     1      10.032   1.622  21.962  0.00  0.00    -0.026 C 
ATOM     18  C   UNL     1      10.605   2.050  23.097  0.00  0.00    -0.027 C 
ATOM     19  C   UNL     1      10.754   1.185  24.313  0.00  0.00    +0.054 C 
ATOM     20  C   UNL     1      10.080  -0.150  24.183  0.00  0.00    -0.021 C 
ENDBRANCH  14  15
BRANCH  14  21
ATOM     21  N   UNL     1       9.428  -2.995  23.718  0.00  0.00    -0.317 NA
ATOM     22  H1  UNL     1       9.112  -3.890  23.348  0.00  0.00    +0.119 HD
ATOM     23  H2  UNL     1      10.422  -2.943  23.499  0.00  0.00    +0.119 HD
ENDBRANCH  14  21
ENDBRANCH  12  14
ENDBRANCH   2  10
BRANCH   6  24
ATOM     24  C   UNL     1       4.552  -6.770  26.980  0.00  0.00    +0.355 C 
ATOM     25  OXT UNL     1       5.601  -7.124  27.501  0.00  0.00    -0.244 OA
BRANCH  24  26
ATOM     26  O   UNL     1       3.388  -7.193  27.514  0.00  0.00    -0.476 OA
ATOM     27  H   UNL     1       3.215  -7.008  28.462  0.00  0.00    +0.295 HD
ENDBRANCH  24  26
ENDBRANCH   6  24
BRANCH   7  28
ATOM     28  O   UNL     1       3.656  -7.919  24.588  0.00  0.00    -0.496 OA
ATOM     29  C   UNL     1       2.301  -8.280  24.343  0.00  0.00    +0.276 C 
ENDBRANCH   7  28
TORSDOF 7
ENDMDL
MODEL 5
REMARK VINA RESULT:      -6.3      1.585      2.191
REMARK  Name = 
REMARK  8 active torsions:
REMARK  status: ('A' for Active; 'I' for Inactive)
REMARK    1  A    between atoms: C_5  and  O_6
REMARK    2  A    between atoms: O_6  and  C_7
REMARK    3  A    between atoms: CA_8  and  C_26
REMARK    4  A    between atoms: CA_12  and  N_14
REMARK    5  A    between atoms: C_15  and  CA_17
REMARK    6  A    between atoms: CA_17  and  N_19
REMARK    7  A    between atoms: CA_17  and  C_20
REMARK    8  A    between atoms: C_26  and  O_27
REMARK                            x       y       z     vdW  Elec       q    Type
REMARK                         _______ _______ _______ _____ _____    ______ ____
ROOT
ATOM      1  C   UNL     1       7.232  -4.767  25.039  0.00  0.00    +0.169 C 
ATOM      2  CA  UNL     1       8.016  -4.650  23.688  0.00  0.00    +0.191 C 
ATOM      3  C   UNL     1       6.913  -5.644  23.170  0.00  0.00    +0.244 C 
ATOM      4  O   UNL     1       6.639  -6.268  22.173  0.00  0.00    -0.273 OA
ATOM      5  N   UNL     1       6.203  -5.481  24.306  0.00  0.00    -0.246 N 
ATOM      6  CA  UNL     1       4.950  -5.759  24.783  0.00  0.00    +0.161 C 
ATOM      7  C   UNL     1       4.485  -5.100  25.883  0.00  0.00    +0.135 C 
ATOM      8  C   UNL     1       5.257  -4.030  26.633  0.00  0.00    +0.146 C 
ATOM      9  S   UNL     1       6.553  -3.216  25.679  0.00  0.00    -0.128 S 
ENDROOT
BRANCH   2  10
ATOM     10  N   UNL     1       8.008  -3.309  23.067  0.00  0.00    -0.300 N 
ATOM     11  H   UNL     1       7.192  -2.982  22.542  0.00  0.00    +0.150 HD
ATOM     12  C   UNL     1       9.075  -2.439  23.034  0.00  0.00    +0.235 C 
ATOM     13  O   UNL     1      10.147  -2.665  23.583  0.00  0.00    -0.274 OA
BRANCH  12  14
ATOM     14  CA  UNL     1       8.771  -1.158  22.195  0.00  0.00    +0.164 C 
BRANCH  14  15
ATOM     15  C   UNL     1       8.649   0.017  23.140  0.00  0.00    -0.044 C 
ATOM     16  C   UNL     1       7.279   0.183  23.772  0.00  0.00    +0.059 C 
ATOM     17  C   UNL     1       7.221   1.232  24.847  0.00  0.00    -0.026 C 
ATOM     18  C   UNL     1       8.246   2.047  25.136  0.00  0.00    -0.027 C 
ATOM     19  C   UNL     1       9.558   1.998  24.413  0.00  0.00    +0.054 C 
ATOM     20  C   UNL     1       9.659   0.865  23.434  0.00  0.00    -0.021 C 
ENDBRANCH  14  15
BRANCH  14  21
ATOM     21  N   UNL     1       9.857  -0.965  21.198  0.00  0.00    -0.317 NA
ATOM     22  H1  UNL     1       9.435  -0.613  20.340  0.00  0.00    +0.119 HD
ATOM     23  H2  UNL     1      10.451  -0.212  21.542  0.00  0.00    +0.119 HD
ENDBRANCH  14  21
ENDBRANCH  12  14
ENDBRANCH   2  10
BRANCH   6  24
ATOM     24  C   UNL     1       4.038  -6.766  24.100  0.00  0.00    +0.355 C 
ATOM     25  OXT UNL     1       3.757  -7.865  24.559  0.00  0.00    -0.244 OA
BRANCH  24  26
ATOM     26  O   UNL     1       3.596  -6.447  22.866  0.00  0.00    -0.476 OA
ATOM     27  H   UNL     1       2.822  -5.849  22.789  0.00  0.00    +0.295 HD
ENDBRANCH  24  26
ENDBRANCH   6  24
BRANCH   7  28
ATOM     28  O   UNL     1       3.172  -5.271  26.304  0.00  0.00    -0.496 OA
ATOM     29  C   UNL     1       2.965  -5.869  27.579  0.00  0.00    +0.276 C 
ENDBRANCH   7  28
TORSDOF 7
ENDMDL
MODEL 6
REMARK VINA RESULT:      -6.2      1.956      2.753
REMARK  Name = 
REMARK  8 active torsions:
REMARK  status: ('A' for Active; 'I' for Inactive)
REMARK    1  A    between atoms: C_5  and  O_6
REMARK    2  A    between atoms: O_6  and  C_7
REMARK    3  A    between atoms: CA_8  and  C_26
REMARK    4  A    between atoms: CA_12  and  N_14
REMARK    5  A    between atoms: C_15  and  CA_17
REMARK    6  A    between atoms: CA_17  and  N_19
REMARK    7  A    between atoms: CA_17  and  C_20
REMARK    8  A    between atoms: C_26  and  O_27
REMARK                            x       y       z     vdW  Elec       q    Type
REMARK                         _______ _______ _______ _____ _____    ______ ____
ROOT
ATOM      1  C   UNL     1       9.173  -3.456  24.498  0.00  0.00    +0.169 C 
ATOM      2  CA  UNL     1       9.791  -2.168  23.855  0.00  0.00    +0.191 C 
ATOM      3  C   UNL     1       8.866  -2.548  22.642  0.00  0.00    +0.244 C 
ATOM      4  O   UNL     1       8.632  -2.175  21.517  0.00  0.00    -0.273 OA
ATOM      5  N   UNL     1       8.244  -3.488  23.383  0.00  0.00    -0.246 N 
ATOM      6  CA  UNL     1       7.120  -4.268  23.322  0.00  0.00    +0.161 C 
ATOM      7  C   UNL     1       6.636  -4.845  24.459  0.00  0.00    +0.135 C 
ATOM      8  C   UNL     1       7.244  -4.668  25.838  0.00  0.00    +0.146 C 
ATOM      9  S   UNL     1       8.259  -3.192  26.038  0.00  0.00    -0.128 S 
ENDROOT
BRANCH   2  10
ATOM     10  N   UNL     1       9.460  -0.899  24.537  0.00  0.00    -0.300 N 
ATOM     11  H   UNL     1       8.838  -0.892  25.350  0.00  0.00    +0.150 HD
ATOM     12  C   UNL     1       9.843   0.355  24.117  0.00  0.00    +0.235 C 
ATOM     13  O   UNL     1      10.566   0.550  23.148  0.00  0.00    -0.274 OA
BRANCH  12  14
ATOM     14  CA  UNL     1       9.225   1.489  24.994  0.00  0.00    +0.164 C 
BRANCH  14  15
ATOM     15  C   UNL     1       8.523   2.472  24.084  0.00  0.00    -0.044 C 
ATOM     16  C   UNL     1       7.452   1.862  23.197  0.00  0.00    +0.059 C 
ATOM     17  C   UNL     1       6.634   2.870  22.439  0.00  0.00    -0.026 C 
ATOM     18  C   UNL     1       6.905   4.183  22.433  0.00  0.00    -0.027 C 
ATOM     19  C   UNL     1       8.057   4.783  23.182  0.00  0.00    +0.054 C 
ATOM     20  C   UNL     1       8.790   3.796  24.043  0.00  0.00    -0.021 C 
ENDBRANCH  14  15
BRANCH  14  21
ATOM     21  N   UNL     1       8.297   0.881  25.984  0.00  0.00    -0.317 NA
ATOM     22  H1  UNL     1       8.575   1.201  26.911  0.00  0.00    +0.119 HD
ATOM     23  H2  UNL     1       7.376   1.283  25.820  0.00  0.00    +0.119 HD
ENDBRANCH  14  21
ENDBRANCH  12  14
ENDBRANCH   2  10
BRANCH   6  24
ATOM     24  C   UNL     1       6.369  -4.488  22.018  0.00  0.00    +0.355 C 
ATOM     25  OXT UNL     1       6.468  -5.492  21.326  0.00  0.00    -0.244 OA
BRANCH  24  26
ATOM     26  O   UNL     1       5.622  -3.460  21.566  0.00  0.00    -0.476 OA
ATOM     27  H   UNL     1       4.870  -3.153  22.116  0.00  0.00    +0.295 HD
ENDBRANCH  24  26
ENDBRANCH   6  24
BRANCH   7  28
ATOM     28  O   UNL     1       5.427  -5.530  24.442  0.00  0.00    -0.496 OA
ATOM     29  C   UNL     1       4.327  -4.935  25.122  0.00  0.00    +0.276 C 
ENDBRANCH   7  28
TORSDOF 7
ENDMDL
MODEL 7
REMARK VINA RESULT:      -6.2      2.643      7.180
REMARK  Name = 
REMARK  8 active torsions:
REMARK  status: ('A' for Active; 'I' for Inactive)
REMARK    1  A    between atoms: C_5  and  O_6
REMARK    2  A    between atoms: O_6  and  C_7
REMARK    3  A    between atoms: CA_8  and  C_26
REMARK    4  A    between atoms: CA_12  and  N_14
REMARK    5  A    between atoms: C_15  and  CA_17
REMARK    6  A    between atoms: CA_17  and  N_19
REMARK    7  A    between atoms: CA_17  and  C_20
REMARK    8  A    between atoms: C_26  and  O_27
REMARK                            x       y       z     vdW  Elec       q    Type
REMARK                         _______ _______ _______ _____ _____    ______ ____
ROOT
ATOM      1  C   UNL     1       6.901  -0.943  23.007  0.00  0.00    +0.169 C 
ATOM      2  CA  UNL     1       7.556  -2.363  23.101  0.00  0.00    +0.191 C 
ATOM      3  C   UNL     1       8.883  -1.572  22.806  0.00  0.00    +0.244 C 
ATOM      4  O   UNL     1      10.054  -1.791  22.603  0.00  0.00    -0.273 OA
ATOM      5  N   UNL     1       8.245  -0.396  22.978  0.00  0.00    -0.246 N 
ATOM      6  CA  UNL     1       8.556   0.928  23.143  0.00  0.00    +0.161 C 
ATOM      7  C   UNL     1       7.625   1.781  23.658  0.00  0.00    +0.135 C 
ATOM      8  C   UNL     1       6.235   1.368  24.103  0.00  0.00    +0.146 C 
ATOM      9  S   UNL     1       6.052  -0.381  24.503  0.00  0.00    -0.128 S 
ENDROOT
BRANCH   2  10
ATOM     10  N   UNL     1       7.480  -3.008  24.428  0.00  0.00    -0.300 N 
ATOM     11  H   UNL     1       7.055  -2.520  25.221  0.00  0.00    +0.150 HD
ATOM     12  C   UNL     1       8.034  -4.226  24.756  0.00  0.00    +0.235 C 
ATOM     13  O   UNL     1       8.607  -4.946  23.947  0.00  0.00    -0.274 OA
BRANCH  12  14
ATOM     14  CA  UNL     1       7.876  -4.561  26.272  0.00  0.00    +0.164 C 
BRANCH  14  15
ATOM     15  C   UNL     1       6.404  -4.730  26.576  0.00  0.00    -0.044 C 
ATOM     16  C   UNL     1       5.743  -5.906  25.878  0.00  0.00    +0.059 C 
ATOM     17  C   UNL     1       4.337  -6.178  26.331  0.00  0.00    -0.026 C 
ATOM     18  C   UNL     1       3.667  -5.379  27.175  0.00  0.00    -0.027 C 
ATOM     19  C   UNL     1       4.254  -4.127  27.753  0.00  0.00    +0.054 C 
ATOM     20  C   UNL     1       5.701  -3.929  27.406  0.00  0.00    -0.021 C 
ENDBRANCH  14  15
BRANCH  14  21
ATOM     21  N   UNL     1       8.656  -5.789  26.578  0.00  0.00    -0.317 NA
ATOM     22  H1  UNL     1       8.294  -6.543  25.995  0.00  0.00    +0.119 HD
ATOM     23  H2  UNL     1       9.609  -5.629  26.258  0.00  0.00    +0.119 HD
ENDBRANCH  14  21
ENDBRANCH  12  14
ENDBRANCH   2  10
BRANCH   6  24
ATOM     24  C   UNL     1       9.932   1.475  22.795  0.00  0.00    +0.355 C 
ATOM     25  OXT UNL     1      10.907   1.409  23.531  0.00  0.00    -0.244 OA
BRANCH  24  26
ATOM     26  O   UNL     1      10.040   2.157  21.637  0.00  0.00    -0.476 OA
ATOM     27  H   UNL     1      10.626   1.797  20.937  0.00  0.00    +0.295 HD
ENDBRANCH  24  26
ENDBRANCH   6  24
BRANCH   7  28
ATOM     28  O   UNL     1       7.963   3.096  23.955  0.00  0.00    -0.496 OA
ATOM     29  C   UNL     1       8.043   3.458  25.329  0.00  0.00    +0.276 C 
ENDBRANCH   7  28
TORSDOF 7
ENDMDL
MODEL 8
REMARK VINA RESULT:      -6.2      1.462      1.762
REMARK  Name = 
REMARK  8 active torsions:
REMARK  status: ('A' for Active; 'I' for Inactive)
REMARK    1  A    between atoms: C_5  and  O_6
REMARK    2  A    between atoms: O_6  and  C_7
REMARK    3  A    between atoms: CA_8  and  C_26
REMARK    4  A    between atoms: CA_12  and  N_14
REMARK    5  A    between atoms: C_15  and  CA_17
REMARK    6  A    between atoms: CA_17  and  N_19
REMARK    7  A    between atoms: CA_17  and  C_20
REMARK    8  A    between atoms: C_26  and  O_27
REMARK                            x       y       z     vdW  Elec       q    Type
REMARK                         _______ _______ _______ _____ _____    ______ ____
ROOT
ATOM      1  C   UNL     1       6.980  -5.322  24.821  0.00  0.00    +0.169 C 
ATOM      2  CA  UNL     1       7.294  -4.276  23.698  0.00  0.00    +0.191 C 
ATOM      3  C   UNL     1       5.988  -4.858  23.042  0.00  0.00    +0.244 C 
ATOM      4  O   UNL     1       5.345  -4.744  22.026  0.00  0.00    -0.273 OA
ATOM      5  N   UNL     1       5.702  -5.543  24.169  0.00  0.00    -0.246 N 
ATOM      6  CA  UNL     1       4.648  -6.223  24.719  0.00  0.00    +0.161 C 
ATOM      7  C   UNL     1       4.633  -6.474  26.060  0.00  0.00    +0.135 C 
ATOM      8  C   UNL     1       5.710  -6.025  27.029  0.00  0.00    +0.146 C 
ATOM      9  S   UNL     1       6.704  -4.629  26.470  0.00  0.00    -0.128 S 
ENDROOT
BRANCH   2  10
ATOM     10  N   UNL     1       7.222  -2.860  24.114  0.00  0.00    -0.300 N 
ATOM     11  H   UNL     1       6.326  -2.365  24.124  0.00  0.00    +0.150 HD
ATOM     12  C   UNL     1       8.303  -2.062  24.415  0.00  0.00    +0.235 C 
ATOM     13  O   UNL     1       9.459  -2.469  24.430  0.00  0.00    -0.274 OA
BRANCH  12  14
ATOM     14  CA  UNL     1       7.889  -0.584  24.699  0.00  0.00    +0.164 C 
BRANCH  14  15
ATOM     15  C   UNL     1       8.805   0.331  23.917  0.00  0.00    -0.044 C 
ATOM     16  C   UNL     1       8.681   0.214  22.408  0.00  0.00    +0.059 C 
ATOM     17  C   UNL     1       9.452   1.255  21.646  0.00  0.00    -0.026 C 
ATOM     18  C   UNL     1      10.286   2.128  22.230  0.00  0.00    -0.027 C 
ATOM     19  C   UNL     1      10.538   2.154  23.707  0.00  0.00    +0.054 C 
ATOM     20  C   UNL     1       9.669   1.205  24.479  0.00  0.00    -0.021 C 
ENDBRANCH  14  15
BRANCH  14  21
ATOM     21  N   UNL     1       6.461  -0.402  24.323  0.00  0.00    -0.317 NA
ATOM     22  H1  UNL     1       5.938  -0.193  25.173  0.00  0.00    +0.119 HD
ATOM     23  H2  UNL     1       6.405   0.439  23.752  0.00  0.00    +0.119 HD
ENDBRANCH  14  21
ENDBRANCH  12  14
ENDBRANCH   2  10
BRANCH   6  24
ATOM     24  C   UNL     1       3.468  -6.685  23.879  0.00  0.00    +0.355 C 
ATOM     25  OXT UNL     1       2.687  -5.931  23.314  0.00  0.00    -0.244 OA
BRANCH  24  26
ATOM     26  O   UNL     1       3.229  -8.011  23.844  0.00  0.00    -0.476 OA
ATOM     27  H   UNL     1       2.380  -8.322  23.460  0.00  0.00    +0.295 HD
ENDBRANCH  24  26
ENDBRANCH   6  24
BRANCH   7  28
ATOM     28  O   UNL     1       3.516  -7.045  26.656  0.00  0.00    -0.496 OA
ATOM     29  C   UNL     1       3.102  -6.518  27.913  0.00  0.00    +0.276 C 
ENDBRANCH   7  28
TORSDOF 7
ENDMDL
MODEL 9
REMARK VINA RESULT:      -6.2      3.064      4.387
REMARK  Name = 
REMARK  8 active torsions:
REMARK  status: ('A' for Active; 'I' for Inactive)
REMARK    1  A    between atoms: C_5  and  O_6
REMARK    2  A    between atoms: O_6  and  C_7
REMARK    3  A    between atoms: CA_8  and  C_26
REMARK    4  A    between atoms: CA_12  and  N_14
REMARK    5  A    between atoms: C_15  and  CA_17
REMARK    6  A    between atoms: CA_17  and  N_19
REMARK    7  A    between atoms: CA_17  and  C_20
REMARK    8  A    between atoms: C_26  and  O_27
REMARK                            x       y       z     vdW  Elec       q    Type
REMARK                         _______ _______ _______ _____ _____    ______ ____
ROOT
ATOM      1  C   UNL     1       6.441  -1.943  24.491  0.00  0.00    +0.169 C 
ATOM      2  CA  UNL     1       7.268  -0.842  25.238  0.00  0.00    +0.191 C 
ATOM      3  C   UNL     1       8.020  -2.078  25.853  0.00  0.00    +0.244 C 
ATOM      4  O   UNL     1       8.878  -2.315  26.670  0.00  0.00    -0.273 OA
ATOM      5  N   UNL     1       7.404  -2.910  24.988  0.00  0.00    -0.246 N 
ATOM      6  CA  UNL     1       7.515  -4.202  24.547  0.00  0.00    +0.161 C 
ATOM      7  C   UNL     1       6.918  -4.571  23.378  0.00  0.00    +0.135 C 
ATOM      8  C   UNL     1       6.134  -3.631  22.481  0.00  0.00    +0.146 C 
ATOM      9  S   UNL     1       6.524  -1.883  22.684  0.00  0.00    -0.128 S 
ENDROOT
BRANCH   2  10
ATOM     10  N   UNL     1       8.083   0.034  24.371  0.00  0.00    -0.300 N 
ATOM     11  H   UNL     1       8.524  -0.335  23.525  0.00  0.00    +0.150 HD
ATOM     12  C   UNL     1       8.411   1.344  24.643  0.00  0.00    +0.235 C 
ATOM     13  O   UNL     1       7.999   1.952  25.623  0.00  0.00    -0.274 OA
BRANCH  12  14
ATOM     14  CA  UNL     1       9.385   1.945  23.582  0.00  0.00    +0.164 C 
BRANCH  14  15
ATOM     15  C   UNL     1       8.996   3.386  23.335  0.00  0.00    -0.044 C 
ATOM     16  C   UNL     1       7.760   3.571  22.474  0.00  0.00    +0.059 C 
ATOM     17  C   UNL     1       7.275   4.991  22.392  0.00  0.00    -0.026 C 
ATOM     18  C   UNL     1       7.943   6.029  22.917  0.00  0.00    -0.027 C 
ATOM     19  C   UNL     1       9.248   5.879  23.638  0.00  0.00    +0.054 C 
ATOM     20  C   UNL     1       9.663   4.450  23.835  0.00  0.00    -0.021 C 
ENDBRANCH  14  15
BRANCH  14  21
ATOM     21  N   UNL     1      10.780   1.818  24.081  0.00  0.00    -0.317 NA
ATOM     22  H1  UNL     1      11.409   2.012  23.303  0.00  0.00    +0.119 HD
ATOM     23  H2  UNL     1      10.930   2.571  24.750  0.00  0.00    +0.119 HD
ENDBRANCH  14  21
ENDBRANCH  12  14
ENDBRANCH   2  10
BRANCH   6  24
ATOM     24  C   UNL     1       8.319  -5.242  25.313  0.00  0.00    +0.355 C 
ATOM     25  OXT UNL     1       8.008  -5.682  26.412  0.00  0.00    -0.244 OA
BRANCH  24  26
ATOM     26  O   UNL     1       9.494  -5.621  24.771  0.00  0.00    -0.476 OA
ATOM     27  H   UNL     1       9.814  -6.533  24.944  0.00  0.00    +0.295 HD
ENDBRANCH  24  26
ENDBRANCH   6  24
BRANCH   7  28
ATOM     28  O   UNL     1       7.127  -5.838  22.849  0.00  0.00    -0.496 OA
ATOM     29  C   UNL     1       6.840  -6.028  21.468  0.00  0.00    +0.276 C 
ENDBRANCH   7  28
TORSDOF 7
ENDMDL
