MODEL 1
REMARK VINA RESULT:      -6.2      0.000      0.000
REMARK  Name = 
REMARK  7 active torsions:
REMARK  status: ('A' for Active; 'I' for Inactive)
REMARK    1  A    between atoms: C_1  and  N_2
REMARK    2  A    between atoms: N_5  and  N_8
REMARK    3  A    between atoms: N_8  and  C_9
REMARK    4  A    between atoms: C_9  and  N_11
REMARK    5  A    between atoms: N_11  and  C_12
REMARK    6  A    between atoms: C_15  and  S_18
REMARK    7  A    between atoms: S_18  and  N_19
REMARK                            x       y       z     vdW  Elec       q    Type
REMARK                         _______ _______ _______ _____ _____    ______ ____
ROOT
ATOM      1  N   UNL     1       7.248  -5.071  23.436  0.00  0.00    -0.296 N 
ATOM      2  H   UNL     1       7.948  -5.682  23.035  0.00  0.00    +0.154 HD
ENDROOT
BRANCH   1   3
ATOM      3  C   UNL     1       6.868  -5.267  24.775  0.00  0.00    +0.033 A 
ATOM      4  C   UNL     1       5.607  -5.781  25.081  0.00  0.00    +0.025 A 
ATOM      5  C   UNL     1       5.306  -6.122  26.405  0.00  0.00    +0.030 A 
ATOM      6  C   UNL     1       6.249  -5.884  27.415  0.00  0.00    +0.105 A 
ATOM      7  C   UNL     1       7.456  -5.252  27.123  0.00  0.00    +0.030 A 
ATOM      8  C   UNL     1       7.757  -4.936  25.803  0.00  0.00    +0.025 A 
BRANCH   6   9
ATOM      9  S   UNL     1       5.998  -6.518  29.047  0.00  0.00    +0.056 S 
ATOM     10  O   UNL     1       5.814  -5.411  29.960  0.00  0.00    -0.153 OA
ATOM     11  O   UNL     1       6.939  -7.580  29.295  0.00  0.00    -0.153 OA
BRANCH   9  12
ATOM     12  N   UNL     1       4.496  -7.251  28.916  0.00  0.00    -0.204 NA
ATOM     13  H   UNL     1       3.814  -6.567  28.585  0.00  0.00    +0.144 HD
ATOM     14  H   UNL     1       4.250  -7.670  29.814  0.00  0.00    +0.144 HD
ENDBRANCH   9  12
ENDBRANCH   6   9
ENDBRANCH   1   3
BRANCH   1  15
ATOM     15  C   UNL     1       7.058  -3.915  22.709  0.00  0.00    +0.149 C 
ATOM     16  S   UNL     1       5.670  -3.422  21.908  0.00  0.00    -0.017 S 
BRANCH  15  17
ATOM     17  N   UNL     1       8.143  -3.066  22.672  0.00  0.00    -0.259 N 
ATOM     18  H   UNL     1       8.990  -3.457  23.083  0.00  0.00    +0.168 HD
BRANCH  17  23
ATOM     19  C   UNL     1      10.236   0.991  24.066  0.00  0.00    +0.105 C 
ATOM     20  N   UNL     1      10.361  -0.466  24.064  0.00  0.00    -0.303 NA
ATOM     21  C   UNL     1      10.407  -1.001  22.690  0.00  0.00    +0.101 C 
ATOM     22  C   UNL     1       9.053  -0.994  21.946  0.00  0.00    +0.121 C 
ATOM     23  N   UNL     1       7.964  -1.663  22.681  0.00  0.00    -0.225 NA
ATOM     24  C   UNL     1       7.901  -1.147  24.073  0.00  0.00    +0.121 C 
ATOM     25  C   UNL     1       9.261  -1.104  24.812  0.00  0.00    +0.101 C 
ENDBRANCH  17  23
ENDBRANCH  15  17
ENDBRANCH   1  15
TORSDOF 6
ENDMDL
MODEL 2
REMARK VINA RESULT:      -6.1      0.972      1.863
REMARK  Name = 
REMARK  7 active torsions:
REMARK  status: ('A' for Active; 'I' for Inactive)
REMARK    1  A    between atoms: C_1  and  N_2
REMARK    2  A    between atoms: N_5  and  N_8
REMARK    3  A    between atoms: N_8  and  C_9
REMARK    4  A    between atoms: C_9  and  N_11
REMARK    5  A    between atoms: N_11  and  C_12
REMARK    6  A    between atoms: C_15  and  S_18
REMARK    7  A    between atoms: S_18  and  N_19
REMARK                            x       y       z     vdW  Elec       q    Type
REMARK                         _______ _______ _______ _____ _____    ______ ____
ROOT
ATOM      1  N   UNL     1       7.687  -4.600  23.157  0.00  0.00    -0.296 N 
ATOM      2  H   UNL     1       8.567  -4.946  22.797  0.00  0.00    +0.154 HD
ENDROOT
BRANCH   1   3
ATOM      3  C   UNL     1       7.242  -5.058  24.408  0.00  0.00    +0.033 A 
ATOM      4  C   UNL     1       8.055  -4.928  25.536  0.00  0.00    +0.025 A 
ATOM      5  C   UNL     1       7.536  -5.238  26.798  0.00  0.00    +0.030 A 
ATOM      6  C   UNL     1       6.228  -5.734  26.909  0.00  0.00    +0.105 A 
ATOM      7  C   UNL     1       5.466  -5.983  25.769  0.00  0.00    +0.030 A 
ATOM      8  C   UNL     1       5.981  -5.653  24.521  0.00  0.00    +0.025 A 
BRANCH   6   9
ATOM      9  S   UNL     1       5.463  -5.907  28.494  0.00  0.00    +0.056 S 
ATOM     10  O   UNL     1       4.127  -5.356  28.435  0.00  0.00    -0.153 OA
ATOM     11  O   UNL     1       6.407  -5.545  29.520  0.00  0.00    -0.153 OA
BRANCH   9  12
ATOM     12  N   UNL     1       5.265  -7.567  28.613  0.00  0.00    -0.204 NA
ATOM     13  H   UNL     1       4.500  -7.770  29.260  0.00  0.00    +0.144 HD
ATOM     14  H   UNL     1       6.153  -7.990  28.887  0.00  0.00    +0.144 HD
ENDBRANCH   9  12
ENDBRANCH   6   9
ENDBRANCH   1   3
BRANCH   1  15
ATOM     15  C   UNL     1       7.255  -3.453  22.522  0.00  0.00    +0.149 C 
ATOM     16  S   UNL     1       5.690  -3.056  22.072  0.00  0.00    -0.017 S 
BRANCH  15  17
ATOM     17  N   UNL     1       8.241  -2.528  22.260  0.00  0.00    -0.259 N 
ATOM     18  H   UNL     1       8.503  -2.466  21.277  0.00  0.00    +0.168 HD
BRANCH  17  23
ATOM     19  C   UNL     1      10.368   1.201  24.348  0.00  0.00    +0.105 C 
ATOM     20  N   UNL     1       9.408   0.811  23.316  0.00  0.00    -0.303 NA
ATOM     21  C   UNL     1       8.271   0.066  23.892  0.00  0.00    +0.101 C 
ATOM     22  C   UNL     1       8.593  -1.385  24.314  0.00  0.00    +0.121 C 
ATOM     23  N   UNL     1       9.202  -2.197  23.245  0.00  0.00    -0.225 NA
ATOM     24  C   UNL     1      10.346  -1.466  22.642  0.00  0.00    +0.121 C 
ATOM     25  C   UNL     1      10.049   0.004  22.259  0.00  0.00    +0.101 C 
ENDBRANCH  17  23
ENDBRANCH  15  17
ENDBRANCH   1  15
TORSDOF 6
ENDMDL
MODEL 3
REMARK VINA RESULT:      -6.1      4.342      7.480
REMARK  Name = 
REMARK  7 active torsions:
REMARK  status: ('A' for Active; 'I' for Inactive)
REMARK    1  A    between atoms: C_1  and  N_2
REMARK    2  A    between atoms: N_5  and  N_8
REMARK    3  A    between atoms: N_8  and  C_9
REMARK    4  A    between atoms: C_9  and  N_11
REMARK    5  A    between atoms: N_11  and  C_12
REMARK    6  A    between atoms: C_15  and  S_18
REMARK    7  A    between atoms: S_18  and  N_19
REMARK                            x       y       z     vdW  Elec       q    Type
REMARK                         _______ _______ _______ _____ _____    ______ ____
ROOT
ATOM      1  N   UNL     1       9.656  -3.621  24.441  0.00  0.00    -0.296 N 
ATOM      2  H   UNL     1      10.325  -4.239  24.001  0.00  0.00    +0.154 HD
ENDROOT
BRANCH   1   3
ATOM      3  C   UNL     1       9.623  -2.272  24.048  0.00  0.00    +0.033 A 
ATOM      4  C   UNL     1      10.159  -1.883  22.819  0.00  0.00    +0.025 A 
ATOM      5  C   UNL     1       9.974  -0.570  22.372  0.00  0.00    +0.030 A 
ATOM      6  C   UNL     1       9.308   0.355  23.189  0.00  0.00    +0.105 A 
ATOM      7  C   UNL     1       8.888  -0.004  24.469  0.00  0.00    +0.030 A 
ATOM      8  C   UNL     1       9.057  -1.315  24.897  0.00  0.00    +0.025 A 
BRANCH   6   9
ATOM      9  S   UNL     1       8.848   1.943  22.562  0.00  0.00    +0.056 S 
ATOM     10  O   UNL     1       8.832   2.894  23.652  0.00  0.00    -0.153 OA
ATOM     11  O   UNL     1       7.746   1.793  21.647  0.00  0.00    -0.153 OA
BRANCH   9  12
ATOM     12  N   UNL     1      10.176   2.352  21.623  0.00  0.00    -0.204 NA
ATOM     13  H   UNL     1      10.936   2.663  22.231  0.00  0.00    +0.144 HD
ATOM     14  H   UNL     1       9.894   3.049  20.933  0.00  0.00    +0.144 HD
ENDBRANCH   9  12
ENDBRANCH   6   9
ENDBRANCH   1   3
BRANCH   1  15
ATOM     15  C   UNL     1       8.638  -4.294  25.085  0.00  0.00    +0.149 C 
ATOM     16  S   UNL     1       8.610  -4.837  26.671  0.00  0.00    -0.017 S 
BRANCH  15  17
ATOM     17  N   UNL     1       7.511  -4.509  24.324  0.00  0.00    -0.259 N 
ATOM     18  H   UNL     1       7.625  -4.278  23.338  0.00  0.00    +0.168 HD
BRANCH  17  23
ATOM     19  C   UNL     1       2.884  -5.116  23.318  0.00  0.00    +0.105 C 
ATOM     20  N   UNL     1       4.234  -5.156  22.755  0.00  0.00    -0.303 NA
ATOM     21  C   UNL     1       5.076  -6.151  23.447  0.00  0.00    +0.101 C 
ATOM     22  C   UNL     1       5.545  -5.733  24.859  0.00  0.00    +0.121 C 
ATOM     23  N   UNL     1       6.222  -4.424  24.901  0.00  0.00    -0.225 NA
ATOM     24  C   UNL     1       5.397  -3.405  24.203  0.00  0.00    +0.121 C 
ATOM     25  C   UNL     1       4.881  -3.831  22.807  0.00  0.00    +0.101 C 
ENDBRANCH  17  23
ENDBRANCH  15  17
ENDBRANCH   1  15
TORSDOF 6
ENDMDL
MODEL 4
REMARK VINA RESULT:      -6.1      5.105      8.387
REMARK  Name = 
REMARK  7 active torsions:
REMARK  status: ('A' for Active; 'I' for Inactive)
REMARK    1  A    between atoms: C_1  and  N_2
REMARK    2  A    between atoms: N_5  and  N_8
REMARK    3  A    between atoms: N_8  and  C_9
REMARK    4  A    between atoms: C_9  and  N_11
REMARK    5  A    between atoms: N_11  and  C_12
REMARK    6  A    between atoms: C_15  and  S_18
REMARK    7  A    between atoms: S_18  and  N_19
REMARK                            x       y       z     vdW  Elec       q    Type
REMARK                         _______ _______ _______ _____ _____    ______ ____
ROOT
ATOM      1  N   UNL     1      10.255  -0.405  24.405  0.00  0.00    -0.296 N 
ATOM      2  H   UNL     1      11.064  -0.683  24.948  0.00  0.00    +0.154 HD
ENDROOT
BRANCH   1   3
ATOM      3  C   UNL     1       9.913   0.956  24.352  0.00  0.00    +0.033 A 
ATOM      4  C   UNL     1      10.775   1.876  23.750  0.00  0.00    +0.025 A 
ATOM      5  C   UNL     1      10.349   3.196  23.560  0.00  0.00    +0.030 A 
ATOM      6  C   UNL     1       9.089   3.594  24.031  0.00  0.00    +0.105 A 
ATOM      7  C   UNL     1       8.286   2.706  24.745  0.00  0.00    +0.030 A 
ATOM      8  C   UNL     1       8.707   1.391  24.911  0.00  0.00    +0.025 A 
BRANCH   6   9
ATOM      9  S   UNL     1       8.426   5.175  23.599  0.00  0.00    +0.056 S 
ATOM     10  O   UNL     1       8.018   5.861  24.806  0.00  0.00    -0.153 OA
ATOM     11  O   UNL     1       7.559   5.032  22.458  0.00  0.00    -0.153 OA
BRANCH   9  12
ATOM     12  N   UNL     1       9.783   5.991  23.050  0.00  0.00    -0.204 NA
ATOM     13  H   UNL     1      10.170   5.499  22.243  0.00  0.00    +0.144 HD
ATOM     14  H   UNL     1      10.445   6.093  23.821  0.00  0.00    +0.144 HD
ENDBRANCH   9  12
ENDBRANCH   6   9
ENDBRANCH   1   3
BRANCH   1  15
ATOM     15  C   UNL     1       9.847  -1.371  23.509  0.00  0.00    +0.149 C 
ATOM     16  S   UNL     1       9.395  -1.161  21.908  0.00  0.00    -0.017 S 
BRANCH  15  17
ATOM     17  N   UNL     1       9.844  -2.657  24.002  0.00  0.00    -0.259 N 
ATOM     18  H   UNL     1      10.725  -3.154  23.873  0.00  0.00    +0.168 HD
BRANCH  17  23
ATOM     19  C   UNL     1       7.027  -4.996  27.065  0.00  0.00    +0.105 C 
ATOM     20  N   UNL     1       8.279  -4.250  26.940  0.00  0.00    -0.303 NA
ATOM     21  C   UNL     1       8.040  -2.872  26.469  0.00  0.00    +0.101 C 
ATOM     22  C   UNL     1       7.676  -2.752  24.972  0.00  0.00    +0.121 C 
ATOM     23  N   UNL     1       8.643  -3.403  24.069  0.00  0.00    -0.225 NA
ATOM     24  C   UNL     1       8.908  -4.791  24.526  0.00  0.00    +0.121 C 
ATOM     25  C   UNL     1       9.226  -4.929  26.035  0.00  0.00    +0.101 C 
ENDBRANCH  17  23
ENDBRANCH  15  17
ENDBRANCH   1  15
TORSDOF 6
ENDMDL
MODEL 5
REMARK VINA RESULT:      -6.1      4.115      7.587
REMARK  Name = 
REMARK  7 active torsions:
REMARK  status: ('A' for Active; 'I' for Inactive)
REMARK    1  A    between atoms: C_1  and  N_2
REMARK    2  A    between atoms: N_5  and  N_8
REMARK    3  A    between atoms: N_8  and  C_9
REMARK    4  A    between atoms: C_9  and  N_11
REMARK    5  A    between atoms: N_11  and  C_12
REMARK    6  A    between atoms: C_15  and  S_18
REMARK    7  A    between atoms: S_18  and  N_19
REMARK                            x       y       z     vdW  Elec       q    Type
REMARK                         _______ _______ _______ _____ _____    ______ ____
ROOT
ATOM      1  N   UNL     1       9.096  -3.605  24.151  0.00  0.00    -0.296 N 
ATOM      2  H   UNL     1       9.837  -4.281  24.283  0.00  0.00    +0.154 HD
ENDROOT
BRANCH   1   3
ATOM      3  C   UNL     1       9.437  -2.252  23.991  0.00  0.00    +0.033 A 
ATOM      4  C   UNL     1      10.089  -1.821  22.834  0.00  0.00    +0.025 A 
ATOM      5  C   UNL     1      10.275  -0.451  22.619  0.00  0.00    +0.030 A 
ATOM      6  C   UNL     1       9.862   0.469  23.595  0.00  0.00    +0.105 A 
ATOM      7  C   UNL     1       9.329   0.026  24.804  0.00  0.00    +0.030 A 
ATOM      8  C   UNL     1       9.128  -1.335  25.001  0.00  0.00    +0.025 A 
BRANCH   6   9
ATOM      9  S   UNL     1       9.862   2.204  23.253  0.00  0.00    +0.056 S 
ATOM     10  O   UNL     1      11.108   2.775  23.716  0.00  0.00    -0.153 OA
ATOM     11  O   UNL     1       8.579   2.757  23.600  0.00  0.00    -0.153 OA
BRANCH   9  12
ATOM     12  N   UNL     1       9.943   2.236  21.579  0.00  0.00    -0.204 NA
ATOM     13  H   UNL     1       9.039   1.957  21.192  0.00  0.00    +0.144 HD
ATOM     14  H   UNL     1      10.718   1.647  21.271  0.00  0.00    +0.144 HD
ENDBRANCH   9  12
ENDBRANCH   6   9
ENDBRANCH   1   3
BRANCH   1  15
ATOM     15  C   UNL     1       7.899  -4.181  23.778  0.00  0.00    +0.149 C 
ATOM     16  S   UNL     1       7.124  -4.069  22.295  0.00  0.00    -0.017 S 
BRANCH  15  17
ATOM     17  N   UNL     1       7.300  -4.956  24.746  0.00  0.00    -0.259 N 
ATOM     18  H   UNL     1       7.250  -5.947  24.512  0.00  0.00    +0.168 HD
BRANCH  17  23
ATOM     19  C   UNL     1       4.687  -5.973  28.609  0.00  0.00    +0.105 C 
ATOM     20  N   UNL     1       5.671  -6.511  27.670  0.00  0.00    -0.303 NA
ATOM     21  C   UNL     1       6.919  -5.723  27.688  0.00  0.00    +0.101 C 
ATOM     22  C   UNL     1       6.827  -4.346  26.994  0.00  0.00    +0.121 C 
ATOM     23  N   UNL     1       6.323  -4.408  25.610  0.00  0.00    -0.225 NA
ATOM     24  C   UNL     1       5.069  -5.203  25.562  0.00  0.00    +0.121 C 
ATOM     25  C   UNL     1       5.135  -6.564  26.296  0.00  0.00    +0.101 C 
ENDBRANCH  17  23
ENDBRANCH  15  17
ENDBRANCH   1  15
TORSDOF 6
ENDMDL
MODEL 6
REMARK VINA RESULT:      -6.0      5.334      7.804
REMARK  Name = 
REMARK  7 active torsions:
REMARK  status: ('A' for Active; 'I' for Inactive)
REMARK    1  A    between atoms: C_1  and  N_2
REMARK    2  A    between atoms: N_5  and  N_8
REMARK    3  A    between atoms: N_8  and  C_9
REMARK    4  A    between atoms: C_9  and  N_11
REMARK    5  A    between atoms: N_11  and  C_12
REMARK    6  A    between atoms: C_15  and  S_18
REMARK    7  A    between atoms: S_18  and  N_19
REMARK                            x       y       z     vdW  Elec       q    Type
REMARK                         _______ _______ _______ _____ _____    ______ ____
ROOT
ATOM      1  N   UNL     1      10.641   3.583  23.015  0.00  0.00    -0.296 N 
ATOM      2  H   UNL     1      11.521   3.947  22.670  0.00  0.00    +0.154 HD
ENDROOT
BRANCH   1   3
ATOM      3  C   UNL     1      10.454   2.191  23.052  0.00  0.00    +0.033 A 
ATOM      4  C   UNL     1      10.786   1.466  24.198  0.00  0.00    +0.025 A 
ATOM      5  C   UNL     1      10.444   0.111  24.279  0.00  0.00    +0.030 A 
ATOM      6  C   UNL     1       9.829  -0.516  23.185  0.00  0.00    +0.105 A 
ATOM      7  C   UNL     1       9.617   0.179  21.997  0.00  0.00    +0.030 A 
ATOM      8  C   UNL     1       9.941   1.530  21.932  0.00  0.00    +0.025 A 
BRANCH   6   9
ATOM      9  S   UNL     1       9.171  -2.150  23.340  0.00  0.00    +0.056 S 
ATOM     10  O   UNL     1      10.197  -3.025  23.864  0.00  0.00    -0.153 OA
ATOM     11  O   UNL     1       8.408  -2.469  22.161  0.00  0.00    -0.153 OA
BRANCH   9  12
ATOM     12  N   UNL     1       8.055  -1.968  24.578  0.00  0.00    -0.204 NA
ATOM     13  H   UNL     1       7.910  -0.973  24.758  0.00  0.00    +0.144 HD
ATOM     14  H   UNL     1       8.377  -2.488  25.396  0.00  0.00    +0.144 HD
ENDBRANCH   9  12
ENDBRANCH   6   9
ENDBRANCH   1   3
BRANCH   1  15
ATOM     15  C   UNL     1       9.918   4.509  23.737  0.00  0.00    +0.149 C 
ATOM     16  S   UNL     1      10.397   6.046  24.207  0.00  0.00    -0.017 S 
BRANCH  15  17
ATOM     17  N   UNL     1       8.644   4.113  24.079  0.00  0.00    -0.259 N 
ATOM     18  H   UNL     1       8.564   3.123  24.308  0.00  0.00    +0.168 HD
BRANCH  17  23
ATOM     19  C   UNL     1       4.146   3.388  22.656  0.00  0.00    +0.105 C 
ATOM     20  N   UNL     1       5.350   2.727  23.158  0.00  0.00    -0.303 NA
ATOM     21  C   UNL     1       5.733   3.244  24.486  0.00  0.00    +0.101 C 
ATOM     22  C   UNL     1       6.364   4.655  24.475  0.00  0.00    +0.121 C 
ATOM     23  N   UNL     1       7.513   4.788  23.561  0.00  0.00    -0.225 NA
ATOM     24  C   UNL     1       7.155   4.266  22.217  0.00  0.00    +0.121 C 
ATOM     25  C   UNL     1       6.479   2.874  22.220  0.00  0.00    +0.101 C 
ENDBRANCH  17  23
ENDBRANCH  15  17
ENDBRANCH   1  15
TORSDOF 6
ENDMDL
MODEL 7
REMARK VINA RESULT:      -6.0      3.536      4.057
REMARK  Name = 
REMARK  7 active torsions:
REMARK  status: ('A' for Active; 'I' for Inactive)
REMARK    1  A    between atoms: C_1  and  N_2
REMARK    2  A    between atoms: N_5  and  N_8
REMARK    3  A    between atoms: N_8  and  C_9
REMARK    4  A    between atoms: C_9  and  N_11
REMARK    5  A    between atoms: N_11  and  C_12
REMARK    6  A    between atoms: C_15  and  S_18
REMARK    7  A    between atoms: S_18  and  N_19
REMARK                            x       y       z     vdW  Elec       q    Type
REMARK                         _______ _______ _______ _____ _____    ______ ____
ROOT
ATOM      1  N   UNL     1       7.908  -2.861  22.163  0.00  0.00    -0.296 N 
ATOM      2  H   UNL     1       8.293  -2.822  21.228  0.00  0.00    +0.154 HD
ENDROOT
BRANCH   1   3
ATOM      3  C   UNL     1       6.744  -3.615  22.383  0.00  0.00    +0.033 A 
ATOM      4  C   UNL     1       6.632  -4.905  21.863  0.00  0.00    +0.025 A 
ATOM      5  C   UNL     1       5.540  -5.702  22.226  0.00  0.00    +0.030 A 
ATOM      6  C   UNL     1       4.541  -5.174  23.058  0.00  0.00    +0.105 A 
ATOM      7  C   UNL     1       4.593  -3.844  23.470  0.00  0.00    +0.030 A 
ATOM      8  C   UNL     1       5.691  -3.066  23.123  0.00  0.00    +0.025 A 
BRANCH   6   9
ATOM      9  S   UNL     1       3.282  -6.220  23.726  0.00  0.00    +0.056 S 
ATOM     10  O   UNL     1       2.353  -6.572  22.674  0.00  0.00    -0.153 OA
ATOM     11  O   UNL     1       2.852  -5.695  24.997  0.00  0.00    -0.153 OA
BRANCH   9  12
ATOM     12  N   UNL     1       4.131  -7.624  24.070  0.00  0.00    -0.204 NA
ATOM     13  H   UNL     1       4.530  -7.556  25.008  0.00  0.00    +0.144 HD
ATOM     14  H   UNL     1       4.829  -7.778  23.340  0.00  0.00    +0.144 HD
ENDBRANCH   9  12
ENDBRANCH   6   9
ENDBRANCH   1   3
BRANCH   1  15
ATOM     15  C   UNL     1       8.805  -2.467  23.135  0.00  0.00    +0.149 C 
ATOM     16  S   UNL     1       9.345  -3.351  24.453  0.00  0.00    -0.017 S 
BRANCH  15  17
ATOM     17  N   UNL     1       9.326  -1.203  22.966  0.00  0.00    -0.259 N 
ATOM     18  H   UNL     1      10.342  -1.180  22.880  0.00  0.00    +0.168 HD
BRANCH  17  23
ATOM     19  C   UNL     1       9.846   3.492  23.654  0.00  0.00    +0.105 C 
ATOM     20  N   UNL     1      10.510   2.288  23.157  0.00  0.00    -0.303 NA
ATOM     21  C   UNL     1       9.763   1.684  22.037  0.00  0.00    +0.101 C 
ATOM     22  C   UNL     1       8.466   0.950  22.443  0.00  0.00    +0.121 C 
ATOM     23  N   UNL     1       8.660  -0.070  23.490  0.00  0.00    -0.225 NA
ATOM     24  C   UNL     1       9.418   0.510  24.628  0.00  0.00    +0.121 C 
ATOM     25  C   UNL     1      10.694   1.290  24.229  0.00  0.00    +0.101 C 
ENDBRANCH  17  23
ENDBRANCH  15  17
ENDBRANCH   1  15
TORSDOF 6
ENDMDL
MODEL 8
REMARK VINA RESULT:      -6.0      4.044      5.726
REMARK  Name = 
REMARK  7 active torsions:
REMARK  status: ('A' for Active; 'I' for Inactive)
REMARK    1  A    between atoms: C_1  and  N_2
REMARK    2  A    between atoms: N_5  and  N_8
REMARK    3  A    between atoms: N_8  and  C_9
REMARK    4  A    between atoms: C_9  and  N_11
REMARK    5  A    between atoms: N_11  and  C_12
REMARK    6  A    between atoms: C_15  and  S_18
REMARK    7  A    between atoms: S_18  and  N_19
REMARK                            x       y       z     vdW  Elec       q    Type
REMARK                         _______ _______ _______ _____ _____    ______ ____
ROOT
ATOM      1  N   UNL     1      10.016   0.846  25.226  0.00  0.00    -0.296 N 
ATOM      2  H   UNL     1      10.340   1.155  26.134  0.00  0.00    +0.154 HD
ENDROOT
BRANCH   1   3
ATOM      3  C   UNL     1       9.598  -0.487  25.076  0.00  0.00    +0.033 A 
ATOM      4  C   UNL     1      10.008  -1.234  23.970  0.00  0.00    +0.025 A 
ATOM      5  C   UNL     1       9.718  -2.602  23.918  0.00  0.00    +0.030 A 
ATOM      6  C   UNL     1       8.967  -3.193  24.946  0.00  0.00    +0.105 A 
ATOM      7  C   UNL     1       8.451  -2.418  25.982  0.00  0.00    +0.030 A 
ATOM      8  C   UNL     1       8.761  -1.064  26.037  0.00  0.00    +0.025 A 
BRANCH   6   9
ATOM      9  S   UNL     1       8.790  -4.950  25.033  0.00  0.00    +0.056 S 
ATOM     10  O   UNL     1       8.476  -5.459  23.716  0.00  0.00    -0.153 OA
ATOM     11  O   UNL     1       8.021  -5.294  26.201  0.00  0.00    -0.153 OA
BRANCH   9  12
ATOM     12  N   UNL     1      10.359  -5.450  25.350  0.00  0.00    -0.204 NA
ATOM     13  H   UNL     1      10.335  -6.300  25.917  0.00  0.00    +0.144 HD
ATOM     14  H   UNL     1      10.871  -4.683  25.788  0.00  0.00    +0.144 HD
ENDBRANCH   9  12
ENDBRANCH   6   9
ENDBRANCH   1   3
BRANCH   1  15
ATOM     15  C   UNL     1       9.690   1.889  24.384  0.00  0.00    +0.149 C 
ATOM     16  S   UNL     1      10.701   2.708  23.326  0.00  0.00    -0.017 S 
BRANCH  15  17
ATOM     17  N   UNL     1       8.366   2.267  24.412  0.00  0.00    -0.259 N 
ATOM     18  H   UNL     1       7.967   2.312  25.349  0.00  0.00    +0.168 HD
BRANCH  17  23
ATOM     19  C   UNL     1       4.037   3.267  22.668  0.00  0.00    +0.105 C 
ATOM     20  N   UNL     1       4.940   3.493  23.796  0.00  0.00    -0.303 NA
ATOM     21  C   UNL     1       6.188   4.150  23.362  0.00  0.00    +0.101 C 
ATOM     22  C   UNL     1       7.172   3.234  22.599  0.00  0.00    +0.121 C 
ATOM     23  N   UNL     1       7.512   1.993  23.318  0.00  0.00    -0.225 NA
ATOM     24  C   UNL     1       6.271   1.315  23.774  0.00  0.00    +0.121 C 
ATOM     25  C   UNL     1       5.256   2.234  24.497  0.00  0.00    +0.101 C 
ENDBRANCH  17  23
ENDBRANCH  15  17
ENDBRANCH   1  15
TORSDOF 6
ENDMDL
MODEL 9
REMARK VINA RESULT:      -6.0      4.832      8.180
REMARK  Name = 
REMARK  7 active torsions:
REMARK  status: ('A' for Active; 'I' for Inactive)
REMARK    1  A    between atoms: C_1  and  N_2
REMARK    2  A    between atoms: N_5  and  N_8
REMARK    3  A    between atoms: N_8  and  C_9
REMARK    4  A    between atoms: C_9  and  N_11
REMARK    5  A    between atoms: N_11  and  C_12
REMARK    6  A    between atoms: C_15  and  S_18
REMARK    7  A    between atoms: S_18  and  N_19
REMARK                            x       y       z     vdW  Elec       q    Type
REMARK                         _______ _______ _______ _____ _____    ______ ____
ROOT
ATOM      1  N   UNL     1       8.863  -1.323  21.744  0.00  0.00    -0.296 N 
ATOM      2  H   UNL     1       8.707  -1.608  20.786  0.00  0.00    +0.154 HD
ENDROOT
BRANCH   1   3
ATOM      3  C   UNL     1       8.791   0.044  22.062  0.00  0.00    +0.033 A 
ATOM      4  C   UNL     1       7.605   0.590  22.555  0.00  0.00    +0.025 A 
ATOM      5  C   UNL     1       7.596   1.911  23.018  0.00  0.00    +0.030 A 
ATOM      6  C   UNL     1       8.760   2.688  22.925  0.00  0.00    +0.105 A 
ATOM      7  C   UNL     1       9.905   2.179  22.314  0.00  0.00    +0.030 A 
ATOM      8  C   UNL     1       9.912   0.860  21.875  0.00  0.00    +0.025 A 
BRANCH   6   9
ATOM      9  S   UNL     1       8.853   4.268  23.714  0.00  0.00    +0.056 S 
ATOM     10  O   UNL     1       8.707   4.091  25.142  0.00  0.00    -0.153 OA
ATOM     11  O   UNL     1       8.073   5.220  22.966  0.00  0.00    -0.153 OA
BRANCH   9  12
ATOM     12  N   UNL     1      10.457   4.692  23.471  0.00  0.00    -0.204 NA
ATOM     13  H   UNL     1      11.034   4.260  24.195  0.00  0.00    +0.144 HD
ATOM     14  H   UNL     1      10.532   5.710  23.445  0.00  0.00    +0.144 HD
ENDBRANCH   9  12
ENDBRANCH   6   9
ENDBRANCH   1   3
BRANCH   1  15
ATOM     15  C   UNL     1       8.754  -2.363  22.644  0.00  0.00    +0.149 C 
ATOM     16  S   UNL     1       9.662  -2.623  24.029  0.00  0.00    -0.017 S 
BRANCH  15  17
ATOM     17  N   UNL     1       7.754  -3.269  22.365  0.00  0.00    -0.259 N 
ATOM     18  H   UNL     1       7.095  -2.955  21.654  0.00  0.00    +0.168 HD
BRANCH  17  23
ATOM     19  C   UNL     1       4.111  -6.148  23.471  0.00  0.00    +0.105 C 
ATOM     20  N   UNL     1       4.593  -5.170  22.497  0.00  0.00    -0.303 NA
ATOM     21  C   UNL     1       5.849  -5.616  21.863  0.00  0.00    +0.101 C 
ATOM     22  C   UNL     1       7.101  -5.519  22.764  0.00  0.00    +0.121 C 
ATOM     23  N   UNL     1       7.312  -4.183  23.351  0.00  0.00    -0.225 NA
ATOM     24  C   UNL     1       6.058  -3.706  23.990  0.00  0.00    +0.121 C 
ATOM     25  C   UNL     1       4.789  -3.844  23.114  0.00  0.00    +0.101 C 
ENDBRANCH  17  23
ENDBRANCH  15  17
ENDBRANCH   1  15
TORSDOF 6
ENDMDL
