MODEL 1
REMARK VINA RESULT:      -3.3      0.000      0.000
REMARK  Name = 
REMARK  4 active torsions:
REMARK  status: ('A' for Active; 'I' for Inactive)
REMARK    1  A    between atoms: O_1  and  C_2
REMARK    2  A    between atoms: C_2  and  C_3
REMARK    3  A    between atoms: C_3  and  O_5
REMARK    4  A    between atoms: C_3  and  C_6
REMARK                            x       y       z     vdW  Elec       q    Type
REMARK                         _______ _______ _______ _____ _____    ______ ____
ROOT
ATOM      1  C   UNL     1       9.275  -4.756  25.666  0.00  0.00    +0.202 C 
ENDROOT
BRANCH   1   2
ATOM      2  C   UNL     1       9.171  -3.757  24.532  0.00  0.00    +0.256 C 
ATOM      3  O   UNL     1      10.131  -3.194  24.012  0.00  0.00    -0.298 OA
ENDBRANCH   1   2
BRANCH   1   4
ATOM      4  O   UNL     1      10.005  -5.902  25.224  0.00  0.00    -0.382 OA
ATOM      5  H   UNL     1       9.701  -6.631  25.802  0.00  0.00    +0.210 HD
ENDBRANCH   1   4
BRANCH   1   6
ATOM      6  C   UNL     1       7.892  -5.189  26.147  0.00  0.00    +0.194 C 
BRANCH   6   7
ATOM      7  O   UNL     1       8.037  -5.837  27.415  0.00  0.00    -0.392 OA
ATOM      8  H   UNL     1       8.985  -6.045  27.513  0.00  0.00    +0.210 HD
ENDBRANCH   6   7
ENDBRANCH   1   6
TORSDOF 4
ENDMDL
MODEL 2
REMARK VINA RESULT:      -3.1      5.804      6.673
REMARK  Name = 
REMARK  4 active torsions:
REMARK  status: ('A' for Active; 'I' for Inactive)
REMARK    1  A    between atoms: O_1  and  C_2
REMARK    2  A    between atoms: C_2  and  C_3
REMARK    3  A    between atoms: C_3  and  O_5
REMARK    4  A    between atoms: C_3  and  C_6
REMARK                            x       y       z     vdW  Elec       q    Type
REMARK                         _______ _______ _______ _____ _____    ______ ____
ROOT
ATOM      1  C   UNL     1      10.034   0.914  21.879  0.00  0.00    +0.202 C 
ENDROOT
BRANCH   1   2
ATOM      2  C   UNL     1      10.147   0.959  23.389  0.00  0.00    +0.256 C 
ATOM      3  O   UNL     1      10.646   0.070  24.075  0.00  0.00    -0.298 OA
ENDBRANCH   1   2
BRANCH   1   4
ATOM      4  O   UNL     1       9.325   2.066  21.421  0.00  0.00    -0.382 OA
ATOM      5  H   UNL     1       9.376   2.703  22.164  0.00  0.00    +0.210 HD
ENDBRANCH   1   4
BRANCH   1   6
ATOM      6  C   UNL     1       9.307  -0.347  21.418  0.00  0.00    +0.194 C 
BRANCH   6   7
ATOM      7  O   UNL     1      10.205  -1.456  21.533  0.00  0.00    -0.392 OA
ATOM      8  H   UNL     1       9.767  -2.212  21.101  0.00  0.00    +0.210 HD
ENDBRANCH   6   7
ENDBRANCH   1   6
TORSDOF 4
ENDMDL
MODEL 3
REMARK VINA RESULT:      -3.1      0.564      3.051
REMARK  Name = 
REMARK  4 active torsions:
REMARK  status: ('A' for Active; 'I' for Inactive)
REMARK    1  A    between atoms: O_1  and  C_2
REMARK    2  A    between atoms: C_2  and  C_3
REMARK    3  A    between atoms: C_3  and  O_5
REMARK    4  A    between atoms: C_3  and  C_6
REMARK                            x       y       z     vdW  Elec       q    Type
REMARK                         _______ _______ _______ _____ _____    ______ ____
ROOT
ATOM      1  C   UNL     1       8.928  -5.262  25.312  0.00  0.00    +0.202 C 
ENDROOT
BRANCH   1   2
ATOM      2  C   UNL     1       8.429  -4.911  26.699  0.00  0.00    +0.256 C 
ATOM      3  O   UNL     1       7.741  -5.650  27.398  0.00  0.00    -0.298 OA
ENDBRANCH   1   2
BRANCH   1   4
ATOM      4  O   UNL     1      10.308  -5.623  25.381  0.00  0.00    -0.382 OA
ATOM      5  H   UNL     1      10.356  -6.511  24.970  0.00  0.00    +0.210 HD
ENDBRANCH   1   4
BRANCH   1   6
ATOM      6  C   UNL     1       8.757  -4.088  24.351  0.00  0.00    +0.194 C 
BRANCH   6   7
ATOM      7  O   UNL     1      10.033  -3.468  24.163  0.00  0.00    -0.392 OA
ATOM      8  H   UNL     1      10.702  -4.121  24.441  0.00  0.00    +0.210 HD
ENDBRANCH   6   7
ENDBRANCH   1   6
TORSDOF 4
ENDMDL
MODEL 4
REMARK VINA RESULT:      -3.0      5.918      6.803
REMARK  Name = 
REMARK  4 active torsions:
REMARK  status: ('A' for Active; 'I' for Inactive)
REMARK    1  A    between atoms: O_1  and  C_2
REMARK    2  A    between atoms: C_2  and  C_3
REMARK    3  A    between atoms: C_3  and  O_5
REMARK    4  A    between atoms: C_3  and  C_6
REMARK                            x       y       z     vdW  Elec       q    Type
REMARK                         _______ _______ _______ _____ _____    ______ ____
ROOT
ATOM      1  C   UNL     1       9.377  -0.004  22.302  0.00  0.00    +0.202 C 
ENDROOT
BRANCH   1   2
ATOM      2  C   UNL     1      10.460   0.084  23.357  0.00  0.00    +0.256 C 
ATOM      3  O   UNL     1      10.576   1.008  24.158  0.00  0.00    -0.298 OA
ENDBRANCH   1   2
BRANCH   1   4
ATOM      4  O   UNL     1       9.846  -0.788  21.204  0.00  0.00    -0.382 OA
ATOM      5  H   UNL     1      10.110  -0.134  20.524  0.00  0.00    +0.210 HD
ENDBRANCH   1   4
BRANCH   1   6
ATOM      6  C   UNL     1       8.979   1.383  21.803  0.00  0.00    +0.194 C 
BRANCH   6   7
ATOM      7  O   UNL     1      10.172   2.129  21.542  0.00  0.00    -0.392 OA
ATOM      8  H   UNL     1      10.567   2.332  22.410  0.00  0.00    +0.210 HD
ENDBRANCH   6   7
ENDBRANCH   1   6
TORSDOF 4
ENDMDL
MODEL 5
REMARK VINA RESULT:      -3.0      1.456      2.384
REMARK  Name = 
REMARK  4 active torsions:
REMARK  status: ('A' for Active; 'I' for Inactive)
REMARK    1  A    between atoms: O_1  and  C_2
REMARK    2  A    between atoms: C_2  and  C_3
REMARK    3  A    between atoms: C_3  and  O_5
REMARK    4  A    between atoms: C_3  and  C_6
REMARK                            x       y       z     vdW  Elec       q    Type
REMARK                         _______ _______ _______ _____ _____    ______ ____
ROOT
ATOM      1  C   UNL     1       7.873  -5.186  26.050  0.00  0.00    +0.202 C 
ENDROOT
BRANCH   1   2
ATOM      2  C   UNL     1       7.725  -3.741  26.479  0.00  0.00    +0.256 C 
ATOM      3  O   UNL     1       8.634  -2.914  26.460  0.00  0.00    -0.298 OA
ENDBRANCH   1   2
BRANCH   1   4
ATOM      4  O   UNL     1       8.075  -6.005  27.203  0.00  0.00    -0.382 OA
ATOM      5  H   UNL     1       7.551  -6.815  27.030  0.00  0.00    +0.210 HD
ENDBRANCH   1   4
BRANCH   1   6
ATOM      6  C   UNL     1       9.048  -5.359  25.091  0.00  0.00    +0.194 C 
BRANCH   6   7
ATOM      7  O   UNL     1      10.251  -5.449  25.861  0.00  0.00    -0.392 OA
ATOM      8  H   UNL     1      10.925  -4.930  25.384  0.00  0.00    +0.210 HD
ENDBRANCH   6   7
ENDBRANCH   1   6
TORSDOF 4
ENDMDL
MODEL 6
REMARK VINA RESULT:      -2.9      4.757      6.621
REMARK  Name = 
REMARK  4 active torsions:
REMARK  status: ('A' for Active; 'I' for Inactive)
REMARK    1  A    between atoms: O_1  and  C_2
REMARK    2  A    between atoms: C_2  and  C_3
REMARK    3  A    between atoms: C_3  and  O_5
REMARK    4  A    between atoms: C_3  and  C_6
REMARK                            x       y       z     vdW  Elec       q    Type
REMARK                         _______ _______ _______ _____ _____    ______ ____
ROOT
ATOM      1  C   UNL     1       9.400  -0.070  22.140  0.00  0.00    +0.202 C 
ENDROOT
BRANCH   1   2
ATOM      2  C   UNL     1      10.133  -1.062  23.020  0.00  0.00    +0.256 C 
ATOM      3  O   UNL     1      10.799  -2.005  22.599  0.00  0.00    -0.298 OA
ENDBRANCH   1   2
BRANCH   1   4
ATOM      4  O   UNL     1       9.384  -0.550  20.795  0.00  0.00    -0.382 OA
ATOM      5  H   UNL     1       9.371   0.259  20.241  0.00  0.00    +0.210 HD
ENDBRANCH   1   4
BRANCH   1   6
ATOM      6  C   UNL     1      10.069   1.303  22.183  0.00  0.00    +0.194 C 
BRANCH   6   7
ATOM      7  O   UNL     1       9.329   2.193  21.341  0.00  0.00    -0.392 OA
ATOM      8  H   UNL     1       8.739   1.635  20.800  0.00  0.00    +0.210 HD
ENDBRANCH   6   7
ENDBRANCH   1   6
TORSDOF 4
ENDMDL
MODEL 7
REMARK VINA RESULT:      -2.9      5.627      6.774
REMARK  Name = 
REMARK  4 active torsions:
REMARK  status: ('A' for Active; 'I' for Inactive)
REMARK    1  A    between atoms: O_1  and  C_2
REMARK    2  A    between atoms: C_2  and  C_3
REMARK    3  A    between atoms: C_3  and  O_5
REMARK    4  A    between atoms: C_3  and  C_6
REMARK                            x       y       z     vdW  Elec       q    Type
REMARK                         _______ _______ _______ _____ _____    ______ ____
ROOT
ATOM      1  C   UNL     1       9.796   1.480  22.665  0.00  0.00    +0.202 C 
ENDROOT
BRANCH   1   2
ATOM      2  C   UNL     1       9.926   0.024  22.267  0.00  0.00    +0.256 C 
ATOM      3  O   UNL     1      10.480  -0.836  22.948  0.00  0.00    -0.298 OA
ENDBRANCH   1   2
BRANCH   1   4
ATOM      4  O   UNL     1      10.249   2.308  21.592  0.00  0.00    -0.382 OA
ATOM      5  H   UNL     1       9.654   3.087  21.610  0.00  0.00    +0.210 HD
ENDBRANCH   1   4
BRANCH   1   6
ATOM      6  C   UNL     1      10.612   1.783  23.920  0.00  0.00    +0.194 C 
BRANCH   6   7
ATOM      7  O   UNL     1       9.949   1.196  25.044  0.00  0.00    -0.392 OA
ATOM      8  H   UNL     1       9.629   0.323  24.752  0.00  0.00    +0.210 HD
ENDBRANCH   6   7
ENDBRANCH   1   6
TORSDOF 4
ENDMDL
MODEL 8
REMARK VINA RESULT:      -2.9      6.596      7.612
REMARK  Name = 
REMARK  4 active torsions:
REMARK  status: ('A' for Active; 'I' for Inactive)
REMARK    1  A    between atoms: O_1  and  C_2
REMARK    2  A    between atoms: C_2  and  C_3
REMARK    3  A    between atoms: C_3  and  O_5
REMARK    4  A    between atoms: C_3  and  C_6
REMARK                            x       y       z     vdW  Elec       q    Type
REMARK                         _______ _______ _______ _____ _____    ______ ____
ROOT
ATOM      1  C   UNL     1      10.125   1.536  23.722  0.00  0.00    +0.202 C 
ENDROOT
BRANCH   1   2
ATOM      2  C   UNL     1      10.298   3.040  23.686  0.00  0.00    +0.256 C 
ATOM      3  O   UNL     1      11.334   3.613  23.356  0.00  0.00    -0.298 OA
ENDBRANCH   1   2
BRANCH   1   4
ATOM      4  O   UNL     1      11.237   0.946  24.398  0.00  0.00    -0.382 OA
ATOM      5  H   UNL     1      11.435   1.560  25.136  0.00  0.00    +0.210 HD
ENDBRANCH   1   4
BRANCH   1   6
ATOM      6  C   UNL     1      10.023   0.958  22.313  0.00  0.00    +0.194 C 
BRANCH   6   7
ATOM      7  O   UNL     1       9.769   2.032  21.401  0.00  0.00    -0.392 OA
ATOM      8  H   UNL     1      10.574   2.582  21.390  0.00  0.00    +0.210 HD
ENDBRANCH   6   7
ENDBRANCH   1   6
TORSDOF 4
ENDMDL
MODEL 9
REMARK VINA RESULT:      -2.9      3.251      4.866
REMARK  Name = 
REMARK  4 active torsions:
REMARK  status: ('A' for Active; 'I' for Inactive)
REMARK    1  A    between atoms: O_1  and  C_2
REMARK    2  A    between atoms: C_2  and  C_3
REMARK    3  A    between atoms: C_3  and  O_5
REMARK    4  A    between atoms: C_3  and  C_6
REMARK                            x       y       z     vdW  Elec       q    Type
REMARK                         _______ _______ _______ _____ _____    ______ ____
ROOT
ATOM      1  C   UNL     1       9.620  -1.119  22.724  0.00  0.00    +0.202 C 
ENDROOT
BRANCH   1   2
ATOM      2  C   UNL     1       9.384  -2.274  23.676  0.00  0.00    +0.256 C 
ATOM      3  O   UNL     1      10.216  -3.139  23.938  0.00  0.00    -0.298 OA
ENDBRANCH   1   2
BRANCH   1   4
ATOM      4  O   UNL     1      10.289  -1.597  21.555  0.00  0.00    -0.382 OA
ATOM      5  H   UNL     1       9.954  -1.032  20.828  0.00  0.00    +0.210 HD
ENDBRANCH   1   4
BRANCH   1   6
ATOM      6  C   UNL     1      10.462  -0.027  23.381  0.00  0.00    +0.194 C 
BRANCH   6   7
ATOM      7  O   UNL     1      10.430  -0.222  24.798  0.00  0.00    -0.392 OA
ATOM      8  H   UNL     1      10.939  -1.034  24.978  0.00  0.00    +0.210 HD
ENDBRANCH   6   7
ENDBRANCH   1   6
TORSDOF 4
ENDMDL
