MODEL 1
REMARK VINA RESULT:      -8.0      0.000      0.000
REMARK  Name = 
REMARK  13 active torsions:
REMARK  status: ('A' for Active; 'I' for Inactive)
REMARK    1  A    between atoms: C_1  and  O_2
REMARK    2  A    between atoms: O_2  and  C_3
REMARK    3  A    between atoms: C_12  and  O_13
REMARK    4  A    between atoms: C_17  and  O_18
REMARK    5  A    between atoms: C_17  and  C_36
REMARK    6  A    between atoms: C_20  and  O_22
REMARK    7  A    between atoms: O_22  and  C_23
REMARK    8  A    between atoms: C_26  and  N_28
REMARK    9  A    between atoms: C_29  and  O_31
REMARK   10  A    between atoms: C_32  and  C_34
REMARK   11  A    between atoms: C_36  and  C_38
REMARK   12  A    between atoms: C_38  and  O_39
REMARK   13  A    between atoms: C_40  and  O_41
REMARK                            x       y       z     vdW  Elec       q    Type
REMARK                         _______ _______ _______ _____ _____    ______ ____
ROOT
ATOM      1  C   UNL     1       7.316   5.437  23.654  0.00  0.00    +0.132 A 
ATOM      2  C   UNL     1       7.841   4.131  23.794  0.00  0.00    +0.075 A 
ATOM      3  C   UNL     1       6.976   2.924  23.931  0.00  0.00    +0.202 C 
ATOM      4  C   UNL     1       7.574   1.566  24.032  0.00  0.00    +0.078 A 
ATOM      5  C   UNL     1       8.960   1.424  24.052  0.00  0.00    +0.078 A 
ATOM      6  C   UNL     1       9.832   2.625  23.948  0.00  0.00    +0.198 C 
ATOM      7  O   UNL     1      11.056   2.566  23.971  0.00  0.00    -0.286 OA
ATOM      8  C   UNL     1       9.513   0.140  24.192  0.00  0.00    +0.132 A 
ATOM      9  C   UNL     1       8.701  -1.011  24.304  0.00  0.00    +0.007 A 
ATOM     10  C   UNL     1       9.379  -2.367  24.498  0.00  0.00    +0.082 C 
ATOM     11  C   UNL     1       8.384  -3.516  24.448  0.00  0.00    +0.133 C 
ATOM     12  C   UNL     1       7.231  -3.106  25.378  0.00  0.00    +0.079 C 
ATOM     13  C   UNL     1       6.349  -2.077  24.677  0.00  0.00    +0.158 C 
ATOM     14  C   UNL     1       7.277  -0.876  24.325  0.00  0.00    +0.030 A 
ATOM     15  C   UNL     1       6.746   0.418  24.165  0.00  0.00    +0.134 A 
ATOM     16  O   UNL     1       5.751   2.998  23.978  0.00  0.00    -0.286 OA
ATOM     17  C   UNL     1       9.226   3.960  23.807  0.00  0.00    +0.037 A 
ATOM     18  C   UNL     1      10.091   5.058  23.677  0.00  0.00    +0.012 A 
ATOM     19  C   UNL     1       9.575   6.338  23.532  0.00  0.00    +0.004 A 
ATOM     20  C   UNL     1       8.196   6.525  23.520  0.00  0.00    +0.046 A 
ENDROOT
BRANCH   1  22
ATOM     21  C   UNL     1       5.358   6.353  22.619  0.00  0.00    +0.277 C 
ATOM     22  O   UNL     1       5.955   5.581  23.653  0.00  0.00    -0.494 OA
ENDBRANCH   1  22
BRANCH   8  23
ATOM     23  O   UNL     1      10.876   0.030  24.270  0.00  0.00    -0.506 OA
ATOM     24  H   UNL     1      11.187  -0.874  24.402  0.00  0.00    +0.292 HD
ENDBRANCH   8  23
BRANCH  11  25
ATOM     25  O   UNL     1       8.054  -3.713  23.065  0.00  0.00    -0.381 OA
ATOM     26  H   UNL     1       8.523  -3.041  22.528  0.00  0.00    +0.211 HD
ENDBRANCH  11  25
BRANCH  11  27
ATOM     27  C   UNL     1       8.982  -4.830  24.956  0.00  0.00    +0.190 C 
ATOM     28  O   UNL     1       9.200  -5.790  24.210  0.00  0.00    -0.292 OA
BRANCH  27  29
ATOM     29  C   UNL     1       9.309  -4.915  26.448  0.00  0.00    +0.233 C 
BRANCH  29  30
ATOM     30  O   UNL     1       8.380  -5.719  27.159  0.00  0.00    -0.387 OA
ATOM     31  H   UNL     1       7.995  -6.336  26.504  0.00  0.00    +0.210 HD
ENDBRANCH  29  30
ENDBRANCH  27  29
ENDBRANCH  11  27
BRANCH  15  32
ATOM     32  O   UNL     1       5.372   0.523  24.190  0.00  0.00    -0.506 OA
ATOM     33  H   UNL     1       5.139   1.475  24.306  0.00  0.00    +0.292 HD
ENDBRANCH  15  32
BRANCH  13  34
ATOM     34  O   UNL     1       5.729  -2.680  23.512  0.00  0.00    -0.343 OA
BRANCH  34  35
ATOM     35  C   UNL     1       4.459  -3.371  23.771  0.00  0.00    +0.253 C 
ATOM     36  O   UNL     1       4.120  -3.265  25.146  0.00  0.00    -0.346 OA
ATOM     37  C   UNL     1       3.210  -4.171  25.777  0.00  0.00    +0.148 C 
ATOM     38  C   UNL     1       1.832  -3.556  26.003  0.00  0.00    +0.041 C 
ATOM     39  C   UNL     1       3.170  -5.575  25.169  0.00  0.00    +0.160 C 
ATOM     40  C   UNL     1       4.500  -5.836  24.459  0.00  0.00    +0.087 C 
ATOM     41  C   UNL     1       4.655  -4.828  23.314  0.00  0.00    +0.082 C 
BRANCH  40  42
ATOM     42  N   UNL     1       4.542  -7.219  23.945  0.00  0.00    -0.325 NA
ATOM     43  H   UNL     1       4.850  -7.216  22.974  0.00  0.00    +0.119 HD
ATOM     44  H   UNL     1       5.271  -7.729  24.448  0.00  0.00    +0.119 HD
ENDBRANCH  40  42
BRANCH  39  45
ATOM     45  O   UNL     1       2.096  -5.713  24.230  0.00  0.00    -0.388 OA
ATOM     46  H   UNL     1       2.528  -5.978  23.396  0.00  0.00    +0.210 HD
ENDBRANCH  39  45
ENDBRANCH  34  35
ENDBRANCH  13  34
TORSDOF 11
ENDMDL
MODEL 2
REMARK VINA RESULT:      -7.9      2.046      2.516
REMARK  Name = 
REMARK  13 active torsions:
REMARK  status: ('A' for Active; 'I' for Inactive)
REMARK    1  A    between atoms: C_1  and  O_2
REMARK    2  A    between atoms: O_2  and  C_3
REMARK    3  A    between atoms: C_12  and  O_13
REMARK    4  A    between atoms: C_17  and  O_18
REMARK    5  A    between atoms: C_17  and  C_36
REMARK    6  A    between atoms: C_20  and  O_22
REMARK    7  A    between atoms: O_22  and  C_23
REMARK    8  A    between atoms: C_26  and  N_28
REMARK    9  A    between atoms: C_29  and  O_31
REMARK   10  A    between atoms: C_32  and  C_34
REMARK   11  A    between atoms: C_36  and  C_38
REMARK   12  A    between atoms: C_38  and  O_39
REMARK   13  A    between atoms: C_40  and  O_41
REMARK                            x       y       z     vdW  Elec       q    Type
REMARK                         _______ _______ _______ _____ _____    ______ ____
ROOT
ATOM      1  C   UNL     1       8.284   4.486  25.647  0.00  0.00    +0.132 A 
ATOM      2  C   UNL     1       8.333   3.265  24.936  0.00  0.00    +0.075 A 
ATOM      3  C   UNL     1       7.492   2.087  25.296  0.00  0.00    +0.202 C 
ATOM      4  C   UNL     1       7.546   0.837  24.491  0.00  0.00    +0.078 A 
ATOM      5  C   UNL     1       8.431   0.747  23.419  0.00  0.00    +0.078 A 
ATOM      6  C   UNL     1       9.297   1.906  23.071  0.00  0.00    +0.198 C 
ATOM      7  O   UNL     1      10.103   1.884  22.148  0.00  0.00    -0.286 OA
ATOM      8  C   UNL     1       8.504  -0.453  22.693  0.00  0.00    +0.132 A 
ATOM      9  C   UNL     1       7.698  -1.568  23.017  0.00  0.00    +0.007 A 
ATOM     10  C   UNL     1       7.870  -2.853  22.206  0.00  0.00    +0.082 C 
ATOM     11  C   UNL     1       6.832  -3.902  22.572  0.00  0.00    +0.133 C 
ATOM     12  C   UNL     1       6.836  -3.969  24.108  0.00  0.00    +0.079 C 
ATOM     13  C   UNL     1       6.081  -2.769  24.674  0.00  0.00    +0.158 C 
ATOM     14  C   UNL     1       6.814  -1.502  24.139  0.00  0.00    +0.030 A 
ATOM     15  C   UNL     1       6.744  -0.284  24.839  0.00  0.00    +0.134 A 
ATOM     16  O   UNL     1       6.738   2.092  26.266  0.00  0.00    -0.286 OA
ATOM     17  C   UNL     1       9.204   3.151  23.851  0.00  0.00    +0.037 A 
ATOM     18  C   UNL     1      10.016   4.228  23.463  0.00  0.00    +0.012 A 
ATOM     19  C   UNL     1       9.963   5.428  24.156  0.00  0.00    +0.004 A 
ATOM     20  C   UNL     1       9.101   5.555  25.242  0.00  0.00    +0.046 A 
ENDROOT
BRANCH   1  22
ATOM     21  C   UNL     1       7.155   5.855  27.258  0.00  0.00    +0.277 C 
ATOM     22  O   UNL     1       7.429   4.571  26.712  0.00  0.00    -0.494 OA
ENDBRANCH   1  22
BRANCH   8  23
ATOM     23  O   UNL     1       9.424  -0.540  21.682  0.00  0.00    -0.506 OA
ATOM     24  H   UNL     1      10.291  -0.183  21.912  0.00  0.00    +0.292 HD
ENDBRANCH   8  23
BRANCH  11  25
ATOM     25  O   UNL     1       5.603  -3.498  21.950  0.00  0.00    -0.381 OA
ATOM     26  H   UNL     1       5.666  -3.664  20.987  0.00  0.00    +0.211 HD
ENDBRANCH  11  25
BRANCH  11  27
ATOM     27  C   UNL     1       7.180  -5.286  22.019  0.00  0.00    +0.190 C 
ATOM     28  O   UNL     1       8.136  -5.945  22.440  0.00  0.00    -0.292 OA
BRANCH  27  29
ATOM     29  C   UNL     1       6.285  -5.836  20.907  0.00  0.00    +0.233 C 
BRANCH  29  30
ATOM     30  O   UNL     1       5.068  -6.370  21.408  0.00  0.00    -0.387 OA
ATOM     31  H   UNL     1       4.824  -5.816  22.177  0.00  0.00    +0.210 HD
ENDBRANCH  29  30
ENDBRANCH  27  29
ENDBRANCH  11  27
BRANCH  15  32
ATOM     32  O   UNL     1       5.886  -0.246  25.918  0.00  0.00    -0.506 OA
ATOM     33  H   UNL     1       5.182  -0.921  25.774  0.00  0.00    +0.292 HD
ENDBRANCH  15  32
BRANCH  13  34
ATOM     34  O   UNL     1       4.689  -2.836  24.273  0.00  0.00    -0.343 OA
BRANCH  34  35
ATOM     35  C   UNL     1       3.849  -3.725  25.085  0.00  0.00    +0.253 C 
ATOM     36  O   UNL     1       4.500  -4.021  26.313  0.00  0.00    -0.346 OA
ATOM     37  C   UNL     1       4.159  -5.166  27.099  0.00  0.00    +0.148 C 
ATOM     38  C   UNL     1       3.313  -4.811  28.318  0.00  0.00    +0.041 C 
ATOM     39  C   UNL     1       3.626  -6.361  26.303  0.00  0.00    +0.160 C 
ATOM     40  C   UNL     1       4.145  -6.259  24.867  0.00  0.00    +0.087 C 
ATOM     41  C   UNL     1       3.589  -4.979  24.230  0.00  0.00    +0.082 C 
BRANCH  40  42
ATOM     42  N   UNL     1       3.738  -7.446  24.091  0.00  0.00    -0.325 NA
ATOM     43  H   UNL     1       4.534  -8.073  23.979  0.00  0.00    +0.119 HD
ATOM     44  H   UNL     1       3.063  -7.978  24.644  0.00  0.00    +0.119 HD
ENDBRANCH  40  42
BRANCH  39  45
ATOM     45  O   UNL     1       2.193  -6.389  26.288  0.00  0.00    -0.388 OA
ATOM     46  H   UNL     1       1.953  -6.336  25.344  0.00  0.00    +0.210 HD
ENDBRANCH  39  45
ENDBRANCH  34  35
ENDBRANCH  13  34
TORSDOF 11
ENDMDL
MODEL 3
REMARK VINA RESULT:      -7.0      3.094      8.498
REMARK  Name = 
REMARK  13 active torsions:
REMARK  status: ('A' for Active; 'I' for Inactive)
REMARK    1  A    between atoms: C_1  and  O_2
REMARK    2  A    between atoms: O_2  and  C_3
REMARK    3  A    between atoms: C_12  and  O_13
REMARK    4  A    between atoms: C_17  and  O_18
REMARK    5  A    between atoms: C_17  and  C_36
REMARK    6  A    between atoms: C_20  and  O_22
REMARK    7  A    between atoms: O_22  and  C_23
REMARK    8  A    between atoms: C_26  and  N_28
REMARK    9  A    between atoms: C_29  and  O_31
REMARK   10  A    between atoms: C_32  and  C_34
REMARK   11  A    between atoms: C_36  and  C_38
REMARK   12  A    between atoms: C_38  and  O_39
REMARK   13  A    between atoms: C_40  and  O_41
REMARK                            x       y       z     vdW  Elec       q    Type
REMARK                         _______ _______ _______ _____ _____    ______ ____
ROOT
ATOM      1  C   UNL     1       2.996  -5.157  28.567  0.00  0.00    +0.132 A 
ATOM      2  C   UNL     1       4.160  -4.606  27.983  0.00  0.00    +0.075 A 
ATOM      3  C   UNL     1       4.173  -3.275  27.310  0.00  0.00    +0.202 C 
ATOM      4  C   UNL     1       5.433  -2.718  26.748  0.00  0.00    +0.078 A 
ATOM      5  C   UNL     1       6.604  -3.472  26.805  0.00  0.00    +0.078 A 
ATOM      6  C   UNL     1       6.593  -4.814  27.446  0.00  0.00    +0.198 C 
ATOM      7  O   UNL     1       7.587  -5.528  27.516  0.00  0.00    -0.286 OA
ATOM      8  C   UNL     1       7.777  -2.953  26.232  0.00  0.00    +0.132 A 
ATOM      9  C   UNL     1       7.803  -1.685  25.609  0.00  0.00    +0.007 A 
ATOM     10  C   UNL     1       9.109  -1.212  24.970  0.00  0.00    +0.082 C 
ATOM     11  C   UNL     1       9.018   0.224  24.480  0.00  0.00    +0.133 C 
ATOM     12  C   UNL     1       7.709   0.304  23.677  0.00  0.00    +0.079 C 
ATOM     13  C   UNL     1       6.523   0.369  24.636  0.00  0.00    +0.158 C 
ATOM     14  C   UNL     1       6.600  -0.919  25.509  0.00  0.00    +0.030 A 
ATOM     15  C   UNL     1       5.441  -1.450  26.106  0.00  0.00    +0.134 A 
ATOM     16  O   UNL     1       3.158  -2.596  27.182  0.00  0.00    -0.286 OA
ATOM     17  C   UNL     1       5.349  -5.336  28.034  0.00  0.00    +0.037 A 
ATOM     18  C   UNL     1       5.398  -6.592  28.658  0.00  0.00    +0.012 A 
ATOM     19  C   UNL     1       4.257  -7.129  29.238  0.00  0.00    +0.004 A 
ATOM     20  C   UNL     1       3.063  -6.414  29.192  0.00  0.00    +0.046 A 
ENDROOT
BRANCH   1  22
ATOM     21  C   UNL     1       0.674  -5.056  27.980  0.00  0.00    +0.277 C 
ATOM     22  O   UNL     1       1.840  -4.427  28.497  0.00  0.00    -0.494 OA
ENDBRANCH   1  22
BRANCH   8  23
ATOM     23  O   UNL     1       8.901  -3.736  26.245  0.00  0.00    -0.506 OA
ATOM     24  H   UNL     1       8.973  -4.301  27.024  0.00  0.00    +0.292 HD
ENDBRANCH   8  23
BRANCH  11  25
ATOM     25  O   UNL     1       9.109   1.061  25.642  0.00  0.00    -0.381 OA
ATOM     26  H   UNL     1       8.212   1.375  25.879  0.00  0.00    +0.211 HD
ENDBRANCH  11  25
BRANCH  11  27
ATOM     27  C   UNL     1      10.182   0.604  23.562  0.00  0.00    +0.190 C 
ATOM     28  O   UNL     1      11.322   0.807  23.990  0.00  0.00    -0.292 OA
BRANCH  27  29
ATOM     29  C   UNL     1       9.880   0.723  22.067  0.00  0.00    +0.233 C 
BRANCH  29  30
ATOM     30  O   UNL     1       9.998   2.058  21.597  0.00  0.00    -0.387 OA
ATOM     31  H   UNL     1      10.873   2.376  21.897  0.00  0.00    +0.210 HD
ENDBRANCH  29  30
ENDBRANCH  27  29
ENDBRANCH  11  27
BRANCH  15  32
ATOM     32  O   UNL     1       4.294  -0.694  25.996  0.00  0.00    -0.506 OA
ATOM     33  H   UNL     1       4.223  -0.124  26.797  0.00  0.00    +0.292 HD
ENDBRANCH  15  32
BRANCH  13  34
ATOM     34  O   UNL     1       6.592   1.592  25.414  0.00  0.00    -0.343 OA
BRANCH  34  35
ATOM     35  C   UNL     1       5.784   2.704  24.898  0.00  0.00    +0.253 C 
ATOM     36  O   UNL     1       4.704   2.202  24.123  0.00  0.00    -0.346 OA
ATOM     37  C   UNL     1       4.023   3.006  23.156  0.00  0.00    +0.148 C 
ATOM     38  C   UNL     1       2.663   3.491  23.650  0.00  0.00    +0.041 C 
ATOM     39  C   UNL     1       4.874   4.102  22.511  0.00  0.00    +0.160 C 
ATOM     40  C   UNL     1       6.346   3.692  22.604  0.00  0.00    +0.087 C 
ATOM     41  C   UNL     1       6.740   3.595  24.083  0.00  0.00    +0.082 C 
BRANCH  40  42
ATOM     42  N   UNL     1       7.195   4.674  21.902  0.00  0.00    -0.325 NA
ATOM     43  H   UNL     1       6.637   5.486  21.640  0.00  0.00    +0.119 HD
ATOM     44  H   UNL     1       7.886   5.036  22.562  0.00  0.00    +0.119 HD
ENDBRANCH  40  42
BRANCH  39  45
ATOM     45  O   UNL     1       4.692   5.365  23.163  0.00  0.00    -0.388 OA
ATOM     46  H   UNL     1       5.164   5.277  24.012  0.00  0.00    +0.210 HD
ENDBRANCH  39  45
ENDBRANCH  34  35
ENDBRANCH  13  34
TORSDOF 11
ENDMDL
MODEL 4
REMARK VINA RESULT:      -6.9      2.997      8.258
REMARK  Name = 
REMARK  13 active torsions:
REMARK  status: ('A' for Active; 'I' for Inactive)
REMARK    1  A    between atoms: C_1  and  O_2
REMARK    2  A    between atoms: O_2  and  C_3
REMARK    3  A    between atoms: C_12  and  O_13
REMARK    4  A    between atoms: C_17  and  O_18
REMARK    5  A    between atoms: C_17  and  C_36
REMARK    6  A    between atoms: C_20  and  O_22
REMARK    7  A    between atoms: O_22  and  C_23
REMARK    8  A    between atoms: C_26  and  N_28
REMARK    9  A    between atoms: C_29  and  O_31
REMARK   10  A    between atoms: C_32  and  C_34
REMARK   11  A    between atoms: C_36  and  C_38
REMARK   12  A    between atoms: C_38  and  O_39
REMARK   13  A    between atoms: C_40  and  O_41
REMARK                            x       y       z     vdW  Elec       q    Type
REMARK                         _______ _______ _______ _____ _____    ______ ____
ROOT
ATOM      1  C   UNL     1       6.244  -4.115  24.438  0.00  0.00    +0.132 A 
ATOM      2  C   UNL     1       6.998  -2.921  24.368  0.00  0.00    +0.075 A 
ATOM      3  C   UNL     1       6.367  -1.572  24.279  0.00  0.00    +0.202 C 
ATOM      4  C   UNL     1       7.200  -0.341  24.251  0.00  0.00    +0.078 A 
ATOM      5  C   UNL     1       8.590  -0.451  24.254  0.00  0.00    +0.078 A 
ATOM      6  C   UNL     1       9.229  -1.793  24.310  0.00  0.00    +0.198 C 
ATOM      7  O   UNL     1      10.444  -1.955  24.305  0.00  0.00    -0.286 OA
ATOM      8  C   UNL     1       9.367   0.717  24.183  0.00  0.00    +0.132 A 
ATOM      9  C   UNL     1       8.777   2.000  24.118  0.00  0.00    +0.007 A 
ATOM     10  C   UNL     1       9.692   3.219  23.997  0.00  0.00    +0.082 C 
ATOM     11  C   UNL     1       8.919   4.525  24.092  0.00  0.00    +0.133 C 
ATOM     12  C   UNL     1       7.730   4.372  23.129  0.00  0.00    +0.079 C 
ATOM     13  C   UNL     1       6.663   3.488  23.769  0.00  0.00    +0.158 C 
ATOM     14  C   UNL     1       7.353   2.124  24.073  0.00  0.00    +0.030 A 
ATOM     15  C   UNL     1       6.595   0.942  24.164  0.00  0.00    +0.134 A 
ATOM     16  O   UNL     1       5.149  -1.422  24.214  0.00  0.00    -0.286 OA
ATOM     17  C   UNL     1       8.391  -3.002  24.379  0.00  0.00    +0.037 A 
ATOM     18  C   UNL     1       9.041  -4.243  24.466  0.00  0.00    +0.012 A 
ATOM     19  C   UNL     1       8.301  -5.414  24.543  0.00  0.00    +0.004 A 
ATOM     20  C   UNL     1       6.911  -5.349  24.529  0.00  0.00    +0.046 A 
ENDROOT
BRANCH   1  22
ATOM     21  C   UNL     1       4.166  -4.701  23.397  0.00  0.00    +0.277 C 
ATOM     22  O   UNL     1       4.880  -4.012  24.416  0.00  0.00    -0.494 OA
ENDBRANCH   1  22
BRANCH   8  23
ATOM     23  O   UNL     1      10.728   0.583  24.127  0.00  0.00    -0.506 OA
ATOM     24  H   UNL     1      11.055   0.275  23.273  0.00  0.00    +0.292 HD
ENDBRANCH   8  23
BRANCH  11  25
ATOM     25  O   UNL     1       8.600   4.714  25.478  0.00  0.00    -0.381 OA
ATOM     26  H   UNL     1       8.786   5.645  25.722  0.00  0.00    +0.211 HD
ENDBRANCH  11  25
BRANCH  11  27
ATOM     27  C   UNL     1       9.753   5.731  23.655  0.00  0.00    +0.190 C 
ATOM     28  O   UNL     1       9.239   6.790  23.281  0.00  0.00    -0.292 OA
BRANCH  27  29
ATOM     29  C   UNL     1      11.274   5.578  23.699  0.00  0.00    +0.233 C 
BRANCH  29  30
ATOM     30  O   UNL     1      11.852   5.546  22.402  0.00  0.00    -0.387 OA
ATOM     31  H   UNL     1      11.325   4.904  21.885  0.00  0.00    +0.210 HD
ENDBRANCH  29  30
ENDBRANCH  27  29
ENDBRANCH  11  27
BRANCH  15  32
ATOM     32  O   UNL     1       5.225   1.088  24.117  0.00  0.00    -0.506 OA
ATOM     33  H   UNL     1       4.825   0.192  24.015  0.00  0.00    +0.292 HD
ENDBRANCH  15  32
BRANCH  13  34
ATOM     34  O   UNL     1       6.138   4.140  24.954  0.00  0.00    -0.343 OA
BRANCH  34  35
ATOM     35  C   UNL     1       4.727   4.541  24.871  0.00  0.00    +0.253 C 
ATOM     36  O   UNL     1       3.920   3.414  24.558  0.00  0.00    -0.346 OA
ATOM     37  C   UNL     1       2.613   3.549  23.991  0.00  0.00    +0.148 C 
ATOM     38  C   UNL     1       1.504   3.312  25.013  0.00  0.00    +0.041 C 
ATOM     39  C   UNL     1       2.406   4.797  23.131  0.00  0.00    +0.160 C 
ATOM     40  C   UNL     1       3.769   5.258  22.608  0.00  0.00    +0.087 C 
ATOM     41  C   UNL     1       4.652   5.645  23.801  0.00  0.00    +0.082 C 
BRANCH  40  42
ATOM     42  N   UNL     1       3.604   6.401  21.689  0.00  0.00    -0.325 NA
ATOM     43  H   UNL     1       2.940   7.067  22.084  0.00  0.00    +0.119 HD
ATOM     44  H   UNL     1       4.488   6.911  21.643  0.00  0.00    +0.119 HD
ENDBRANCH  40  42
BRANCH  39  45
ATOM     45  O   UNL     1       1.802   5.860  23.879  0.00  0.00    -0.388 OA
ATOM     46  H   UNL     1       1.988   6.666  23.361  0.00  0.00    +0.210 HD
ENDBRANCH  39  45
ENDBRANCH  34  35
ENDBRANCH  13  34
TORSDOF 11
ENDMDL
MODEL 5
REMARK VINA RESULT:      -6.8      2.868      8.804
REMARK  Name = 
REMARK  13 active torsions:
REMARK  status: ('A' for Active; 'I' for Inactive)
REMARK    1  A    between atoms: C_1  and  O_2
REMARK    2  A    between atoms: O_2  and  C_3
REMARK    3  A    between atoms: C_12  and  O_13
REMARK    4  A    between atoms: C_17  and  O_18
REMARK    5  A    between atoms: C_17  and  C_36
REMARK    6  A    between atoms: C_20  and  O_22
REMARK    7  A    between atoms: O_22  and  C_23
REMARK    8  A    between atoms: C_26  and  N_28
REMARK    9  A    between atoms: C_29  and  O_31
REMARK   10  A    between atoms: C_32  and  C_34
REMARK   11  A    between atoms: C_36  and  C_38
REMARK   12  A    between atoms: C_38  and  O_39
REMARK   13  A    between atoms: C_40  and  O_41
REMARK                            x       y       z     vdW  Elec       q    Type
REMARK                         _______ _______ _______ _____ _____    ______ ____
ROOT
ATOM      1  C   UNL     1       1.409  -5.610  26.766  0.00  0.00    +0.132 A 
ATOM      2  C   UNL     1       2.589  -5.280  26.061  0.00  0.00    +0.075 A 
ATOM      3  C   UNL     1       3.136  -3.893  26.008  0.00  0.00    +0.202 C 
ATOM      4  C   UNL     1       4.405  -3.601  25.288  0.00  0.00    +0.078 A 
ATOM      5  C   UNL     1       5.063  -4.626  24.611  0.00  0.00    +0.078 A 
ATOM      6  C   UNL     1       4.508  -6.006  24.631  0.00  0.00    +0.198 C 
ATOM      7  O   UNL     1       5.034  -6.946  24.047  0.00  0.00    -0.286 OA
ATOM      8  C   UNL     1       6.237  -4.330  23.899  0.00  0.00    +0.132 A 
ATOM      9  C   UNL     1       6.772  -3.022  23.859  0.00  0.00    +0.007 A 
ATOM     10  C   UNL     1       8.029  -2.774  23.024  0.00  0.00    +0.082 C 
ATOM     11  C   UNL     1       8.565  -1.362  23.205  0.00  0.00    +0.133 C 
ATOM     12  C   UNL     1       7.349  -0.435  23.040  0.00  0.00    +0.079 C 
ATOM     13  C   UNL     1       6.504  -0.467  24.310  0.00  0.00    +0.158 C 
ATOM     14  C   UNL     1       6.086  -1.954  24.516  0.00  0.00    +0.030 A 
ATOM     15  C   UNL     1       4.922  -2.278  25.238  0.00  0.00    +0.134 A 
ATOM     16  O   UNL     1       2.566  -2.943  26.537  0.00  0.00    -0.286 OA
ATOM     17  C   UNL     1       3.273  -6.289  25.382  0.00  0.00    +0.037 A 
ATOM     18  C   UNL     1       2.809  -7.613  25.400  0.00  0.00    +0.012 A 
ATOM     19  C   UNL     1       1.655  -7.939  26.099  0.00  0.00    +0.004 A 
ATOM     20  C   UNL     1       0.960  -6.942  26.778  0.00  0.00    +0.046 A 
ENDROOT
BRANCH   1  22
ATOM     21  C   UNL     1       0.470  -4.761  28.801  0.00  0.00    +0.277 C 
ATOM     22  O   UNL     1       0.751  -4.601  27.417  0.00  0.00    -0.494 OA
ENDBRANCH   1  22
BRANCH   8  23
ATOM     23  O   UNL     1       6.834  -5.339  23.191  0.00  0.00    -0.506 OA
ATOM     24  H   UNL     1       7.719  -5.564  23.504  0.00  0.00    +0.292 HD
ENDBRANCH   8  23
BRANCH  11  25
ATOM     25  O   UNL     1       9.224  -1.333  24.479  0.00  0.00    -0.381 OA
ATOM     26  H   UNL     1       8.650  -1.766  25.144  0.00  0.00    +0.211 HD
ENDBRANCH  11  25
BRANCH  11  27
ATOM     27  C   UNL     1       9.611  -0.994  22.150  0.00  0.00    +0.190 C 
ATOM     28  O   UNL     1      10.676  -1.609  22.033  0.00  0.00    -0.292 OA
BRANCH  27  29
ATOM     29  C   UNL     1       9.286   0.182  21.228  0.00  0.00    +0.233 C 
BRANCH  29  30
ATOM     30  O   UNL     1      10.001   1.358  21.580  0.00  0.00    -0.387 OA
ATOM     31  H   UNL     1       9.684   2.060  20.977  0.00  0.00    +0.210 HD
ENDBRANCH  29  30
ENDBRANCH  27  29
ENDBRANCH  11  27
BRANCH  15  32
ATOM     32  O   UNL     1       4.277  -1.232  25.862  0.00  0.00    -0.506 OA
ATOM     33  H   UNL     1       4.704  -0.391  25.571  0.00  0.00    +0.292 HD
ENDBRANCH  15  32
BRANCH  13  34
ATOM     34  O   UNL     1       7.270   0.070  25.419  0.00  0.00    -0.343 OA
BRANCH  34  35
ATOM     35  C   UNL     1       7.143   1.519  25.619  0.00  0.00    +0.253 C 
ATOM     36  O   UNL     1       5.918   1.980  25.068  0.00  0.00    -0.346 OA
ATOM     37  C   UNL     1       5.709   3.351  24.718  0.00  0.00    +0.148 C 
ATOM     38  C   UNL     1       4.843   4.090  25.734  0.00  0.00    +0.041 C 
ATOM     39  C   UNL     1       6.971   4.115  24.310  0.00  0.00    +0.160 C 
ATOM     40  C   UNL     1       8.007   3.106  23.806  0.00  0.00    +0.087 C 
ATOM     41  C   UNL     1       8.376   2.159  24.954  0.00  0.00    +0.082 C 
BRANCH  40  42
ATOM     42  N   UNL     1       9.203   3.810  23.306  0.00  0.00    -0.325 NA
ATOM     43  H   UNL     1       8.983   4.792  23.145  0.00  0.00    +0.119 HD
ATOM     44  H   UNL     1       9.907   3.818  24.046  0.00  0.00    +0.119 HD
ENDBRANCH  40  42
BRANCH  39  45
ATOM     45  O   UNL     1       7.523   4.850  25.410  0.00  0.00    -0.388 OA
ATOM     46  H   UNL     1       6.841   5.510  25.634  0.00  0.00    +0.210 HD
ENDBRANCH  39  45
ENDBRANCH  34  35
ENDBRANCH  13  34
TORSDOF 11
ENDMDL
MODEL 6
REMARK VINA RESULT:      -6.8      2.915      8.727
REMARK  Name = 
REMARK  13 active torsions:
REMARK  status: ('A' for Active; 'I' for Inactive)
REMARK    1  A    between atoms: C_1  and  O_2
REMARK    2  A    between atoms: O_2  and  C_3
REMARK    3  A    between atoms: C_12  and  O_13
REMARK    4  A    between atoms: C_17  and  O_18
REMARK    5  A    between atoms: C_17  and  C_36
REMARK    6  A    between atoms: C_20  and  O_22
REMARK    7  A    between atoms: O_22  and  C_23
REMARK    8  A    between atoms: C_26  and  N_28
REMARK    9  A    between atoms: C_29  and  O_31
REMARK   10  A    between atoms: C_32  and  C_34
REMARK   11  A    between atoms: C_36  and  C_38
REMARK   12  A    between atoms: C_38  and  O_39
REMARK   13  A    between atoms: C_40  and  O_41
REMARK                            x       y       z     vdW  Elec       q    Type
REMARK                         _______ _______ _______ _____ _____    ______ ____
ROOT
ATOM      1  C   UNL     1       2.896  -5.175  25.832  0.00  0.00    +0.132 A 
ATOM      2  C   UNL     1       4.022  -4.481  25.333  0.00  0.00    +0.075 A 
ATOM      3  C   UNL     1       4.178  -3.003  25.454  0.00  0.00    +0.202 C 
ATOM      4  C   UNL     1       5.401  -2.321  24.952  0.00  0.00    +0.078 A 
ATOM      5  C   UNL     1       6.390  -3.066  24.313  0.00  0.00    +0.078 A 
ATOM      6  C   UNL     1       6.230  -4.537  24.159  0.00  0.00    +0.198 C 
ATOM      7  O   UNL     1       7.058  -5.244  23.598  0.00  0.00    -0.286 OA
ATOM      8  C   UNL     1       7.521  -2.405  23.805  0.00  0.00    +0.132 A 
ATOM      9  C   UNL     1       7.685  -1.008  23.932  0.00  0.00    +0.007 A 
ATOM     10  C   UNL     1       8.923  -0.359  23.312  0.00  0.00    +0.082 C 
ATOM     11  C   UNL     1       9.031   1.117  23.664  0.00  0.00    +0.133 C 
ATOM     12  C   UNL     1       7.641   1.712  23.382  0.00  0.00    +0.079 C 
ATOM     13  C   UNL     1       6.683   1.331  24.508  0.00  0.00    +0.158 C 
ATOM     14  C   UNL     1       6.659  -0.226  24.550  0.00  0.00    +0.030 A 
ATOM     15  C   UNL     1       5.544  -0.912  25.068  0.00  0.00    +0.134 A 
ATOM     16  O   UNL     1       3.311  -2.292  25.956  0.00  0.00    -0.286 OA
ATOM     17  C   UNL     1       5.033  -5.205  24.698  0.00  0.00    +0.037 A 
ATOM     18  C   UNL     1       4.943  -6.598  24.558  0.00  0.00    +0.012 A 
ATOM     19  C   UNL     1       3.842  -7.281  25.054  0.00  0.00    +0.004 A 
ATOM     20  C   UNL     1       2.825  -6.572  25.688  0.00  0.00    +0.046 A 
ENDROOT
BRANCH   1  22
ATOM     21  C   UNL     1       0.587  -4.544  25.943  0.00  0.00    +0.277 C 
ATOM     22  O   UNL     1       1.914  -4.444  26.443  0.00  0.00    -0.494 OA
ENDBRANCH   1  22
BRANCH   8  23
ATOM     23  O   UNL     1       8.451  -3.148  23.128  0.00  0.00    -0.506 OA
ATOM     24  H   UNL     1       8.131  -3.506  22.291  0.00  0.00    +0.292 HD
ENDBRANCH   8  23
BRANCH  11  25
ATOM     25  O   UNL     1       9.493   1.182  25.021  0.00  0.00    -0.381 OA
ATOM     26  H   UNL     1       8.756   0.943  25.620  0.00  0.00    +0.211 HD
ENDBRANCH  11  25
BRANCH  11  27
ATOM     27  C   UNL     1      10.063   1.849  22.803  0.00  0.00    +0.190 C 
ATOM     28  O   UNL     1      10.193   1.627  21.596  0.00  0.00    -0.292 OA
BRANCH  27  29
ATOM     29  C   UNL     1      10.943   2.885  23.503  0.00  0.00    +0.233 C 
BRANCH  29  30
ATOM     30  O   UNL     1      10.752   4.194  22.985  0.00  0.00    -0.387 OA
ATOM     31  H   UNL     1      10.671   4.094  22.015  0.00  0.00    +0.210 HD
ENDBRANCH  29  30
ENDBRANCH  27  29
ENDBRANCH  11  27
BRANCH  15  32
ATOM     32  O   UNL     1       4.568  -0.137  25.658  0.00  0.00    -0.506 OA
ATOM     33  H   UNL     1       4.285  -0.582  26.491  0.00  0.00    +0.292 HD
ENDBRANCH  15  32
BRANCH  13  34
ATOM     34  O   UNL     1       7.131   1.929  25.751  0.00  0.00    -0.343 OA
BRANCH  34  35
ATOM     35  C   UNL     1       6.692   3.314  25.970  0.00  0.00    +0.253 C 
ATOM     36  O   UNL     1       5.660   3.647  25.052  0.00  0.00    -0.346 OA
ATOM     37  C   UNL     1       5.342   5.002  24.723  0.00  0.00    +0.148 C 
ATOM     38  C   UNL     1       4.071   5.490  25.412  0.00  0.00    +0.041 C 
ATOM     39  C   UNL     1       6.514   5.983  24.819  0.00  0.00    +0.160 C 
ATOM     40  C   UNL     1       7.818   5.199  24.654  0.00  0.00    +0.087 C 
ATOM     41  C   UNL     1       7.943   4.197  25.809  0.00  0.00    +0.082 C 
BRANCH  40  42
ATOM     42  N   UNL     1       8.969   6.121  24.638  0.00  0.00    -0.325 NA
ATOM     43  H   UNL     1       9.269   6.281  23.676  0.00  0.00    +0.119 HD
ATOM     44  H   UNL     1       8.657   7.036  24.969  0.00  0.00    +0.119 HD
ENDBRANCH  40  42
BRANCH  39  45
ATOM     45  O   UNL     1       6.528   6.667  26.078  0.00  0.00    -0.388 OA
ATOM     46  H   UNL     1       6.626   7.609  25.848  0.00  0.00    +0.210 HD
ENDBRANCH  39  45
ENDBRANCH  34  35
ENDBRANCH  13  34
TORSDOF 11
ENDMDL
MODEL 7
REMARK VINA RESULT:      -6.8      1.951      2.296
REMARK  Name = 
REMARK  13 active torsions:
REMARK  status: ('A' for Active; 'I' for Inactive)
REMARK    1  A    between atoms: C_1  and  O_2
REMARK    2  A    between atoms: O_2  and  C_3
REMARK    3  A    between atoms: C_12  and  O_13
REMARK    4  A    between atoms: C_17  and  O_18
REMARK    5  A    between atoms: C_17  and  C_36
REMARK    6  A    between atoms: C_20  and  O_22
REMARK    7  A    between atoms: O_22  and  C_23
REMARK    8  A    between atoms: C_26  and  N_28
REMARK    9  A    between atoms: C_29  and  O_31
REMARK   10  A    between atoms: C_32  and  C_34
REMARK   11  A    between atoms: C_36  and  C_38
REMARK   12  A    between atoms: C_38  and  O_39
REMARK   13  A    between atoms: C_40  and  O_41
REMARK                            x       y       z     vdW  Elec       q    Type
REMARK                         _______ _______ _______ _____ _____    ______ ____
ROOT
ATOM      1  C   UNL     1       5.214   5.165  23.615  0.00  0.00    +0.132 A 
ATOM      2  C   UNL     1       5.879   3.917  23.600  0.00  0.00    +0.075 A 
ATOM      3  C   UNL     1       5.374   2.725  24.341  0.00  0.00    +0.202 C 
ATOM      4  C   UNL     1       6.084   1.421  24.260  0.00  0.00    +0.078 A 
ATOM      5  C   UNL     1       7.265   1.324  23.525  0.00  0.00    +0.078 A 
ATOM      6  C   UNL     1       7.793   2.517  22.809  0.00  0.00    +0.198 C 
ATOM      7  O   UNL     1       8.831   2.498  22.157  0.00  0.00    -0.286 OA
ATOM      8  C   UNL     1       7.950   0.098  23.492  0.00  0.00    +0.132 A 
ATOM      9  C   UNL     1       7.469  -1.041  24.176  0.00  0.00    +0.007 A 
ATOM     10  C   UNL     1       8.297  -2.325  24.126  0.00  0.00    +0.082 C 
ATOM     11  C   UNL     1       7.575  -3.495  24.777  0.00  0.00    +0.133 C 
ATOM     12  C   UNL     1       7.073  -2.969  26.132  0.00  0.00    +0.079 C 
ATOM     13  C   UNL     1       5.838  -2.098  25.917  0.00  0.00    +0.158 C 
ATOM     14  C   UNL     1       6.280  -0.945  24.965  0.00  0.00    +0.030 A 
ATOM     15  C   UNL     1       5.601   0.287  24.968  0.00  0.00    +0.134 A 
ATOM     16  O   UNL     1       4.371   2.770  25.049  0.00  0.00    -0.286 OA
ATOM     17  C   UNL     1       7.058   3.791  22.864  0.00  0.00    +0.037 A 
ATOM     18  C   UNL     1       7.579   4.877  22.144  0.00  0.00    +0.012 A 
ATOM     19  C   UNL     1       6.922   6.099  22.152  0.00  0.00    +0.004 A 
ATOM     20  C   UNL     1       5.746   6.241  22.885  0.00  0.00    +0.046 A 
ENDROOT
BRANCH   1  22
ATOM     21  C   UNL     1       3.858   6.444  25.122  0.00  0.00    +0.277 C 
ATOM     22  O   UNL     1       4.064   5.267  24.351  0.00  0.00    -0.494 OA
ENDBRANCH   1  22
BRANCH   8  23
ATOM     23  O   UNL     1       9.139   0.043  22.815  0.00  0.00    -0.506 OA
ATOM     24  H   UNL     1       9.833   0.591  23.200  0.00  0.00    +0.292 HD
ENDBRANCH   8  23
BRANCH  11  25
ATOM     25  O   UNL     1       6.573  -3.929  23.846  0.00  0.00    -0.381 OA
ATOM     26  H   UNL     1       6.326  -4.854  24.054  0.00  0.00    +0.211 HD
ENDBRANCH  11  25
BRANCH  11  27
ATOM     27  C   UNL     1       8.501  -4.688  25.026  0.00  0.00    +0.190 C 
ATOM     28  O   UNL     1       8.906  -5.412  24.111  0.00  0.00    -0.292 OA
BRANCH  27  29
ATOM     29  C   UNL     1       8.918  -4.956  26.472  0.00  0.00    +0.233 C 
BRANCH  29  30
ATOM     30  O   UNL     1       8.185  -6.023  27.057  0.00  0.00    -0.387 OA
ATOM     31  H   UNL     1       8.835  -6.560  27.553  0.00  0.00    +0.210 HD
ENDBRANCH  29  30
ENDBRANCH  27  29
ENDBRANCH  11  27
BRANCH  15  32
ATOM     32  O   UNL     1       4.459   0.355  25.738  0.00  0.00    -0.506 OA
ATOM     33  H   UNL     1       4.073  -0.551  25.795  0.00  0.00    +0.292 HD
ENDBRANCH  15  32
BRANCH  13  34
ATOM     34  O   UNL     1       4.761  -2.904  25.375  0.00  0.00    -0.343 OA
BRANCH  34  35
ATOM     35  C   UNL     1       3.941  -3.599  26.376  0.00  0.00    +0.253 C 
ATOM     36  O   UNL     1       4.180  -3.053  27.665  0.00  0.00    -0.346 OA
ATOM     37  C   UNL     1       3.884  -3.773  28.864  0.00  0.00    +0.148 C 
ATOM     38  C   UNL     1       2.610  -3.281  29.545  0.00  0.00    +0.041 C 
ATOM     39  C   UNL     1       3.972  -5.297  28.742  0.00  0.00    +0.160 C 
ATOM     40  C   UNL     1       4.911  -5.638  27.583  0.00  0.00    +0.087 C 
ATOM     41  C   UNL     1       4.311  -5.091  26.282  0.00  0.00    +0.082 C 
BRANCH  40  42
ATOM     42  N   UNL     1       5.105  -7.098  27.495  0.00  0.00    -0.325 NA
ATOM     43  H   UNL     1       5.842  -7.387  28.137  0.00  0.00    +0.119 HD
ATOM     44  H   UNL     1       4.261  -7.558  27.842  0.00  0.00    +0.119 HD
ENDBRANCH  40  42
BRANCH  39  45
ATOM     45  O   UNL     1       2.686  -5.882  28.497  0.00  0.00    -0.388 OA
ATOM     46  H   UNL     1       2.634  -5.969  27.527  0.00  0.00    +0.210 HD
ENDBRANCH  39  45
ENDBRANCH  34  35
ENDBRANCH  13  34
TORSDOF 11
ENDMDL
MODEL 8
REMARK VINA RESULT:      -6.7      2.208      2.751
REMARK  Name = 
REMARK  13 active torsions:
REMARK  status: ('A' for Active; 'I' for Inactive)
REMARK    1  A    between atoms: C_1  and  O_2
REMARK    2  A    between atoms: O_2  and  C_3
REMARK    3  A    between atoms: C_12  and  O_13
REMARK    4  A    between atoms: C_17  and  O_18
REMARK    5  A    between atoms: C_17  and  C_36
REMARK    6  A    between atoms: C_20  and  O_22
REMARK    7  A    between atoms: O_22  and  C_23
REMARK    8  A    between atoms: C_26  and  N_28
REMARK    9  A    between atoms: C_29  and  O_31
REMARK   10  A    between atoms: C_32  and  C_34
REMARK   11  A    between atoms: C_36  and  C_38
REMARK   12  A    between atoms: C_38  and  O_39
REMARK   13  A    between atoms: C_40  and  O_41
REMARK                            x       y       z     vdW  Elec       q    Type
REMARK                         _______ _______ _______ _____ _____    ______ ____
ROOT
ATOM      1  C   UNL     1       8.693   5.488  25.695  0.00  0.00    +0.132 A 
ATOM      2  C   UNL     1       8.718   4.201  25.112  0.00  0.00    +0.075 A 
ATOM      3  C   UNL     1       7.859   3.080  25.594  0.00  0.00    +0.202 C 
ATOM      4  C   UNL     1       7.888   1.754  24.920  0.00  0.00    +0.078 A 
ATOM      5  C   UNL     1       8.767   1.540  23.859  0.00  0.00    +0.078 A 
ATOM      6  C   UNL     1       9.650   2.643  23.392  0.00  0.00    +0.198 C 
ATOM      7  O   UNL     1      10.450   2.513  22.473  0.00  0.00    -0.286 OA
ATOM      8  C   UNL     1       8.817   0.271  23.260  0.00  0.00    +0.132 A 
ATOM      9  C   UNL     1       7.994  -0.791  23.698  0.00  0.00    +0.007 A 
ATOM     10  C   UNL     1       8.140  -2.155  23.022  0.00  0.00    +0.082 C 
ATOM     11  C   UNL     1       7.087  -3.143  23.496  0.00  0.00    +0.133 C 
ATOM     12  C   UNL     1       7.097  -3.053  25.031  0.00  0.00    +0.079 C 
ATOM     13  C   UNL     1       6.365  -1.789  25.475  0.00  0.00    +0.158 C 
ATOM     14  C   UNL     1       7.117  -0.597  24.810  0.00  0.00    +0.030 A 
ATOM     15  C   UNL     1       7.070   0.688  25.383  0.00  0.00    +0.134 A 
ATOM     16  O   UNL     1       7.111   3.197  26.560  0.00  0.00    -0.286 OA
ATOM     17  C   UNL     1       9.581   3.962  24.042  0.00  0.00    +0.037 A 
ATOM     18  C   UNL     1      10.410   4.980  23.543  0.00  0.00    +0.012 A 
ATOM     19  C   UNL     1      10.379   6.246  24.110  0.00  0.00    +0.004 A 
ATOM     20  C   UNL     1       9.525   6.497  25.180  0.00  0.00    +0.046 A 
ENDROOT
BRANCH   1  22
ATOM     21  C   UNL     1       6.913   6.766  26.666  0.00  0.00    +0.277 C 
ATOM     22  O   UNL     1       7.845   5.696  26.749  0.00  0.00    -0.494 OA
ENDBRANCH   1  22
BRANCH   8  23
ATOM     23  O   UNL     1       9.729   0.066  22.260  0.00  0.00    -0.506 OA
ATOM     24  H   UNL     1       9.944  -0.863  22.112  0.00  0.00    +0.292 HD
ENDBRANCH   8  23
BRANCH  11  25
ATOM     25  O   UNL     1       5.862  -2.784  22.841  0.00  0.00    -0.381 OA
ATOM     26  H   UNL     1       6.068  -2.451  21.943  0.00  0.00    +0.211 HD
ENDBRANCH  11  25
BRANCH  11  27
ATOM     27  C   UNL     1       7.409  -4.582  23.086  0.00  0.00    +0.190 C 
ATOM     28  O   UNL     1       8.370  -5.203  23.551  0.00  0.00    -0.292 OA
BRANCH  27  29
ATOM     29  C   UNL     1       6.482  -5.238  22.062  0.00  0.00    +0.233 C 
BRANCH  29  30
ATOM     30  O   UNL     1       7.193  -6.017  21.110  0.00  0.00    -0.387 OA
ATOM     31  H   UNL     1       6.538  -6.286  20.435  0.00  0.00    +0.210 HD
ENDBRANCH  29  30
ENDBRANCH  27  29
ENDBRANCH  11  27
BRANCH  15  32
ATOM     32  O   UNL     1       6.219   0.850  26.455  0.00  0.00    -0.506 OA
ATOM     33  H   UNL     1       5.556   0.120  26.434  0.00  0.00    +0.292 HD
ENDBRANCH  15  32
BRANCH  13  34
ATOM     34  O   UNL     1       4.970  -1.873  25.087  0.00  0.00    -0.343 OA
BRANCH  34  35
ATOM     35  C   UNL     1       4.029  -2.091  26.193  0.00  0.00    +0.253 C 
ATOM     36  O   UNL     1       4.610  -1.663  27.417  0.00  0.00    -0.346 OA
ATOM     37  C   UNL     1       4.144  -2.132  28.685  0.00  0.00    +0.148 C 
ATOM     38  C   UNL     1       3.293  -1.097  29.416  0.00  0.00    +0.041 C 
ATOM     39  C   UNL     1       3.535  -3.536  28.673  0.00  0.00    +0.160 C 
ATOM     40  C   UNL     1       4.109  -4.303  27.478  0.00  0.00    +0.087 C 
ATOM     41  C   UNL     1       3.689  -3.592  26.186  0.00  0.00    +0.082 C 
BRANCH  40  42
ATOM     42  N   UNL     1       3.626  -5.697  27.487  0.00  0.00    -0.325 NA
ATOM     43  H   UNL     1       3.032  -5.851  28.302  0.00  0.00    +0.119 HD
ATOM     44  H   UNL     1       3.008  -5.831  26.685  0.00  0.00    +0.119 HD
ENDBRANCH  40  42
BRANCH  39  45
ATOM     45  O   UNL     1       2.107  -3.492  28.565  0.00  0.00    -0.388 OA
ATOM     46  H   UNL     1       1.826  -4.425  28.597  0.00  0.00    +0.210 HD
ENDBRANCH  39  45
ENDBRANCH  34  35
ENDBRANCH  13  34
TORSDOF 11
ENDMDL
MODEL 9
REMARK VINA RESULT:      -6.7      3.444      8.193
REMARK  Name = 
REMARK  13 active torsions:
REMARK  status: ('A' for Active; 'I' for Inactive)
REMARK    1  A    between atoms: C_1  and  O_2
REMARK    2  A    between atoms: O_2  and  C_3
REMARK    3  A    between atoms: C_12  and  O_13
REMARK    4  A    between atoms: C_17  and  O_18
REMARK    5  A    between atoms: C_17  and  C_36
REMARK    6  A    between atoms: C_20  and  O_22
REMARK    7  A    between atoms: O_22  and  C_23
REMARK    8  A    between atoms: C_26  and  N_28
REMARK    9  A    between atoms: C_29  and  O_31
REMARK   10  A    between atoms: C_32  and  C_34
REMARK   11  A    between atoms: C_36  and  C_38
REMARK   12  A    between atoms: C_38  and  O_39
REMARK   13  A    between atoms: C_40  and  O_41
REMARK                            x       y       z     vdW  Elec       q    Type
REMARK                         _______ _______ _______ _____ _____    ______ ____
ROOT
ATOM      1  C   UNL     1       5.553  -4.401  24.234  0.00  0.00    +0.132 A 
ATOM      2  C   UNL     1       6.114  -3.159  23.858  0.00  0.00    +0.075 A 
ATOM      3  C   UNL     1       5.642  -1.859  24.415  0.00  0.00    +0.202 C 
ATOM      4  C   UNL     1       6.292  -0.580  24.022  0.00  0.00    +0.078 A 
ATOM      5  C   UNL     1       7.320  -0.592  23.081  0.00  0.00    +0.078 A 
ATOM      6  C   UNL     1       7.777  -1.882  22.495  0.00  0.00    +0.198 C 
ATOM      7  O   UNL     1       8.667  -1.956  21.657  0.00  0.00    -0.286 OA
ATOM      8  C   UNL     1       7.897   0.626  22.685  0.00  0.00    +0.132 A 
ATOM      9  C   UNL     1       7.468   1.861  23.221  0.00  0.00    +0.007 A 
ATOM     10  C   UNL     1       8.117   3.146  22.704  0.00  0.00    +0.082 C 
ATOM     11  C   UNL     1       7.660   4.369  23.484  0.00  0.00    +0.133 C 
ATOM     12  C   UNL     1       6.128   4.268  23.551  0.00  0.00    +0.079 C 
ATOM     13  C   UNL     1       5.729   3.232  24.599  0.00  0.00    +0.158 C 
ATOM     14  C   UNL     1       6.388   1.891  24.158  0.00  0.00    +0.030 A 
ATOM     15  C   UNL     1       5.838   0.657  24.554  0.00  0.00    +0.134 A 
ATOM     16  O   UNL     1       4.702  -1.786  25.203  0.00  0.00    -0.286 OA
ATOM     17  C   UNL     1       7.152  -3.144  22.925  0.00  0.00    +0.037 A 
ATOM     18  C   UNL     1       7.640  -4.336  22.369  0.00  0.00    +0.012 A 
ATOM     19  C   UNL     1       7.095  -5.556  22.745  0.00  0.00    +0.004 A 
ATOM     20  C   UNL     1       6.057  -5.587  23.672  0.00  0.00    +0.046 A 
ENDROOT
BRANCH   1  22
ATOM     21  C   UNL     1       4.637  -5.225  26.290  0.00  0.00    +0.277 C 
ATOM     22  O   UNL     1       4.531  -4.391  25.144  0.00  0.00    -0.494 OA
ENDBRANCH   1  22
BRANCH   8  23
ATOM     23  O   UNL     1       8.864   0.596  21.715  0.00  0.00    -0.506 OA
ATOM     24  H   UNL     1       9.560  -0.053  21.878  0.00  0.00    +0.292 HD
ENDBRANCH   8  23
BRANCH  11  25
ATOM     25  O   UNL     1       8.361   4.343  24.736  0.00  0.00    -0.381 OA
ATOM     26  H   UNL     1       8.714   5.238  24.921  0.00  0.00    +0.211 HD
ENDBRANCH  11  25
BRANCH  11  27
ATOM     27  C   UNL     1       8.036   5.679  22.787  0.00  0.00    +0.190 C 
ATOM     28  O   UNL     1       7.466   6.071  21.765  0.00  0.00    -0.292 OA
BRANCH  27  29
ATOM     29  C   UNL     1       9.163   6.502  23.414  0.00  0.00    +0.233 C 
BRANCH  29  30
ATOM     30  O   UNL     1      10.446   5.954  23.144  0.00  0.00    -0.387 OA
ATOM     31  H   UNL     1      10.482   5.099  23.618  0.00  0.00    +0.210 HD
ENDBRANCH  29  30
ENDBRANCH  27  29
ENDBRANCH  11  27
BRANCH  15  32
ATOM     32  O   UNL     1       4.797   0.712  25.455  0.00  0.00    -0.506 OA
ATOM     33  H   UNL     1       5.180   0.780  26.362  0.00  0.00    +0.292 HD
ENDBRANCH  15  32
BRANCH  13  34
ATOM     34  O   UNL     1       6.160   3.676  25.911  0.00  0.00    -0.343 OA
BRANCH  34  35
ATOM     35  C   UNL     1       5.650   2.881  27.036  0.00  0.00    +0.253 C 
ATOM     36  O   UNL     1       4.782   3.672  27.835  0.00  0.00    -0.346 OA
ATOM     37  C   UNL     1       4.486   3.340  29.195  0.00  0.00    +0.148 C 
ATOM     38  C   UNL     1       3.101   2.719  29.359  0.00  0.00    +0.041 C 
ATOM     39  C   UNL     1       5.594   2.586  29.933  0.00  0.00    +0.160 C 
ATOM     40  C   UNL     1       6.930   2.898  29.253  0.00  0.00    +0.087 C 
ATOM     41  C   UNL     1       6.883   2.381  27.810  0.00  0.00    +0.082 C 
BRANCH  40  42
ATOM     42  N   UNL     1       8.040   2.270  29.996  0.00  0.00    -0.325 NA
ATOM     43  H   UNL     1       8.831   2.911  30.038  0.00  0.00    +0.119 HD
ATOM     44  H   UNL     1       7.750   2.148  30.968  0.00  0.00    +0.119 HD
ENDBRANCH  40  42
BRANCH  39  45
ATOM     45  O   UNL     1       5.372   1.170  29.913  0.00  0.00    -0.388 OA
ATOM     46  H   UNL     1       5.692   0.856  30.779  0.00  0.00    +0.210 HD
ENDBRANCH  39  45
ENDBRANCH  34  35
ENDBRANCH  13  34
TORSDOF 11
ENDMDL
