MODEL 1
REMARK VINA RESULT:      -8.4      0.000      0.000
REMARK  Name = 
REMARK  2 active torsions:
REMARK  status: ('A' for Active; 'I' for Inactive)
REMARK    1  A    between atoms: C_2  and  C_15
REMARK    2  A    between atoms: N_17  and  C_18
REMARK                            x       y       z     vdW  Elec       q    Type
REMARK                         _______ _______ _______ _____ _____    ______ ____
ROOT
ATOM      1  C   UNL     1       9.133  -0.362  23.978  0.00  0.00    +0.133 C 
ATOM      2  C   UNL     1       8.458   1.003  24.273  0.00  0.00    -0.020 A 
ATOM      3  C   UNL     1       8.222   1.952  23.242  0.00  0.00    -0.038 A 
ATOM      4  C   UNL     1       7.617   3.193  23.513  0.00  0.00    +0.053 A 
ATOM      5  C   UNL     1       7.287   3.482  24.815  0.00  0.00    +0.167 A 
ATOM      6  O   UNL     1       6.731   4.638  25.257  0.00  0.00    -0.453 OA
ATOM      7  C   UNL     1       6.731   4.405  26.681  0.00  0.00    +0.466 C 
ATOM      8  O   UNL     1       7.133   3.066  27.038  0.00  0.00    -0.453 OA
ATOM      9  C   UNL     1       7.525   2.588  25.826  0.00  0.00    +0.167 A 
ATOM     10  C   UNL     1       8.610   1.638  21.826  0.00  0.00    +0.051 C 
ATOM     11  C   UNL     1       9.750   0.635  21.799  0.00  0.00    +0.089 C 
ATOM     12  C   UNL     1       8.109   1.357  25.594  0.00  0.00    +0.055 A 
ATOM     13  N   UNL     1       9.414  -0.605  22.519  0.00  0.00    -0.295 NA
ATOM     14  C   UNL     1      10.539  -1.528  22.297  0.00  0.00    +0.105 C 
ENDROOT
BRANCH   1  15
ATOM     15  C   UNL     1       8.324  -1.539  24.669  0.00  0.00    +0.229 C 
ATOM     16  C   UNL     1       7.460  -2.355  23.766  0.00  0.00    +0.012 A 
ATOM     17  C   UNL     1       6.306  -1.889  23.152  0.00  0.00    +0.012 A 
ATOM     18  C   UNL     1       5.667  -2.785  22.323  0.00  0.00    +0.050 A 
ATOM     19  C   UNL     1       6.265  -4.027  22.212  0.00  0.00    +0.167 A 
ATOM     20  O   UNL     1       5.744  -4.992  21.379  0.00  0.00    -0.453 OA
ATOM     21  C   UNL     1       6.685  -6.079  21.574  0.00  0.00    +0.466 C 
ATOM     22  O   UNL     1       7.720  -5.783  22.540  0.00  0.00    -0.452 OA
ATOM     23  C   UNL     1       7.385  -4.502  22.853  0.00  0.00    +0.181 A 
ATOM     24  C   UNL     1       8.005  -3.637  23.723  0.00  0.00    +0.111 A 
ATOM     25  C   UNL     1       9.120  -3.778  24.593  0.00  0.00    +0.344 C 
ATOM     26  O   UNL     1       9.866  -4.711  24.846  0.00  0.00    -0.245 OA
ATOM     27  O   UNL     1       9.232  -2.543  25.221  0.00  0.00    -0.451 OA
ENDBRANCH   1  15
TORSDOF 1
ENDMDL
MODEL 2
REMARK VINA RESULT:      -8.1      1.942      2.333
REMARK  Name = 
REMARK  2 active torsions:
REMARK  status: ('A' for Active; 'I' for Inactive)
REMARK    1  A    between atoms: C_2  and  C_15
REMARK    2  A    between atoms: N_17  and  C_18
REMARK                            x       y       z     vdW  Elec       q    Type
REMARK                         _______ _______ _______ _____ _____    ______ ____
ROOT
ATOM      1  C   UNL     1       8.871  -1.394  24.871  0.00  0.00    +0.133 C 
ATOM      2  C   UNL     1       8.992   0.080  24.405  0.00  0.00    -0.020 A 
ATOM      3  C   UNL     1       9.599   0.418  23.166  0.00  0.00    -0.038 A 
ATOM      4  C   UNL     1       9.715   1.757  22.747  0.00  0.00    +0.053 A 
ATOM      5  C   UNL     1       9.253   2.740  23.589  0.00  0.00    +0.167 A 
ATOM      6  O   UNL     1       9.315   4.076  23.361  0.00  0.00    -0.453 OA
ATOM      7  C   UNL     1       8.801   4.583  24.610  0.00  0.00    +0.466 C 
ATOM      8  O   UNL     1       8.299   3.547  25.481  0.00  0.00    -0.453 OA
ATOM      9  C   UNL     1       8.683   2.434  24.797  0.00  0.00    +0.167 A 
ATOM     10  C   UNL     1      10.124  -0.661  22.265  0.00  0.00    +0.051 C 
ATOM     11  C   UNL     1      10.497  -1.892  23.073  0.00  0.00    +0.089 C 
ATOM     12  C   UNL     1       8.545   1.131  25.234  0.00  0.00    +0.055 A 
ATOM     13  N   UNL     1       9.362  -2.399  23.863  0.00  0.00    -0.295 NA
ATOM     14  C   UNL     1       9.818  -3.655  24.479  0.00  0.00    +0.105 C 
ENDROOT
BRANCH   1  15
ATOM     15  C   UNL     1       7.402  -1.689  25.393  0.00  0.00    +0.229 C 
ATOM     16  C   UNL     1       6.567  -2.572  24.526  0.00  0.00    +0.012 A 
ATOM     17  C   UNL     1       6.078  -2.210  23.278  0.00  0.00    +0.012 A 
ATOM     18  C   UNL     1       5.356  -3.180  22.616  0.00  0.00    +0.050 A 
ATOM     19  C   UNL     1       5.222  -4.384  23.282  0.00  0.00    +0.167 A 
ATOM     20  O   UNL     1       4.561  -5.444  22.702  0.00  0.00    -0.453 OA
ATOM     21  C   UNL     1       4.687  -6.459  23.732  0.00  0.00    +0.466 C 
ATOM     22  O   UNL     1       5.369  -5.998  24.920  0.00  0.00    -0.452 OA
ATOM     23  C   UNL     1       5.672  -4.728  24.535  0.00  0.00    +0.181 A 
ATOM     24  C   UNL     1       6.348  -3.754  25.231  0.00  0.00    +0.111 A 
ATOM     25  C   UNL     1       6.896  -3.709  26.541  0.00  0.00    +0.344 C 
ATOM     26  O   UNL     1       6.929  -4.515  27.459  0.00  0.00    -0.245 OA
ATOM     27  O   UNL     1       7.435  -2.433  26.652  0.00  0.00    -0.451 OA
ENDBRANCH   1  15
TORSDOF 1
ENDMDL
MODEL 3
REMARK VINA RESULT:      -7.9      2.121      6.979
REMARK  Name = 
REMARK  2 active torsions:
REMARK  status: ('A' for Active; 'I' for Inactive)
REMARK    1  A    between atoms: C_2  and  C_15
REMARK    2  A    between atoms: N_17  and  C_18
REMARK                            x       y       z     vdW  Elec       q    Type
REMARK                         _______ _______ _______ _____ _____    ______ ____
ROOT
ATOM      1  C   UNL     1       8.098  -1.770  24.621  0.00  0.00    +0.133 C 
ATOM      2  C   UNL     1       7.164  -2.786  23.913  0.00  0.00    -0.020 A 
ATOM      3  C   UNL     1       5.791  -2.896  24.258  0.00  0.00    -0.038 A 
ATOM      4  C   UNL     1       4.946  -3.824  23.620  0.00  0.00    +0.053 A 
ATOM      5  C   UNL     1       5.495  -4.650  22.669  0.00  0.00    +0.167 A 
ATOM      6  O   UNL     1       4.838  -5.619  21.983  0.00  0.00    -0.453 OA
ATOM      7  C   UNL     1       5.928  -6.207  21.243  0.00  0.00    +0.466 C 
ATOM      8  O   UNL     1       7.167  -5.478  21.381  0.00  0.00    -0.453 OA
ATOM      9  C   UNL     1       6.822  -4.572  22.336  0.00  0.00    +0.167 A 
ATOM     10  C   UNL     1       5.206  -2.007  25.317  0.00  0.00    +0.051 C 
ATOM     11  C   UNL     1       6.284  -1.564  26.292  0.00  0.00    +0.089 C 
ATOM     12  C   UNL     1       7.676  -3.667  22.936  0.00  0.00    +0.055 A 
ATOM     13  N   UNL     1       7.397  -0.880  25.612  0.00  0.00    -0.295 NA
ATOM     14  C   UNL     1       8.288  -0.389  26.675  0.00  0.00    +0.105 C 
ENDROOT
BRANCH   1  15
ATOM     15  C   UNL     1       8.957  -0.971  23.553  0.00  0.00    +0.229 C 
ATOM     16  C   UNL     1       8.499   0.418  23.255  0.00  0.00    +0.012 A 
ATOM     17  C   UNL     1       7.326   0.731  22.582  0.00  0.00    +0.012 A 
ATOM     18  C   UNL     1       7.061   2.076  22.438  0.00  0.00    +0.050 A 
ATOM     19  C   UNL     1       7.998   2.931  22.988  0.00  0.00    +0.167 A 
ATOM     20  O   UNL     1       7.820   4.297  22.947  0.00  0.00    -0.453 OA
ATOM     21  C   UNL     1       9.008   4.762  23.639  0.00  0.00    +0.466 C 
ATOM     22  O   UNL     1       9.898   3.697  24.043  0.00  0.00    -0.452 OA
ATOM     23  C   UNL     1       9.180   2.621  23.618  0.00  0.00    +0.181 A 
ATOM     24  C   UNL     1       9.485   1.285  23.723  0.00  0.00    +0.111 A 
ATOM     25  C   UNL     1      10.613   0.591  24.237  0.00  0.00    +0.344 C 
ATOM     26  O   UNL     1      11.665   0.963  24.735  0.00  0.00    -0.245 OA
ATOM     27  O   UNL     1      10.320  -0.752  24.036  0.00  0.00    -0.451 OA
ENDBRANCH   1  15
TORSDOF 1
ENDMDL
MODEL 4
REMARK VINA RESULT:      -7.7      4.654      6.679
REMARK  Name = 
REMARK  2 active torsions:
REMARK  status: ('A' for Active; 'I' for Inactive)
REMARK    1  A    between atoms: C_2  and  C_15
REMARK    2  A    between atoms: N_17  and  C_18
REMARK                            x       y       z     vdW  Elec       q    Type
REMARK                         _______ _______ _______ _____ _____    ______ ____
ROOT
ATOM      1  C   UNL     1       6.490  -5.227  25.147  0.00  0.00    +0.133 C 
ATOM      2  C   UNL     1       7.112  -4.131  24.243  0.00  0.00    -0.020 A 
ATOM      3  C   UNL     1       6.355  -3.493  23.224  0.00  0.00    -0.038 A 
ATOM      4  C   UNL     1       6.924  -2.504  22.400  0.00  0.00    +0.053 A 
ATOM      5  C   UNL     1       8.249  -2.191  22.584  0.00  0.00    +0.167 A 
ATOM      6  O   UNL     1       8.961  -1.291  21.861  0.00  0.00    -0.453 OA
ATOM      7  C   UNL     1      10.277  -1.481  22.422  0.00  0.00    +0.466 C 
ATOM      8  O   UNL     1      10.286  -2.364  23.565  0.00  0.00    -0.453 OA
ATOM      9  C   UNL     1       9.000  -2.809  23.549  0.00  0.00    +0.167 A 
ATOM     10  C   UNL     1       4.916  -3.861  23.013  0.00  0.00    +0.051 C 
ATOM     11  C   UNL     1       4.655  -5.280  23.487  0.00  0.00    +0.089 C 
ATOM     12  C   UNL     1       8.472  -3.777  24.382  0.00  0.00    +0.055 A 
ATOM     13  N   UNL     1       5.024  -5.467  24.900  0.00  0.00    -0.295 NA
ATOM     14  C   UNL     1       4.596  -6.828  25.261  0.00  0.00    +0.105 C 
ENDROOT
BRANCH   1  15
ATOM     15  C   UNL     1       6.836  -4.950  26.670  0.00  0.00    +0.229 C 
ATOM     16  C   UNL     1       5.787  -4.237  27.458  0.00  0.00    +0.012 A 
ATOM     17  C   UNL     1       5.433  -2.908  27.271  0.00  0.00    +0.012 A 
ATOM     18  C   UNL     1       4.414  -2.443  28.074  0.00  0.00    +0.050 A 
ATOM     19  C   UNL     1       3.880  -3.365  28.955  0.00  0.00    +0.167 A 
ATOM     20  O   UNL     1       2.827  -3.032  29.778  0.00  0.00    -0.453 OA
ATOM     21  C   UNL     1       2.607  -4.280  30.484  0.00  0.00    +0.466 C 
ATOM     22  O   UNL     1       3.540  -5.323  30.122  0.00  0.00    -0.452 OA
ATOM     23  C   UNL     1       4.260  -4.669  29.169  0.00  0.00    +0.181 A 
ATOM     24  C   UNL     1       5.309  -5.133  28.413  0.00  0.00    +0.111 A 
ATOM     25  C   UNL     1       6.010  -6.369  28.390  0.00  0.00    +0.344 C 
ATOM     26  O   UNL     1       5.906  -7.398  29.040  0.00  0.00    -0.245 OA
ATOM     27  O   UNL     1       6.982  -6.203  27.410  0.00  0.00    -0.451 OA
ENDBRANCH   1  15
TORSDOF 1
ENDMDL
MODEL 5
REMARK VINA RESULT:      -7.7      3.062      7.363
REMARK  Name = 
REMARK  2 active torsions:
REMARK  status: ('A' for Active; 'I' for Inactive)
REMARK    1  A    between atoms: C_2  and  C_15
REMARK    2  A    between atoms: N_17  and  C_18
REMARK                            x       y       z     vdW  Elec       q    Type
REMARK                         _______ _______ _______ _____ _____    ______ ____
ROOT
ATOM      1  C   UNL     1       7.462  -4.357  24.007  0.00  0.00    +0.133 C 
ATOM      2  C   UNL     1       6.273  -5.225  24.495  0.00  0.00    -0.020 A 
ATOM      3  C   UNL     1       6.183  -5.670  25.841  0.00  0.00    -0.038 A 
ATOM      4  C   UNL     1       5.107  -6.465  26.281  0.00  0.00    +0.053 A 
ATOM      5  C   UNL     1       4.155  -6.830  25.360  0.00  0.00    +0.167 A 
ATOM      6  O   UNL     1       3.075  -7.615  25.602  0.00  0.00    -0.453 OA
ATOM      7  C   UNL     1       2.532  -7.737  24.271  0.00  0.00    +0.466 C 
ATOM      8  O   UNL     1       3.201  -6.898  23.305  0.00  0.00    -0.453 OA
ATOM      9  C   UNL     1       4.235  -6.426  24.053  0.00  0.00    +0.167 A 
ATOM     10  C   UNL     1       7.243  -5.288  26.833  0.00  0.00    +0.051 C 
ATOM     11  C   UNL     1       8.559  -5.016  26.126  0.00  0.00    +0.089 C 
ATOM     12  C   UNL     1       5.271  -5.639  23.590  0.00  0.00    +0.055 A 
ATOM     13  N   UNL     1       8.428  -3.971  25.096  0.00  0.00    -0.295 NA
ATOM     14  C   UNL     1       9.787  -3.715  24.594  0.00  0.00    +0.105 C 
ENDROOT
BRANCH   1  15
ATOM     15  C   UNL     1       6.935  -3.121  23.165  0.00  0.00    +0.229 C 
ATOM     16  C   UNL     1       6.803  -1.833  23.908  0.00  0.00    +0.012 A 
ATOM     17  C   UNL     1       5.862  -1.591  24.899  0.00  0.00    +0.012 A 
ATOM     18  C   UNL     1       5.926  -0.350  25.493  0.00  0.00    +0.050 A 
ATOM     19  C   UNL     1       6.924   0.486  25.026  0.00  0.00    +0.167 A 
ATOM     20  O   UNL     1       7.117   1.735  25.573  0.00  0.00    -0.453 OA
ATOM     21  C   UNL     1       8.245   2.217  24.799  0.00  0.00    +0.466 C 
ATOM     22  O   UNL     1       8.687   1.292  23.780  0.00  0.00    -0.452 OA
ATOM     23  C   UNL     1       7.829   0.261  24.016  0.00  0.00    +0.181 A 
ATOM     24  C   UNL     1       7.745  -0.953  23.376  0.00  0.00    +0.111 A 
ATOM     25  C   UNL     1       8.445  -1.515  22.275  0.00  0.00    +0.344 C 
ATOM     26  O   UNL     1       9.330  -1.091  21.547  0.00  0.00    -0.245 OA
ATOM     27  O   UNL     1       7.877  -2.771  22.103  0.00  0.00    -0.451 OA
ENDBRANCH   1  15
TORSDOF 1
ENDMDL
MODEL 6
REMARK VINA RESULT:      -7.6      1.619      7.196
REMARK  Name = 
REMARK  2 active torsions:
REMARK  status: ('A' for Active; 'I' for Inactive)
REMARK    1  A    between atoms: C_2  and  C_15
REMARK    2  A    between atoms: N_17  and  C_18
REMARK                            x       y       z     vdW  Elec       q    Type
REMARK                         _______ _______ _______ _____ _____    ______ ____
ROOT
ATOM      1  C   UNL     1       8.065  -0.278  22.580  0.00  0.00    +0.133 C 
ATOM      2  C   UNL     1       7.645  -1.742  22.873  0.00  0.00    -0.020 A 
ATOM      3  C   UNL     1       8.492  -2.627  23.593  0.00  0.00    -0.038 A 
ATOM      4  C   UNL     1       8.112  -3.957  23.851  0.00  0.00    +0.053 A 
ATOM      5  C   UNL     1       6.907  -4.393  23.356  0.00  0.00    +0.167 A 
ATOM      6  O   UNL     1       6.402  -5.647  23.482  0.00  0.00    -0.453 OA
ATOM      7  C   UNL     1       5.206  -5.533  22.683  0.00  0.00    +0.466 C 
ATOM      8  O   UNL     1       4.945  -4.185  22.239  0.00  0.00    -0.453 OA
ATOM      9  C   UNL     1       6.085  -3.560  22.643  0.00  0.00    +0.167 A 
ATOM     10  C   UNL     1       9.819  -2.149  24.106  0.00  0.00    +0.051 C 
ATOM     11  C   UNL     1      10.334  -1.000  23.255  0.00  0.00    +0.089 C 
ATOM     12  C   UNL     1       6.422  -2.247  22.380  0.00  0.00    +0.055 A 
ATOM     13  N   UNL     1       9.379   0.119  23.200  0.00  0.00    -0.295 NA
ATOM     14  C   UNL     1      10.055   1.202  22.469  0.00  0.00    +0.105 C 
ENDROOT
BRANCH   1  15
ATOM     15  C   UNL     1       6.878   0.717  22.924  0.00  0.00    +0.229 C 
ATOM     16  C   UNL     1       6.993   1.445  24.222  0.00  0.00    +0.012 A 
ATOM     17  C   UNL     1       6.887   0.847  25.470  0.00  0.00    +0.012 A 
ATOM     18  C   UNL     1       7.060   1.684  26.551  0.00  0.00    +0.050 A 
ATOM     19  C   UNL     1       7.322   3.007  26.245  0.00  0.00    +0.167 A 
ATOM     20  O   UNL     1       7.557   3.931  27.239  0.00  0.00    -0.453 OA
ATOM     21  C   UNL     1       7.791   5.135  26.464  0.00  0.00    +0.466 C 
ATOM     22  O   UNL     1       7.653   4.942  25.038  0.00  0.00    -0.452 OA
ATOM     23  C   UNL     1       7.386   3.607  25.010  0.00  0.00    +0.181 A 
ATOM     24  C   UNL     1       7.163   2.796  23.923  0.00  0.00    +0.111 A 
ATOM     25  C   UNL     1       7.087   3.051  22.527  0.00  0.00    +0.344 C 
ATOM     26  O   UNL     1       7.184   4.071  21.860  0.00  0.00    -0.245 OA
ATOM     27  O   UNL     1       6.818   1.813  21.958  0.00  0.00    -0.451 OA
ENDBRANCH   1  15
TORSDOF 1
ENDMDL
MODEL 7
REMARK VINA RESULT:      -7.5      3.195      6.939
REMARK  Name = 
REMARK  2 active torsions:
REMARK  status: ('A' for Active; 'I' for Inactive)
REMARK    1  A    between atoms: C_2  and  C_15
REMARK    2  A    between atoms: N_17  and  C_18
REMARK                            x       y       z     vdW  Elec       q    Type
REMARK                         _______ _______ _______ _____ _____    ______ ____
ROOT
ATOM      1  C   UNL     1       6.467  -2.361  24.674  0.00  0.00    +0.133 C 
ATOM      2  C   UNL     1       6.613  -3.480  25.738  0.00  0.00    -0.020 A 
ATOM      3  C   UNL     1       7.467  -4.596  25.529  0.00  0.00    -0.038 A 
ATOM      4  C   UNL     1       7.593  -5.614  26.493  0.00  0.00    +0.053 A 
ATOM      5  C   UNL     1       6.837  -5.519  27.636  0.00  0.00    +0.167 A 
ATOM      6  O   UNL     1       6.810  -6.422  28.648  0.00  0.00    -0.453 OA
ATOM      7  C   UNL     1       5.777  -5.855  29.482  0.00  0.00    +0.466 C 
ATOM      8  O   UNL     1       5.333  -4.557  29.034  0.00  0.00    -0.453 OA
ATOM      9  C   UNL     1       5.993  -4.460  27.847  0.00  0.00    +0.167 A 
ATOM     10  C   UNL     1       8.269  -4.704  24.265  0.00  0.00    +0.051 C 
ATOM     11  C   UNL     1       7.588  -3.946  23.138  0.00  0.00    +0.089 C 
ATOM     12  C   UNL     1       5.853  -3.439  26.927  0.00  0.00    +0.055 A 
ATOM     13  N   UNL     1       7.367  -2.530  23.479  0.00  0.00    -0.295 NA
ATOM     14  C   UNL     1       6.835  -1.892  22.264  0.00  0.00    +0.105 C 
ENDROOT
BRANCH   1  15
ATOM     15  C   UNL     1       6.582  -0.933  25.355  0.00  0.00    +0.229 C 
ATOM     16  C   UNL     1       7.869  -0.207  25.135  0.00  0.00    +0.012 A 
ATOM     17  C   UNL     1       9.088  -0.591  25.675  0.00  0.00    +0.012 A 
ATOM     18  C   UNL     1      10.169   0.189  25.323  0.00  0.00    +0.050 A 
ATOM     19  C   UNL     1       9.892   1.246  24.476  0.00  0.00    +0.167 A 
ATOM     20  O   UNL     1      10.896   2.070  24.018  0.00  0.00    -0.453 OA
ATOM     21  C   UNL     1      10.154   2.988  23.175  0.00  0.00    +0.466 C 
ATOM     22  O   UNL     1       8.729   2.744  23.167  0.00  0.00    -0.452 OA
ATOM     23  C   UNL     1       8.677   1.650  23.974  0.00  0.00    +0.181 A 
ATOM     24  C   UNL     1       7.581   0.913  24.357  0.00  0.00    +0.111 A 
ATOM     25  C   UNL     1       6.190   1.051  24.105  0.00  0.00    +0.344 C 
ATOM     26  O   UNL     1       5.533   1.871  23.480  0.00  0.00    -0.245 OA
ATOM     27  O   UNL     1       5.603  -0.005  24.791  0.00  0.00    -0.451 OA
ENDBRANCH   1  15
TORSDOF 1
ENDMDL
MODEL 8
REMARK VINA RESULT:      -7.4      3.381      4.424
REMARK  Name = 
REMARK  2 active torsions:
REMARK  status: ('A' for Active; 'I' for Inactive)
REMARK    1  A    between atoms: C_2  and  C_15
REMARK    2  A    between atoms: N_17  and  C_18
REMARK                            x       y       z     vdW  Elec       q    Type
REMARK                         _______ _______ _______ _____ _____    ______ ____
ROOT
ATOM      1  C   UNL     1       8.678  -3.025  24.458  0.00  0.00    +0.133 C 
ATOM      2  C   UNL     1       8.889  -1.583  23.927  0.00  0.00    -0.020 A 
ATOM      3  C   UNL     1       8.169  -1.093  22.805  0.00  0.00    -0.038 A 
ATOM      4  C   UNL     1       8.367   0.213  22.320  0.00  0.00    +0.053 A 
ATOM      5  C   UNL     1       9.307   0.998  22.942  0.00  0.00    +0.167 A 
ATOM      6  O   UNL     1       9.648   2.263  22.587  0.00  0.00    -0.453 OA
ATOM      7  C   UNL     1      10.734   2.513  23.503  0.00  0.00    +0.466 C 
ATOM      8  O   UNL     1      10.906   1.464  24.481  0.00  0.00    -0.453 OA
ATOM      9  C   UNL     1      10.025   0.537  24.014  0.00  0.00    +0.167 A 
ATOM     10  C   UNL     1       7.163  -1.968  22.115  0.00  0.00    +0.051 C 
ATOM     11  C   UNL     1       7.509  -3.434  22.315  0.00  0.00    +0.089 C 
ATOM     12  C   UNL     1       9.849  -0.736  24.522  0.00  0.00    +0.055 A 
ATOM     13  N   UNL     1       7.598  -3.791  23.741  0.00  0.00    -0.295 NA
ATOM     14  C   UNL     1       7.798  -5.248  23.789  0.00  0.00    +0.105 C 
ENDROOT
BRANCH   1  15
ATOM     15  C   UNL     1       8.503  -3.013  26.035  0.00  0.00    +0.229 C 
ATOM     16  C   UNL     1       7.135  -2.691  26.537  0.00  0.00    +0.012 A 
ATOM     17  C   UNL     1       6.534  -1.444  26.436  0.00  0.00    +0.012 A 
ATOM     18  C   UNL     1       5.250  -1.358  26.927  0.00  0.00    +0.050 A 
ATOM     19  C   UNL     1       4.730  -2.528  27.449  0.00  0.00    +0.167 A 
ATOM     20  O   UNL     1       3.440  -2.579  27.929  0.00  0.00    -0.453 OA
ATOM     21  C   UNL     1       3.341  -3.966  28.342  0.00  0.00    +0.466 C 
ATOM     22  O   UNL     1       4.563  -4.715  28.155  0.00  0.00    -0.452 OA
ATOM     23  C   UNL     1       5.340  -3.753  27.587  0.00  0.00    +0.181 A 
ATOM     24  C   UNL     1       6.640  -3.842  27.150  0.00  0.00    +0.111 A 
ATOM     25  C   UNL     1       7.598  -4.891  27.178  0.00  0.00    +0.344 C 
ATOM     26  O   UNL     1       7.569  -6.034  27.608  0.00  0.00    -0.245 OA
ATOM     27  O   UNL     1       8.735  -4.343  26.597  0.00  0.00    -0.451 OA
ENDBRANCH   1  15
TORSDOF 1
ENDMDL
MODEL 9
REMARK VINA RESULT:      -7.1      2.508      7.122
REMARK  Name = 
REMARK  2 active torsions:
REMARK  status: ('A' for Active; 'I' for Inactive)
REMARK    1  A    between atoms: C_2  and  C_15
REMARK    2  A    between atoms: N_17  and  C_18
REMARK                            x       y       z     vdW  Elec       q    Type
REMARK                         _______ _______ _______ _____ _____    ______ ____
ROOT
ATOM      1  C   UNL     1       7.856  -0.124  23.183  0.00  0.00    +0.133 C 
ATOM      2  C   UNL     1       8.225  -1.405  23.974  0.00  0.00    -0.020 A 
ATOM      3  C   UNL     1       9.444  -2.097  23.739  0.00  0.00    -0.038 A 
ATOM      4  C   UNL     1       9.774  -3.264  24.453  0.00  0.00    +0.053 A 
ATOM      5  C   UNL     1       8.866  -3.741  25.367  0.00  0.00    +0.167 A 
ATOM      6  O   UNL     1       9.007  -4.865  26.115  0.00  0.00    -0.453 OA
ATOM      7  C   UNL     1       7.724  -4.908  26.774  0.00  0.00    +0.466 C 
ATOM      8  O   UNL     1       6.920  -3.734  26.530  0.00  0.00    -0.453 OA
ATOM      9  C   UNL     1       7.677  -3.099  25.594  0.00  0.00    +0.167 A 
ATOM     10  C   UNL     1      10.417  -1.582  22.719  0.00  0.00    +0.051 C 
ATOM     11  C   UNL     1       9.694  -0.772  21.657  0.00  0.00    +0.089 C 
ATOM     12  C   UNL     1       7.325  -1.947  24.918  0.00  0.00    +0.055 A 
ATOM     13  N   UNL     1       8.931   0.346  22.239  0.00  0.00    -0.295 NA
ATOM     14  C   UNL     1       8.401   1.118  21.104  0.00  0.00    +0.105 C 
ENDROOT
BRANCH   1  15
ATOM     15  C   UNL     1       7.344   1.007  24.170  0.00  0.00    +0.229 C 
ATOM     16  C   UNL     1       7.965   2.354  23.996  0.00  0.00    +0.012 A 
ATOM     17  C   UNL     1       9.286   2.654  24.296  0.00  0.00    +0.012 A 
ATOM     18  C   UNL     1       9.680   3.948  24.031  0.00  0.00    +0.050 A 
ATOM     19  C   UNL     1       8.706   4.771  23.496  0.00  0.00    +0.167 A 
ATOM     20  O   UNL     1       8.990   6.072  23.146  0.00  0.00    -0.453 OA
ATOM     21  C   UNL     1       7.710   6.519  22.632  0.00  0.00    +0.466 C 
ATOM     22  O   UNL     1       6.670   5.518  22.716  0.00  0.00    -0.452 OA
ATOM     23  C   UNL     1       7.386   4.484  23.237  0.00  0.00    +0.181 A 
ATOM     24  C   UNL     1       6.963   3.213  23.546  0.00  0.00    +0.111 A 
ATOM     25  C   UNL     1       5.695   2.576  23.483  0.00  0.00    +0.344 C 
ATOM     26  O   UNL     1       4.585   2.960  23.146  0.00  0.00    -0.245 OA
ATOM     27  O   UNL     1       5.926   1.289  23.954  0.00  0.00    -0.451 OA
ENDBRANCH   1  15
TORSDOF 1
ENDMDL
