MODEL 1
REMARK VINA RESULT:      -7.1      0.000      0.000
REMARK  Name = 
REMARK  4 active torsions:
REMARK  status: ('A' for Active; 'I' for Inactive)
REMARK    1  A    between atoms: C_1  and  C_2
REMARK    2  A    between atoms: N_4  and  C_5
REMARK    3  A    between atoms: C_9  and  C_10
REMARK    4  A    between atoms: N_12  and  C_13
REMARK                            x       y       z     vdW  Elec       q    Type
REMARK                         _______ _______ _______ _____ _____    ______ ____
ROOT
ATOM      1  C   UNL     1       7.192  -4.982  25.116  0.00  0.00    +0.084 A 
ATOM      2  C   UNL     1       8.380  -4.315  25.540  0.00  0.00    +0.168 A 
ATOM      3  N   UNL     1       8.683  -4.610  26.822  0.00  0.00    -0.167 NA
ATOM      4  N   UNL     1       7.759  -5.528  27.161  0.00  0.00    -0.282 N 
ATOM      5  H   UNL     1       7.816  -5.959  28.079  0.00  0.00    +0.188 HD
ATOM      6  C   UNL     1       6.841  -5.764  26.189  0.00  0.00    +0.129 A 
ENDROOT
BRANCH   1   9
ATOM      7  C   UNL     1       6.214  -5.018  21.504  0.00  0.00    +0.109 C 
ATOM      8  C   UNL     1       7.030  -5.396  22.714  0.00  0.00    +0.214 C 
ATOM      9  N   UNL     1       6.537  -4.885  23.895  0.00  0.00    -0.283 N 
ATOM     10  H   UNL     1       5.604  -4.481  23.923  0.00  0.00    +0.155 HD
ATOM     11  O   UNL     1       8.037  -6.085  22.585  0.00  0.00    -0.276 OA
ENDBRANCH   1   9
BRANCH   2  12
ATOM     12  C   UNL     1       9.200  -3.381  24.756  0.00  0.00    +0.270 C 
ATOM     13  N   UNL     1       8.622  -2.126  24.633  0.00  0.00    -0.280 N 
ATOM     14  H   UNL     1       7.638  -2.090  24.889  0.00  0.00    +0.155 HD
ATOM     15  O   UNL     1      10.237  -3.746  24.213  0.00  0.00    -0.268 OA
BRANCH  13  16
ATOM     16  C   UNL     1       9.171  -1.095  23.855  0.00  0.00    +0.034 A 
ATOM     17  C   UNL     1       8.920  -1.014  22.480  0.00  0.00    +0.026 A 
ATOM     18  C   UNL     1       9.402   0.066  21.742  0.00  0.00    +0.040 A 
ATOM     19  C   UNL     1      10.113   1.070  22.387  0.00  0.00    +0.124 A 
ATOM     20  F   UNL     1      10.519   2.140  21.693  0.00  0.00    -0.205 F 
ATOM     21  C   UNL     1      10.403   0.981  23.745  0.00  0.00    +0.040 A 
ATOM     22  C   UNL     1       9.961  -0.124  24.478  0.00  0.00    +0.026 A 
ENDBRANCH  13  16
ENDBRANCH   2  12
TORSDOF 3
ENDMDL
MODEL 2
REMARK VINA RESULT:      -7.0      1.830      3.219
REMARK  Name = 
REMARK  4 active torsions:
REMARK  status: ('A' for Active; 'I' for Inactive)
REMARK    1  A    between atoms: C_1  and  C_2
REMARK    2  A    between atoms: N_4  and  C_5
REMARK    3  A    between atoms: C_9  and  C_10
REMARK    4  A    between atoms: N_12  and  C_13
REMARK                            x       y       z     vdW  Elec       q    Type
REMARK                         _______ _______ _______ _____ _____    ______ ____
ROOT
ATOM      1  C   UNL     1       6.426  -5.208  23.399  0.00  0.00    +0.084 A 
ATOM      2  C   UNL     1       6.485  -4.223  22.367  0.00  0.00    +0.168 A 
ATOM      3  N   UNL     1       6.065  -4.721  21.184  0.00  0.00    -0.167 NA
ATOM      4  N   UNL     1       5.651  -5.963  21.493  0.00  0.00    -0.282 N 
ATOM      5  H   UNL     1       5.225  -6.528  20.766  0.00  0.00    +0.188 HD
ATOM      6  C   UNL     1       5.866  -6.303  22.790  0.00  0.00    +0.129 A 
ENDROOT
BRANCH   1   9
ATOM      7  C   UNL     1       8.307  -5.124  26.633  0.00  0.00    +0.109 C 
ATOM      8  C   UNL     1       8.141  -5.095  25.135  0.00  0.00    +0.214 C 
ATOM      9  N   UNL     1       6.825  -5.093  24.724  0.00  0.00    -0.283 N 
ATOM     10  H   UNL     1       6.083  -4.916  25.397  0.00  0.00    +0.155 HD
ATOM     11  O   UNL     1       9.128  -5.090  24.407  0.00  0.00    -0.276 OA
ENDBRANCH   1   9
BRANCH   2  12
ATOM     12  C   UNL     1       6.968  -2.841  22.488  0.00  0.00    +0.270 C 
ATOM     13  N   UNL     1       8.352  -2.747  22.471  0.00  0.00    -0.280 N 
ATOM     14  H   UNL     1       8.834  -3.632  22.611  0.00  0.00    +0.155 HD
ATOM     15  O   UNL     1       6.192  -1.909  22.671  0.00  0.00    -0.268 OA
BRANCH  13  16
ATOM     16  C   UNL     1       9.048  -1.544  22.663  0.00  0.00    +0.034 A 
ATOM     17  C   UNL     1       9.219  -0.632  21.616  0.00  0.00    +0.026 A 
ATOM     18  C   UNL     1       9.837   0.596  21.849  0.00  0.00    +0.040 A 
ATOM     19  C   UNL     1      10.262   0.912  23.133  0.00  0.00    +0.124 A 
ATOM     20  F   UNL     1      10.795   2.116  23.373  0.00  0.00    -0.205 F 
ATOM     21  C   UNL     1      10.134  -0.003  24.174  0.00  0.00    +0.040 A 
ATOM     22  C   UNL     1       9.557  -1.252  23.933  0.00  0.00    +0.026 A 
ENDBRANCH  13  16
ENDBRANCH   2  12
TORSDOF 3
ENDMDL
MODEL 3
REMARK VINA RESULT:      -6.4      1.871      3.075
REMARK  Name = 
REMARK  4 active torsions:
REMARK  status: ('A' for Active; 'I' for Inactive)
REMARK    1  A    between atoms: C_1  and  C_2
REMARK    2  A    between atoms: N_4  and  C_5
REMARK    3  A    between atoms: C_9  and  C_10
REMARK    4  A    between atoms: N_12  and  C_13
REMARK                            x       y       z     vdW  Elec       q    Type
REMARK                         _______ _______ _______ _____ _____    ______ ____
ROOT
ATOM      1  C   UNL     1       5.949  -5.418  24.206  0.00  0.00    +0.084 A 
ATOM      2  C   UNL     1       7.142  -5.137  23.474  0.00  0.00    +0.168 A 
ATOM      3  N   UNL     1       7.202  -5.853  22.331  0.00  0.00    -0.167 NA
ATOM      4  N   UNL     1       6.019  -6.492  22.296  0.00  0.00    -0.282 N 
ATOM      5  H   UNL     1       5.795  -7.057  21.484  0.00  0.00    +0.188 HD
ATOM      6  C   UNL     1       5.252  -6.281  23.397  0.00  0.00    +0.129 A 
ENDROOT
BRANCH   1   9
ATOM      7  C   UNL     1       5.419  -4.766  27.852  0.00  0.00    +0.109 C 
ATOM      8  C   UNL     1       6.123  -5.321  26.640  0.00  0.00    +0.214 C 
ATOM      9  N   UNL     1       5.561  -4.926  25.445  0.00  0.00    -0.283 N 
ATOM     10  H   UNL     1       4.878  -4.173  25.430  0.00  0.00    +0.155 HD
ATOM     11  O   UNL     1       7.092  -6.060  26.777  0.00  0.00    -0.276 OA
ENDBRANCH   1   9
BRANCH   2  12
ATOM     12  C   UNL     1       8.230  -4.231  23.868  0.00  0.00    +0.270 C 
ATOM     13  N   UNL     1       7.951  -2.900  23.597  0.00  0.00    -0.280 N 
ATOM     14  H   UNL     1       7.163  -2.755  22.970  0.00  0.00    +0.155 HD
ATOM     15  O   UNL     1       9.291  -4.664  24.306  0.00  0.00    -0.268 OA
BRANCH  13  16
ATOM     16  C   UNL     1       8.872  -1.860  23.798  0.00  0.00    +0.034 A 
ATOM     17  C   UNL     1       9.676  -1.393  22.752  0.00  0.00    +0.026 A 
ATOM     18  C   UNL     1      10.521  -0.302  22.951  0.00  0.00    +0.040 A 
ATOM     19  C   UNL     1      10.540   0.329  24.188  0.00  0.00    +0.124 A 
ATOM     20  F   UNL     1      11.300   1.418  24.361  0.00  0.00    -0.205 F 
ATOM     21  C   UNL     1       9.775  -0.150  25.247  0.00  0.00    +0.040 A 
ATOM     22  C   UNL     1       8.962  -1.272  25.064  0.00  0.00    +0.026 A 
ENDBRANCH  13  16
ENDBRANCH   2  12
TORSDOF 3
ENDMDL
MODEL 4
REMARK VINA RESULT:      -6.3      2.063      2.499
REMARK  Name = 
REMARK  4 active torsions:
REMARK  status: ('A' for Active; 'I' for Inactive)
REMARK    1  A    between atoms: C_1  and  C_2
REMARK    2  A    between atoms: N_4  and  C_5
REMARK    3  A    between atoms: C_9  and  C_10
REMARK    4  A    between atoms: N_12  and  C_13
REMARK                            x       y       z     vdW  Elec       q    Type
REMARK                         _______ _______ _______ _____ _____    ______ ____
ROOT
ATOM      1  C   UNL     1       8.011  -4.399  24.968  0.00  0.00    +0.084 A 
ATOM      2  C   UNL     1       9.296  -3.889  24.612  0.00  0.00    +0.168 A 
ATOM      3  N   UNL     1      10.285  -4.718  25.008  0.00  0.00    -0.167 NA
ATOM      4  N   UNL     1       9.626  -5.779  25.509  0.00  0.00    -0.282 N 
ATOM      5  H   UNL     1      10.162  -6.582  25.821  0.00  0.00    +0.188 HD
ATOM      6  C   UNL     1       8.276  -5.625  25.526  0.00  0.00    +0.129 A 
ENDROOT
BRANCH   1   9
ATOM      7  C   UNL     1       4.833  -2.449  25.280  0.00  0.00    +0.109 C 
ATOM      8  C   UNL     1       6.266  -2.806  25.584  0.00  0.00    +0.214 C 
ATOM      9  N   UNL     1       6.768  -3.809  24.784  0.00  0.00    -0.283 N 
ATOM     10  H   UNL     1       6.258  -4.098  23.953  0.00  0.00    +0.155 HD
ATOM     11  O   UNL     1       6.865  -2.226  26.484  0.00  0.00    -0.276 OA
ENDBRANCH   1   9
BRANCH   2  12
ATOM     12  C   UNL     1       9.589  -2.616  23.939  0.00  0.00    +0.270 C 
ATOM     13  N   UNL     1       9.338  -1.511  24.739  0.00  0.00    -0.280 N 
ATOM     14  H   UNL     1       8.782  -1.710  25.568  0.00  0.00    +0.155 HD
ATOM     15  O   UNL     1       9.933  -2.582  22.763  0.00  0.00    -0.268 OA
BRANCH  13  16
ATOM     16  C   UNL     1       9.454  -0.187  24.288  0.00  0.00    +0.034 A 
ATOM     17  C   UNL     1       8.354   0.494  23.753  0.00  0.00    +0.026 A 
ATOM     18  C   UNL     1       8.468   1.836  23.392  0.00  0.00    +0.040 A 
ATOM     19  C   UNL     1       9.675   2.494  23.588  0.00  0.00    +0.124 A 
ATOM     20  F   UNL     1       9.768   3.799  23.305  0.00  0.00    -0.205 F 
ATOM     21  C   UNL     1      10.787   1.817  24.081  0.00  0.00    +0.040 A 
ATOM     22  C   UNL     1      10.688   0.461  24.401  0.00  0.00    +0.026 A 
ENDBRANCH  13  16
ENDBRANCH   2  12
TORSDOF 3
ENDMDL
MODEL 5
REMARK VINA RESULT:      -6.3      3.550      6.400
REMARK  Name = 
REMARK  4 active torsions:
REMARK  status: ('A' for Active; 'I' for Inactive)
REMARK    1  A    between atoms: C_1  and  C_2
REMARK    2  A    between atoms: N_4  and  C_5
REMARK    3  A    between atoms: C_9  and  C_10
REMARK    4  A    between atoms: N_12  and  C_13
REMARK                            x       y       z     vdW  Elec       q    Type
REMARK                         _______ _______ _______ _____ _____    ______ ____
ROOT
ATOM      1  C   UNL     1       9.628   0.837  23.751  0.00  0.00    +0.084 A 
ATOM      2  C   UNL     1       9.388   0.205  22.494  0.00  0.00    +0.168 A 
ATOM      3  N   UNL     1       9.365   1.102  21.485  0.00  0.00    -0.167 NA
ATOM      4  N   UNL     1       9.690   2.261  22.086  0.00  0.00    -0.282 N 
ATOM      5  H   UNL     1       9.801   3.091  21.513  0.00  0.00    +0.188 HD
ATOM      6  C   UNL     1       9.834   2.156  23.433  0.00  0.00    +0.129 A 
ENDROOT
BRANCH   1   9
ATOM      7  C   UNL     1       8.830  -0.621  27.104  0.00  0.00    +0.109 C 
ATOM      8  C   UNL     1       8.548  -0.188  25.688  0.00  0.00    +0.214 C 
ATOM      9  N   UNL     1       9.664   0.260  25.014  0.00  0.00    -0.283 N 
ATOM     10  H   UNL     1      10.590   0.097  25.401  0.00  0.00    +0.155 HD
ATOM     11  O   UNL     1       7.405  -0.242  25.245  0.00  0.00    -0.276 OA
ENDBRANCH   1   9
BRANCH   2  12
ATOM     12  C   UNL     1       9.145  -1.225  22.253  0.00  0.00    +0.270 C 
ATOM     13  N   UNL     1       7.865  -1.623  22.607  0.00  0.00    -0.280 N 
ATOM     14  H   UNL     1       7.361  -0.954  23.185  0.00  0.00    +0.155 HD
ATOM     15  O   UNL     1      10.040  -1.964  21.860  0.00  0.00    -0.268 OA
BRANCH  13  16
ATOM     16  C   UNL     1       7.427  -2.956  22.555  0.00  0.00    +0.034 A 
ATOM     17  C   UNL     1       6.513  -3.380  21.584  0.00  0.00    +0.026 A 
ATOM     18  C   UNL     1       6.159  -4.725  21.494  0.00  0.00    +0.040 A 
ATOM     19  C   UNL     1       6.737  -5.642  22.363  0.00  0.00    +0.124 A 
ATOM     20  F   UNL     1       6.449  -6.943  22.235  0.00  0.00    -0.205 F 
ATOM     21  C   UNL     1       7.616  -5.227  23.359  0.00  0.00    +0.040 A 
ATOM     22  C   UNL     1       7.938  -3.872  23.480  0.00  0.00    +0.026 A 
ENDBRANCH  13  16
ENDBRANCH   2  12
TORSDOF 3
ENDMDL
MODEL 6
REMARK VINA RESULT:      -6.1      2.116      2.719
REMARK  Name = 
REMARK  4 active torsions:
REMARK  status: ('A' for Active; 'I' for Inactive)
REMARK    1  A    between atoms: C_1  and  C_2
REMARK    2  A    between atoms: N_4  and  C_5
REMARK    3  A    between atoms: C_9  and  C_10
REMARK    4  A    between atoms: N_12  and  C_13
REMARK                            x       y       z     vdW  Elec       q    Type
REMARK                         _______ _______ _______ _____ _____    ______ ____
ROOT
ATOM      1  C   UNL     1       5.718  -5.993  26.161  0.00  0.00    +0.084 A 
ATOM      2  C   UNL     1       7.032  -5.498  26.417  0.00  0.00    +0.168 A 
ATOM      3  N   UNL     1       7.400  -5.708  27.699  0.00  0.00    -0.167 NA
ATOM      4  N   UNL     1       6.376  -6.416  28.209  0.00  0.00    -0.282 N 
ATOM      5  H   UNL     1       6.446  -6.755  29.163  0.00  0.00    +0.188 HD
ATOM      6  C   UNL     1       5.346  -6.590  27.340  0.00  0.00    +0.129 A 
ENDROOT
BRANCH   1   9
ATOM      7  C   UNL     1       3.462  -4.982  23.352  0.00  0.00    +0.109 C 
ATOM      8  C   UNL     1       4.329  -4.770  24.567  0.00  0.00    +0.214 C 
ATOM      9  N   UNL     1       4.978  -5.910  24.989  0.00  0.00    -0.283 N 
ATOM     10  H   UNL     1       5.006  -6.730  24.389  0.00  0.00    +0.155 HD
ATOM     11  O   UNL     1       4.393  -3.662  25.090  0.00  0.00    -0.276 OA
ENDBRANCH   1   9
BRANCH   2  12
ATOM     12  C   UNL     1       7.917  -4.801  25.472  0.00  0.00    +0.270 C 
ATOM     13  N   UNL     1       7.549  -3.481  25.260  0.00  0.00    -0.280 N 
ATOM     14  H   UNL     1       6.616  -3.246  25.590  0.00  0.00    +0.155 HD
ATOM     15  O   UNL     1       8.819  -5.394  24.890  0.00  0.00    -0.268 OA
BRANCH  13  16
ATOM     16  C   UNL     1       8.185  -2.640  24.333  0.00  0.00    +0.034 A 
ATOM     17  C   UNL     1       9.243  -1.809  24.716  0.00  0.00    +0.026 A 
ATOM     18  C   UNL     1       9.917  -1.047  23.763  0.00  0.00    +0.040 A 
ATOM     19  C   UNL     1       9.542  -1.138  22.428  0.00  0.00    +0.124 A 
ATOM     20  F   UNL     1      10.231  -0.460  21.503  0.00  0.00    -0.205 F 
ATOM     21  C   UNL     1       8.466  -1.931  22.040  0.00  0.00    +0.040 A 
ATOM     22  C   UNL     1       7.759  -2.659  23.000  0.00  0.00    +0.026 A 
ENDBRANCH  13  16
ENDBRANCH   2  12
TORSDOF 3
ENDMDL
MODEL 7
REMARK VINA RESULT:      -5.9      2.361      2.796
REMARK  Name = 
REMARK  4 active torsions:
REMARK  status: ('A' for Active; 'I' for Inactive)
REMARK    1  A    between atoms: C_1  and  C_2
REMARK    2  A    between atoms: N_4  and  C_5
REMARK    3  A    between atoms: C_9  and  C_10
REMARK    4  A    between atoms: N_12  and  C_13
REMARK                            x       y       z     vdW  Elec       q    Type
REMARK                         _______ _______ _______ _____ _____    ______ ____
ROOT
ATOM      1  C   UNL     1       6.354  -4.468  26.395  0.00  0.00    +0.084 A 
ATOM      2  C   UNL     1       7.591  -4.082  25.797  0.00  0.00    +0.168 A 
ATOM      3  N   UNL     1       8.624  -4.800  26.289  0.00  0.00    -0.167 NA
ATOM      4  N   UNL     1       8.029  -5.692  27.102  0.00  0.00    -0.282 N 
ATOM      5  H   UNL     1       8.602  -6.399  27.551  0.00  0.00    +0.188 HD
ATOM      6  C   UNL     1       6.686  -5.519  27.214  0.00  0.00    +0.129 A 
ENDROOT
BRANCH   1   9
ATOM      7  C   UNL     1       3.187  -2.480  26.547  0.00  0.00    +0.109 C 
ATOM      8  C   UNL     1       4.644  -2.771  26.801  0.00  0.00    +0.214 C 
ATOM      9  N   UNL     1       5.092  -3.924  26.193  0.00  0.00    -0.283 N 
ATOM     10  H   UNL     1       4.520  -4.382  25.488  0.00  0.00    +0.155 HD
ATOM     11  O   UNL     1       5.308  -2.016  27.504  0.00  0.00    -0.276 OA
ENDBRANCH   1   9
BRANCH   2  12
ATOM     12  C   UNL     1       7.802  -3.022  24.802  0.00  0.00    +0.270 C 
ATOM     13  N   UNL     1       9.096  -2.523  24.809  0.00  0.00    -0.280 N 
ATOM     14  H   UNL     1       9.641  -2.779  25.629  0.00  0.00    +0.155 HD
ATOM     15  O   UNL     1       6.876  -2.597  24.120  0.00  0.00    -0.268 OA
BRANCH  13  16
ATOM     16  C   UNL     1       9.514  -1.445  24.013  0.00  0.00    +0.034 A 
ATOM     17  C   UNL     1       9.521  -1.536  22.617  0.00  0.00    +0.026 A 
ATOM     18  C   UNL     1       9.855  -0.426  21.843  0.00  0.00    +0.040 A 
ATOM     19  C   UNL     1      10.160   0.776  22.471  0.00  0.00    +0.124 A 
ATOM     20  F   UNL     1      10.416   1.860  21.729  0.00  0.00    -0.205 F 
ATOM     21  C   UNL     1      10.195   0.868  23.859  0.00  0.00    +0.040 A 
ATOM     22  C   UNL     1       9.905  -0.255  24.637  0.00  0.00    +0.026 A 
ENDBRANCH  13  16
ENDBRANCH   2  12
TORSDOF 3
ENDMDL
MODEL 8
REMARK VINA RESULT:      -5.9      2.097      2.942
REMARK  Name = 
REMARK  4 active torsions:
REMARK  status: ('A' for Active; 'I' for Inactive)
REMARK    1  A    between atoms: C_1  and  C_2
REMARK    2  A    between atoms: N_4  and  C_5
REMARK    3  A    between atoms: C_9  and  C_10
REMARK    4  A    between atoms: N_12  and  C_13
REMARK                            x       y       z     vdW  Elec       q    Type
REMARK                         _______ _______ _______ _____ _____    ______ ____
ROOT
ATOM      1  C   UNL     1       6.538  -4.303  24.438  0.00  0.00    +0.084 A 
ATOM      2  C   UNL     1       7.604  -4.031  23.529  0.00  0.00    +0.168 A 
ATOM      3  N   UNL     1       7.633  -4.925  22.517  0.00  0.00    -0.167 NA
ATOM      4  N   UNL     1       6.541  -5.680  22.733  0.00  0.00    -0.282 N 
ATOM      5  H   UNL     1       6.305  -6.399  22.056  0.00  0.00    +0.188 HD
ATOM      6  C   UNL     1       5.873  -5.363  23.872  0.00  0.00    +0.129 A 
ENDROOT
BRANCH   1   9
ATOM      7  C   UNL     1       5.513  -1.847  27.068  0.00  0.00    +0.109 C 
ATOM      8  C   UNL     1       5.593  -2.422  25.677  0.00  0.00    +0.214 C 
ATOM      9  N   UNL     1       6.224  -3.647  25.621  0.00  0.00    -0.283 N 
ATOM     10  H   UNL     1       6.408  -4.163  26.477  0.00  0.00    +0.155 HD
ATOM     11  O   UNL     1       5.133  -1.798  24.727  0.00  0.00    -0.276 OA
ENDBRANCH   1   9
BRANCH   2  12
ATOM     12  C   UNL     1       8.606  -2.961  23.633  0.00  0.00    +0.270 C 
ATOM     13  N   UNL     1       8.098  -1.711  23.316  0.00  0.00    -0.280 N 
ATOM     14  H   UNL     1       7.198  -1.731  22.842  0.00  0.00    +0.155 HD
ATOM     15  O   UNL     1       9.779  -3.211  23.892  0.00  0.00    -0.268 OA
BRANCH  13  16
ATOM     16  C   UNL     1       8.884  -0.549  23.254  0.00  0.00    +0.034 A 
ATOM     17  C   UNL     1       9.251   0.012  22.025  0.00  0.00    +0.026 A 
ATOM     18  C   UNL     1       9.958   1.213  21.985  0.00  0.00    +0.040 A 
ATOM     19  C   UNL     1      10.274   1.857  23.175  0.00  0.00    +0.124 A 
ATOM     20  F   UNL     1      10.893   3.043  23.137  0.00  0.00    -0.205 F 
ATOM     21  C   UNL     1       9.950   1.289  24.403  0.00  0.00    +0.040 A 
ATOM     22  C   UNL     1       9.283   0.063  24.447  0.00  0.00    +0.026 A 
ENDBRANCH  13  16
ENDBRANCH   2  12
TORSDOF 3
ENDMDL
MODEL 9
REMARK VINA RESULT:      -5.8      4.075      7.099
REMARK  Name = 
REMARK  4 active torsions:
REMARK  status: ('A' for Active; 'I' for Inactive)
REMARK    1  A    between atoms: C_1  and  C_2
REMARK    2  A    between atoms: N_4  and  C_5
REMARK    3  A    between atoms: C_9  and  C_10
REMARK    4  A    between atoms: N_12  and  C_13
REMARK                            x       y       z     vdW  Elec       q    Type
REMARK                         _______ _______ _______ _____ _____    ______ ____
ROOT
ATOM      1  C   UNL     1       9.149   1.990  23.797  0.00  0.00    +0.084 A 
ATOM      2  C   UNL     1       8.953   0.774  23.076  0.00  0.00    +0.168 A 
ATOM      3  N   UNL     1       9.486   0.840  21.837  0.00  0.00    -0.167 NA
ATOM      4  N   UNL     1      10.097   2.039  21.821  0.00  0.00    -0.282 N 
ATOM      5  H   UNL     1      10.634   2.300  21.001  0.00  0.00    +0.188 HD
ATOM      6  C   UNL     1       9.906   2.765  22.953  0.00  0.00    +0.129 A 
ENDROOT
BRANCH   1   9
ATOM      7  C   UNL     1       7.301   3.335  26.759  0.00  0.00    +0.109 C 
ATOM      8  C   UNL     1       7.487   2.931  25.319  0.00  0.00    +0.214 C 
ATOM      9  N   UNL     1       8.697   2.322  25.067  0.00  0.00    -0.283 N 
ATOM     10  H   UNL     1       9.279   2.010  25.840  0.00  0.00    +0.155 HD
ATOM     11  O   UNL     1       6.607   3.167  24.497  0.00  0.00    -0.276 OA
ENDBRANCH   1   9
BRANCH   2  12
ATOM     12  C   UNL     1       8.237  -0.425  23.537  0.00  0.00    +0.270 C 
ATOM     13  N   UNL     1       8.130  -1.401  22.559  0.00  0.00    -0.280 N 
ATOM     14  H   UNL     1       8.344  -1.078  21.617  0.00  0.00    +0.155 HD
ATOM     15  O   UNL     1       7.729  -0.472  24.653  0.00  0.00    -0.268 OA
BRANCH  13  16
ATOM     16  C   UNL     1       7.412  -2.595  22.732  0.00  0.00    +0.034 A 
ATOM     17  C   UNL     1       8.026  -3.740  23.249  0.00  0.00    +0.026 A 
ATOM     18  C   UNL     1       7.275  -4.889  23.496  0.00  0.00    +0.040 A 
ATOM     19  C   UNL     1       5.910  -4.877  23.242  0.00  0.00    +0.124 A 
ATOM     20  F   UNL     1       5.175  -5.955  23.540  0.00  0.00    -0.205 F 
ATOM     21  C   UNL     1       5.294  -3.757  22.689  0.00  0.00    +0.040 A 
ATOM     22  C   UNL     1       6.054  -2.621  22.399  0.00  0.00    +0.026 A 
ENDBRANCH  13  16
ENDBRANCH   2  12
TORSDOF 3
ENDMDL
