MODEL 1
REMARK VINA RESULT:      -6.9      0.000      0.000
REMARK  Name = 
REMARK  11 active torsions:
REMARK  status: ('A' for Active; 'I' for Inactive)
REMARK    1  A    between atoms: C_1  and  C_2
REMARK    2  A    between atoms: C_2  and  N_3
REMARK    3  A    between atoms: N_6  and  C_7
REMARK    4  A    between atoms: C_7  and  C_8
REMARK    5  A    between atoms: C_8  and  N_9
REMARK    6  A    between atoms: C_12  and  N_18
REMARK    7  A    between atoms: C_14  and  C_16
REMARK    8  A    between atoms: N_18  and  C_24
REMARK    9  A    between atoms: C_19  and  C_21
REMARK   10  A    between atoms: C_21  and  O_22
REMARK   11  A    between atoms: O_22  and  C_23
REMARK                            x       y       z     vdW  Elec       q    Type
REMARK                         _______ _______ _______ _____ _____    ______ ____
ROOT
ATOM      1  N   UNL     1       8.975  -0.538  23.125  0.00  0.00    -0.300 NA
ATOM      2  C   UNL     1       8.407  -0.302  24.464  0.00  0.00    +0.089 C 
ATOM      3  C   UNL     1       9.008  -1.219  25.538  0.00  0.00    +0.021 C 
ATOM      4  C   UNL     1       8.765  -0.812  26.992  0.00  0.00    +0.010 C 
ATOM      5  C   UNL     1       8.739  -2.712  25.177  0.00  0.00    +0.087 C 
ATOM      6  C   UNL     1       9.629  -2.892  23.918  0.00  0.00    +0.038 C 
ATOM      7  C   UNL     1       9.183  -1.953  22.788  0.00  0.00    +0.086 C 
ENDROOT
BRANCH   5   8
ATOM      8  N   UNL     1       7.314  -3.176  24.916  0.00  0.00    -0.264 N 
ATOM      9  C   UNL     1       6.256  -3.060  25.826  0.00  0.00    +0.246 C 
ATOM     10  O   UNL     1       6.340  -2.498  26.921  0.00  0.00    -0.273 OA
BRANCH   8  11
ATOM     11  C   UNL     1       7.089  -3.857  23.674  0.00  0.00    +0.072 A 
ATOM     12  C   UNL     1       6.354  -3.297  22.625  0.00  0.00    +0.145 A 
ATOM     13  F   UNL     1       5.891  -2.043  22.707  0.00  0.00    -0.204 F 
ATOM     14  C   UNL     1       6.118  -4.027  21.457  0.00  0.00    +0.040 A 
ATOM     15  C   UNL     1       6.581  -5.341  21.345  0.00  0.00    +0.003 A 
ATOM     16  C   UNL     1       7.305  -5.914  22.388  0.00  0.00    +0.002 A 
ATOM     17  C   UNL     1       7.570  -5.169  23.535  0.00  0.00    +0.026 A 
ENDBRANCH   8  11
BRANCH   9  18
ATOM     18  C   UNL     1       4.887  -3.682  25.472  0.00  0.00    +0.255 C 
BRANCH  18  19
ATOM     19  O   UNL     1       4.690  -5.017  25.910  0.00  0.00    -0.374 OA
ATOM     20  C   UNL     1       4.149  -5.832  24.875  0.00  0.00    +0.194 C 
ENDBRANCH  18  19
ENDBRANCH   9  18
ENDBRANCH   5   8
BRANCH   1  21
ATOM     21  C   UNL     1      10.128   0.324  22.839  0.00  0.00    +0.108 C 
BRANCH  21  22
ATOM     22  C   UNL     1       9.727   1.497  21.928  0.00  0.00    +0.166 C 
BRANCH  22  26
ATOM     23  N   UNL     1       7.583   4.106  22.937  0.00  0.00    -0.194 N 
ATOM     24  C   UNL     1       8.768   3.440  23.161  0.00  0.00    +0.364 A 
ATOM     25  O   UNL     1       9.747   3.829  23.778  0.00  0.00    -0.243 OA
ATOM     26  N   UNL     1       8.616   2.273  22.428  0.00  0.00    -0.192 N 
ATOM     27  N   UNL     1       7.461   2.362  21.694  0.00  0.00    -0.043 NA
ATOM     28  N   UNL     1       6.853   3.431  22.002  0.00  0.00    -0.043 NA
BRANCH  23  30
ATOM     29  C   UNL     1       7.370   6.339  21.952  0.00  0.00    +0.029 C 
ATOM     30  C   UNL     1       7.367   5.499  23.220  0.00  0.00    +0.147 C 
ENDBRANCH  23  30
ENDBRANCH  22  26
ENDBRANCH  21  22
ENDBRANCH   1  21
TORSDOF 8
ENDMDL
MODEL 2
REMARK VINA RESULT:      -6.9      2.361      3.277
REMARK  Name = 
REMARK  11 active torsions:
REMARK  status: ('A' for Active; 'I' for Inactive)
REMARK    1  A    between atoms: C_1  and  C_2
REMARK    2  A    between atoms: C_2  and  N_3
REMARK    3  A    between atoms: N_6  and  C_7
REMARK    4  A    between atoms: C_7  and  C_8
REMARK    5  A    between atoms: C_8  and  N_9
REMARK    6  A    between atoms: C_12  and  N_18
REMARK    7  A    between atoms: C_14  and  C_16
REMARK    8  A    between atoms: N_18  and  C_24
REMARK    9  A    between atoms: C_19  and  C_21
REMARK   10  A    between atoms: C_21  and  O_22
REMARK   11  A    between atoms: O_22  and  C_23
REMARK                            x       y       z     vdW  Elec       q    Type
REMARK                         _______ _______ _______ _____ _____    ______ ____
ROOT
ATOM      1  N   UNL     1       7.393  -0.306  24.651  0.00  0.00    -0.300 NA
ATOM      2  C   UNL     1       8.752  -0.819  24.407  0.00  0.00    +0.089 C 
ATOM      3  C   UNL     1       8.971  -1.266  22.955  0.00  0.00    +0.021 C 
ATOM      4  C   UNL     1      10.423  -1.462  22.516  0.00  0.00    +0.010 C 
ATOM      5  C   UNL     1       7.972  -2.406  22.591  0.00  0.00    +0.087 C 
ATOM      6  C   UNL     1       6.618  -1.648  22.603  0.00  0.00    +0.038 C 
ATOM      7  C   UNL     1       6.322  -1.067  23.993  0.00  0.00    +0.086 C 
ENDROOT
BRANCH   5   8
ATOM      8  N   UNL     1       7.912  -3.657  23.456  0.00  0.00    -0.264 N 
ATOM      9  C   UNL     1       8.960  -4.126  24.258  0.00  0.00    +0.246 C 
ATOM     10  O   UNL     1      10.031  -3.536  24.415  0.00  0.00    -0.273 OA
BRANCH   8  11
ATOM     11  C   UNL     1       6.713  -4.438  23.353  0.00  0.00    +0.072 A 
ATOM     12  C   UNL     1       6.466  -5.311  22.289  0.00  0.00    +0.145 A 
ATOM     13  F   UNL     1       7.394  -5.520  21.345  0.00  0.00    -0.204 F 
ATOM     14  C   UNL     1       5.257  -6.006  22.209  0.00  0.00    +0.040 A 
ATOM     15  C   UNL     1       4.266  -5.803  23.173  0.00  0.00    +0.003 A 
ATOM     16  C   UNL     1       4.496  -4.928  24.232  0.00  0.00    +0.002 A 
ATOM     17  C   UNL     1       5.718  -4.265  24.328  0.00  0.00    +0.026 A 
ENDBRANCH   8  11
BRANCH   9  18
ATOM     18  C   UNL     1       8.800  -5.475  24.992  0.00  0.00    +0.255 C 
BRANCH  18  19
ATOM     19  O   UNL     1       8.914  -5.420  26.405  0.00  0.00    -0.374 OA
ATOM     20  C   UNL     1       7.641  -5.286  27.028  0.00  0.00    +0.194 C 
ENDBRANCH  18  19
ENDBRANCH   9  18
ENDBRANCH   5   8
BRANCH   1  21
ATOM     21  C   UNL     1       7.296   1.148  24.467  0.00  0.00    +0.108 C 
BRANCH  21  22
ATOM     22  C   UNL     1       8.500   1.864  25.103  0.00  0.00    +0.166 C 
BRANCH  22  26
ATOM     23  N   UNL     1      10.358   4.497  23.674  0.00  0.00    -0.194 N 
ATOM     24  C   UNL     1       9.191   4.123  24.303  0.00  0.00    +0.364 A 
ATOM     25  O   UNL     1       8.391   4.832  24.893  0.00  0.00    -0.243 OA
ATOM     26  N   UNL     1       9.205   2.741  24.196  0.00  0.00    -0.192 N 
ATOM     27  N   UNL     1      10.411   2.352  23.673  0.00  0.00    -0.043 NA
ATOM     28  N   UNL     1      11.080   3.382  23.358  0.00  0.00    -0.043 NA
BRANCH  23  30
ATOM     29  C   UNL     1      12.471   5.735  23.601  0.00  0.00    +0.029 C 
ATOM     30  C   UNL     1      10.962   5.797  23.786  0.00  0.00    +0.147 C 
ENDBRANCH  23  30
ENDBRANCH  22  26
ENDBRANCH  21  22
ENDBRANCH   1  21
TORSDOF 8
ENDMDL
MODEL 3
REMARK VINA RESULT:      -6.8      2.148      3.238
REMARK  Name = 
REMARK  11 active torsions:
REMARK  status: ('A' for Active; 'I' for Inactive)
REMARK    1  A    between atoms: C_1  and  C_2
REMARK    2  A    between atoms: C_2  and  N_3
REMARK    3  A    between atoms: N_6  and  C_7
REMARK    4  A    between atoms: C_7  and  C_8
REMARK    5  A    between atoms: C_8  and  N_9
REMARK    6  A    between atoms: C_12  and  N_18
REMARK    7  A    between atoms: C_14  and  C_16
REMARK    8  A    between atoms: N_18  and  C_24
REMARK    9  A    between atoms: C_19  and  C_21
REMARK   10  A    between atoms: C_21  and  O_22
REMARK   11  A    between atoms: O_22  and  C_23
REMARK                            x       y       z     vdW  Elec       q    Type
REMARK                         _______ _______ _______ _____ _____    ______ ____
ROOT
ATOM      1  N   UNL     1       7.985  -2.663  23.200  0.00  0.00    -0.300 NA
ATOM      2  C   UNL     1       8.602  -3.060  24.477  0.00  0.00    +0.089 C 
ATOM      3  C   UNL     1       8.915  -4.560  24.550  0.00  0.00    +0.021 C 
ATOM      4  C   UNL     1       9.874  -5.002  25.656  0.00  0.00    +0.010 C 
ATOM      5  C   UNL     1       7.603  -5.388  24.391  0.00  0.00    +0.087 C 
ATOM      6  C   UNL     1       7.232  -5.101  22.911  0.00  0.00    +0.038 C 
ATOM      7  C   UNL     1       6.981  -3.604  22.685  0.00  0.00    +0.086 C 
ENDROOT
BRANCH   5   8
ATOM      8  N   UNL     1       6.428  -5.116  25.317  0.00  0.00    -0.264 N 
ATOM      9  C   UNL     1       6.538  -4.794  26.676  0.00  0.00    +0.246 C 
ATOM     10  O   UNL     1       7.607  -4.618  27.263  0.00  0.00    -0.273 OA
BRANCH   8  11
ATOM     11  C   UNL     1       5.122  -5.297  24.750  0.00  0.00    +0.072 A 
ATOM     12  C   UNL     1       4.252  -4.232  24.497  0.00  0.00    +0.145 A 
ATOM     13  F   UNL     1       4.641  -2.967  24.699  0.00  0.00    -0.204 F 
ATOM     14  C   UNL     1       2.970  -4.470  23.995  0.00  0.00    +0.040 A 
ATOM     15  C   UNL     1       2.531  -5.780  23.782  0.00  0.00    +0.003 A 
ATOM     16  C   UNL     1       3.385  -6.849  24.042  0.00  0.00    +0.002 A 
ATOM     17  C   UNL     1       4.676  -6.605  24.506  0.00  0.00    +0.026 A 
ENDBRANCH   8  11
BRANCH   9  18
ATOM     18  C   UNL     1       5.254  -4.659  27.524  0.00  0.00    +0.255 C 
BRANCH  18  19
ATOM     19  O   UNL     1       5.157  -5.539  28.632  0.00  0.00    -0.374 OA
ATOM     20  C   UNL     1       5.096  -6.899  28.216  0.00  0.00    +0.194 C 
ENDBRANCH  18  19
ENDBRANCH   9  18
ENDBRANCH   5   8
BRANCH   1  21
ATOM     21  C   UNL     1       8.973  -2.234  22.203  0.00  0.00    +0.108 C 
BRANCH  21  22
ATOM     22  C   UNL     1      10.074  -1.377  22.852  0.00  0.00    +0.166 C 
BRANCH  22  26
ATOM     23  N   UNL     1      10.281   2.134  23.076  0.00  0.00    -0.194 N 
ATOM     24  C   UNL     1      10.372   0.932  23.744  0.00  0.00    +0.364 A 
ATOM     25  O   UNL     1      10.920   0.701  24.809  0.00  0.00    -0.243 OA
ATOM     26  N   UNL     1       9.785   0.038  22.862  0.00  0.00    -0.192 N 
ATOM     27  N   UNL     1       9.528   0.688  21.682  0.00  0.00    -0.043 NA
ATOM     28  N   UNL     1       9.809   1.918  21.814  0.00  0.00    -0.043 NA
BRANCH  23  30
ATOM     29  C   UNL     1      10.098   4.457  23.834  0.00  0.00    +0.029 C 
ATOM     30  C   UNL     1      11.020   3.317  23.426  0.00  0.00    +0.147 C 
ENDBRANCH  23  30
ENDBRANCH  22  26
ENDBRANCH  21  22
ENDBRANCH   1  21
TORSDOF 8
ENDMDL
MODEL 4
REMARK VINA RESULT:      -6.7      2.398      3.704
REMARK  Name = 
REMARK  11 active torsions:
REMARK  status: ('A' for Active; 'I' for Inactive)
REMARK    1  A    between atoms: C_1  and  C_2
REMARK    2  A    between atoms: C_2  and  N_3
REMARK    3  A    between atoms: N_6  and  C_7
REMARK    4  A    between atoms: C_7  and  C_8
REMARK    5  A    between atoms: C_8  and  N_9
REMARK    6  A    between atoms: C_12  and  N_18
REMARK    7  A    between atoms: C_14  and  C_16
REMARK    8  A    between atoms: N_18  and  C_24
REMARK    9  A    between atoms: C_19  and  C_21
REMARK   10  A    between atoms: C_21  and  O_22
REMARK   11  A    between atoms: O_22  and  C_23
REMARK                            x       y       z     vdW  Elec       q    Type
REMARK                         _______ _______ _______ _____ _____    ______ ____
ROOT
ATOM      1  N   UNL     1       8.179  -2.433  23.252  0.00  0.00    -0.300 NA
ATOM      2  C   UNL     1       8.237  -3.121  24.553  0.00  0.00    +0.089 C 
ATOM      3  C   UNL     1       8.495  -4.628  24.422  0.00  0.00    +0.021 C 
ATOM      4  C   UNL     1       8.934  -5.356  25.693  0.00  0.00    +0.010 C 
ATOM      5  C   UNL     1       7.354  -5.295  23.594  0.00  0.00    +0.087 C 
ATOM      6  C   UNL     1       7.602  -4.696  22.184  0.00  0.00    +0.038 C 
ATOM      7  C   UNL     1       7.462  -3.167  22.201  0.00  0.00    +0.086 C 
ENDROOT
BRANCH   5   8
ATOM      8  N   UNL     1       5.907  -5.110  24.026  0.00  0.00    -0.264 N 
ATOM      9  C   UNL     1       4.814  -5.045  23.154  0.00  0.00    +0.246 C 
ATOM     10  O   UNL     1       4.888  -5.207  21.934  0.00  0.00    -0.273 OA
BRANCH   8  11
ATOM     11  C   UNL     1       5.689  -4.901  25.429  0.00  0.00    +0.072 A 
ATOM     12  C   UNL     1       5.480  -3.635  25.983  0.00  0.00    +0.145 A 
ATOM     13  F   UNL     1       5.388  -2.551  25.200  0.00  0.00    -0.204 F 
ATOM     14  C   UNL     1       5.328  -3.483  27.364  0.00  0.00    +0.040 A 
ATOM     15  C   UNL     1       5.427  -4.593  28.207  0.00  0.00    +0.003 A 
ATOM     16  C   UNL     1       5.647  -5.858  27.668  0.00  0.00    +0.002 A 
ATOM     17  C   UNL     1       5.759  -6.010  26.287  0.00  0.00    +0.026 A 
ENDBRANCH   8  11
BRANCH   9  18
ATOM     18  C   UNL     1       3.412  -4.736  23.724  0.00  0.00    +0.255 C 
BRANCH  18  19
ATOM     19  O   UNL     1       2.319  -5.216  22.957  0.00  0.00    -0.374 OA
ATOM     20  C   UNL     1       2.002  -6.564  23.286  0.00  0.00    +0.194 C 
ENDBRANCH  18  19
ENDBRANCH   9  18
ENDBRANCH   5   8
BRANCH   1  21
ATOM     21  C   UNL     1       9.483  -1.904  22.833  0.00  0.00    +0.108 C 
BRANCH  21  22
ATOM     22  C   UNL     1       9.312  -0.681  21.915  0.00  0.00    +0.166 C 
BRANCH  22  26
ATOM     23  N   UNL     1       9.961   2.469  23.357  0.00  0.00    -0.194 N 
ATOM     24  C   UNL     1       9.367   1.778  22.324  0.00  0.00    +0.364 A 
ATOM     25  O   UNL     1       8.482   2.158  21.574  0.00  0.00    -0.243 OA
ATOM     26  N   UNL     1       9.940   0.519  22.417  0.00  0.00    -0.192 N 
ATOM     27  N   UNL     1      10.700   0.464  23.557  0.00  0.00    -0.043 NA
ATOM     28  N   UNL     1      10.719   1.610  24.100  0.00  0.00    -0.043 NA
BRANCH  23  30
ATOM     29  C   UNL     1       8.431   3.513  24.961  0.00  0.00    +0.029 C 
ATOM     30  C   UNL     1       9.483   3.719  23.881  0.00  0.00    +0.147 C 
ENDBRANCH  23  30
ENDBRANCH  22  26
ENDBRANCH  21  22
ENDBRANCH   1  21
TORSDOF 8
ENDMDL
MODEL 5
REMARK VINA RESULT:      -6.7      1.171      1.494
REMARK  Name = 
REMARK  11 active torsions:
REMARK  status: ('A' for Active; 'I' for Inactive)
REMARK    1  A    between atoms: C_1  and  C_2
REMARK    2  A    between atoms: C_2  and  N_3
REMARK    3  A    between atoms: N_6  and  C_7
REMARK    4  A    between atoms: C_7  and  C_8
REMARK    5  A    between atoms: C_8  and  N_9
REMARK    6  A    between atoms: C_12  and  N_18
REMARK    7  A    between atoms: C_14  and  C_16
REMARK    8  A    between atoms: N_18  and  C_24
REMARK    9  A    between atoms: C_19  and  C_21
REMARK   10  A    between atoms: C_21  and  O_22
REMARK   11  A    between atoms: O_22  and  C_23
REMARK                            x       y       z     vdW  Elec       q    Type
REMARK                         _______ _______ _______ _____ _____    ______ ____
ROOT
ATOM      1  N   UNL     1       8.973  -0.531  23.083  0.00  0.00    -0.300 NA
ATOM      2  C   UNL     1       8.359  -0.274  24.397  0.00  0.00    +0.089 C 
ATOM      3  C   UNL     1       8.908  -1.186  25.503  0.00  0.00    +0.021 C 
ATOM      4  C   UNL     1       8.617  -0.760  26.942  0.00  0.00    +0.010 C 
ATOM      5  C   UNL     1       8.636  -2.680  25.147  0.00  0.00    +0.087 C 
ATOM      6  C   UNL     1       9.570  -2.883  23.925  0.00  0.00    +0.038 C 
ATOM      7  C   UNL     1       9.178  -1.952  22.769  0.00  0.00    +0.086 C 
ENDROOT
BRANCH   5   8
ATOM      8  N   UNL     1       7.216  -3.131  24.839  0.00  0.00    -0.264 N 
ATOM      9  C   UNL     1       6.119  -2.959  25.691  0.00  0.00    +0.246 C 
ATOM     10  O   UNL     1       6.162  -2.351  26.764  0.00  0.00    -0.273 OA
BRANCH   8  11
ATOM     11  C   UNL     1       7.038  -3.861  23.616  0.00  0.00    +0.072 A 
ATOM     12  C   UNL     1       6.344  -3.343  22.519  0.00  0.00    +0.145 A 
ATOM     13  F   UNL     1       5.880  -2.086  22.533  0.00  0.00    -0.204 F 
ATOM     14  C   UNL     1       6.151  -4.118  21.372  0.00  0.00    +0.040 A 
ATOM     15  C   UNL     1       6.616  -5.436  21.331  0.00  0.00    +0.003 A 
ATOM     16  C   UNL     1       7.299  -5.967  22.422  0.00  0.00    +0.002 A 
ATOM     17  C   UNL     1       7.521  -5.177  23.548  0.00  0.00    +0.026 A 
ENDBRANCH   8  11
BRANCH   9  18
ATOM     18  C   UNL     1       4.757  -3.572  25.299  0.00  0.00    +0.255 C 
BRANCH  18  19
ATOM     19  O   UNL     1       4.479  -4.849  25.851  0.00  0.00    -0.374 OA
ATOM     20  C   UNL     1       4.082  -5.777  24.847  0.00  0.00    +0.194 C 
ENDBRANCH  18  19
ENDBRANCH   9  18
ENDBRANCH   5   8
BRANCH   1  21
ATOM     21  C   UNL     1      10.146   0.315  22.832  0.00  0.00    +0.108 C 
BRANCH  21  22
ATOM     22  C   UNL     1       9.785   1.500  21.919  0.00  0.00    +0.166 C 
BRANCH  22  26
ATOM     23  N   UNL     1       7.783   3.692  23.819  0.00  0.00    -0.194 N 
ATOM     24  C   UNL     1       7.904   2.960  22.658  0.00  0.00    +0.364 A 
ATOM     25  O   UNL     1       7.020   2.602  21.897  0.00  0.00    -0.243 OA
ATOM     26  N   UNL     1       9.253   2.642  22.626  0.00  0.00    -0.192 N 
ATOM     27  N   UNL     1       9.827   3.040  23.805  0.00  0.00    -0.043 NA
ATOM     28  N   UNL     1       8.968   3.665  24.498  0.00  0.00    -0.043 NA
BRANCH  23  30
ATOM     29  C   UNL     1       6.078   2.851  25.364  0.00  0.00    +0.029 C 
ATOM     30  C   UNL     1       6.535   3.991  24.466  0.00  0.00    +0.147 C 
ENDBRANCH  23  30
ENDBRANCH  22  26
ENDBRANCH  21  22
ENDBRANCH   1  21
TORSDOF 8
ENDMDL
MODEL 6
REMARK VINA RESULT:      -6.7      2.687      6.930
REMARK  Name = 
REMARK  11 active torsions:
REMARK  status: ('A' for Active; 'I' for Inactive)
REMARK    1  A    between atoms: C_1  and  C_2
REMARK    2  A    between atoms: C_2  and  N_3
REMARK    3  A    between atoms: N_6  and  C_7
REMARK    4  A    between atoms: C_7  and  C_8
REMARK    5  A    between atoms: C_8  and  N_9
REMARK    6  A    between atoms: C_12  and  N_18
REMARK    7  A    between atoms: C_14  and  C_16
REMARK    8  A    between atoms: N_18  and  C_24
REMARK    9  A    between atoms: C_19  and  C_21
REMARK   10  A    between atoms: C_21  and  O_22
REMARK   11  A    between atoms: O_22  and  C_23
REMARK                            x       y       z     vdW  Elec       q    Type
REMARK                         _______ _______ _______ _____ _____    ______ ____
ROOT
ATOM      1  N   UNL     1       7.271  -3.271  23.056  0.00  0.00    -0.300 NA
ATOM      2  C   UNL     1       7.671  -1.990  22.450  0.00  0.00    +0.089 C 
ATOM      3  C   UNL     1       9.188  -1.759  22.485  0.00  0.00    +0.021 C 
ATOM      4  C   UNL     1       9.730  -0.660  21.571  0.00  0.00    +0.010 C 
ATOM      5  C   UNL     1       9.693  -1.754  23.960  0.00  0.00    +0.087 C 
ATOM      6  C   UNL     1       9.478  -3.236  24.368  0.00  0.00    +0.038 C 
ATOM      7  C   UNL     1       7.994  -3.621  24.286  0.00  0.00    +0.086 C 
ENDROOT
BRANCH   5   8
ATOM      8  N   UNL     1       9.059  -0.806  24.967  0.00  0.00    -0.264 N 
ATOM      9  C   UNL     1       8.598  -1.178  26.236  0.00  0.00    +0.246 C 
ATOM     10  O   UNL     1       8.721  -2.307  26.716  0.00  0.00    -0.273 OA
BRANCH   8  11
ATOM     11  C   UNL     1       8.852   0.542  24.521  0.00  0.00    +0.072 A 
ATOM     12  C   UNL     1       7.609   1.015  24.091  0.00  0.00    +0.145 A 
ATOM     13  F   UNL     1       6.519   0.238  24.158  0.00  0.00    -0.204 F 
ATOM     14  C   UNL     1       7.475   2.322  23.613  0.00  0.00    +0.040 A 
ATOM     15  C   UNL     1       8.594   3.153  23.523  0.00  0.00    +0.003 A 
ATOM     16  C   UNL     1       9.840   2.689  23.937  0.00  0.00    +0.002 A 
ATOM     17  C   UNL     1       9.961   1.399  24.448  0.00  0.00    +0.026 A 
ENDBRANCH   8  11
BRANCH   9  18
ATOM     18  C   UNL     1       7.867  -0.133  27.108  0.00  0.00    +0.255 C 
BRANCH  18  19
ATOM     19  O   UNL     1       6.480  -0.359  27.301  0.00  0.00    -0.374 OA
ATOM     20  C   UNL     1       5.758   0.865  27.386  0.00  0.00    +0.194 C 
ENDBRANCH  18  19
ENDBRANCH   9  18
ENDBRANCH   5   8
BRANCH   1  21
ATOM     21  C   UNL     1       7.192  -4.361  22.075  0.00  0.00    +0.108 C 
BRANCH  21  22
ATOM     22  C   UNL     1       6.929  -5.709  22.770  0.00  0.00    +0.166 C 
BRANCH  22  26
ATOM     23  N   UNL     1       3.725  -5.615  24.237  0.00  0.00    -0.194 N 
ATOM     24  C   UNL     1       5.056  -5.931  24.401  0.00  0.00    +0.364 A 
ATOM     25  O   UNL     1       5.674  -6.077  25.444  0.00  0.00    -0.243 OA
ATOM     26  N   UNL     1       5.541  -5.934  23.102  0.00  0.00    -0.192 N 
ATOM     27  N   UNL     1       4.557  -5.477  22.264  0.00  0.00    -0.043 NA
ATOM     28  N   UNL     1       3.492  -5.301  22.929  0.00  0.00    -0.043 NA
BRANCH  23  30
ATOM     29  C   UNL     1       2.813  -3.667  25.410  0.00  0.00    +0.029 C 
ATOM     30  C   UNL     1       2.855  -5.184  25.296  0.00  0.00    +0.147 C 
ENDBRANCH  23  30
ENDBRANCH  22  26
ENDBRANCH  21  22
ENDBRANCH   1  21
TORSDOF 8
ENDMDL
MODEL 7
REMARK VINA RESULT:      -6.5      2.788      4.340
REMARK  Name = 
REMARK  11 active torsions:
REMARK  status: ('A' for Active; 'I' for Inactive)
REMARK    1  A    between atoms: C_1  and  C_2
REMARK    2  A    between atoms: C_2  and  N_3
REMARK    3  A    between atoms: N_6  and  C_7
REMARK    4  A    between atoms: C_7  and  C_8
REMARK    5  A    between atoms: C_8  and  N_9
REMARK    6  A    between atoms: C_12  and  N_18
REMARK    7  A    between atoms: C_14  and  C_16
REMARK    8  A    between atoms: N_18  and  C_24
REMARK    9  A    between atoms: C_19  and  C_21
REMARK   10  A    between atoms: C_21  and  O_22
REMARK   11  A    between atoms: O_22  and  C_23
REMARK                            x       y       z     vdW  Elec       q    Type
REMARK                         _______ _______ _______ _____ _____    ______ ____
ROOT
ATOM      1  N   UNL     1       7.731  -2.181  25.782  0.00  0.00    -0.300 NA
ATOM      2  C   UNL     1       6.712  -2.949  26.517  0.00  0.00    +0.089 C 
ATOM      3  C   UNL     1       7.184  -4.358  26.899  0.00  0.00    +0.021 C 
ATOM      4  C   UNL     1       6.362  -5.086  27.962  0.00  0.00    +0.010 C 
ATOM      5  C   UNL     1       7.539  -5.168  25.614  0.00  0.00    +0.087 C 
ATOM      6  C   UNL     1       8.801  -4.418  25.112  0.00  0.00    +0.038 C 
ATOM      7  C   UNL     1       8.477  -2.954  24.780  0.00  0.00    +0.086 C 
ENDROOT
BRANCH   5   8
ATOM      8  N   UNL     1       6.505  -5.311  24.508  0.00  0.00    -0.264 N 
ATOM      9  C   UNL     1       6.803  -5.535  23.158  0.00  0.00    +0.246 C 
ATOM     10  O   UNL     1       7.940  -5.718  22.719  0.00  0.00    -0.273 OA
BRANCH   8  11
ATOM     11  C   UNL     1       5.137  -5.110  24.893  0.00  0.00    +0.072 A 
ATOM     12  C   UNL     1       4.338  -6.133  25.411  0.00  0.00    +0.145 A 
ATOM     13  F   UNL     1       4.850  -7.347  25.652  0.00  0.00    -0.204 F 
ATOM     14  C   UNL     1       2.995  -5.896  25.718  0.00  0.00    +0.040 A 
ATOM     15  C   UNL     1       2.429  -4.643  25.468  0.00  0.00    +0.003 A 
ATOM     16  C   UNL     1       3.213  -3.619  24.942  0.00  0.00    +0.002 A 
ATOM     17  C   UNL     1       4.560  -3.849  24.674  0.00  0.00    +0.026 A 
ENDBRANCH   8  11
BRANCH   9  18
ATOM     18  C   UNL     1       5.655  -5.542  22.125  0.00  0.00    +0.255 C 
BRANCH  18  19
ATOM     19  O   UNL     1       5.766  -4.590  21.079  0.00  0.00    -0.374 OA
ATOM     20  C   UNL     1       5.945  -3.273  21.589  0.00  0.00    +0.194 C 
ENDBRANCH  18  19
ENDBRANCH   9  18
ENDBRANCH   5   8
BRANCH   1  21
ATOM     21  C   UNL     1       8.577  -1.370  26.667  0.00  0.00    +0.108 C 
BRANCH  21  22
ATOM     22  C   UNL     1       8.134   0.104  26.653  0.00  0.00    +0.166 C 
BRANCH  22  26
ATOM     23  N   UNL     1       9.107   0.936  23.369  0.00  0.00    -0.194 N 
ATOM     24  C   UNL     1       9.514   0.710  24.666  0.00  0.00    +0.364 A 
ATOM     25  O   UNL     1      10.633   0.438  25.069  0.00  0.00    -0.243 OA
ATOM     26  N   UNL     1       8.326   0.760  25.380  0.00  0.00    -0.192 N 
ATOM     27  N   UNL     1       7.283   0.846  24.494  0.00  0.00    -0.043 NA
ATOM     28  N   UNL     1       7.743   0.960  23.318  0.00  0.00    -0.043 NA
BRANCH  23  30
ATOM     29  C   UNL     1       9.802  -0.771  21.755  0.00  0.00    +0.029 C 
ATOM     30  C   UNL     1       9.914   0.677  22.208  0.00  0.00    +0.147 C 
ENDBRANCH  23  30
ENDBRANCH  22  26
ENDBRANCH  21  22
ENDBRANCH   1  21
TORSDOF 8
ENDMDL
MODEL 8
REMARK VINA RESULT:      -6.5      1.910      2.734
REMARK  Name = 
REMARK  11 active torsions:
REMARK  status: ('A' for Active; 'I' for Inactive)
REMARK    1  A    between atoms: C_1  and  C_2
REMARK    2  A    between atoms: C_2  and  N_3
REMARK    3  A    between atoms: N_6  and  C_7
REMARK    4  A    between atoms: C_7  and  C_8
REMARK    5  A    between atoms: C_8  and  N_9
REMARK    6  A    between atoms: C_12  and  N_18
REMARK    7  A    between atoms: C_14  and  C_16
REMARK    8  A    between atoms: N_18  and  C_24
REMARK    9  A    between atoms: C_19  and  C_21
REMARK   10  A    between atoms: C_21  and  O_22
REMARK   11  A    between atoms: O_22  and  C_23
REMARK                            x       y       z     vdW  Elec       q    Type
REMARK                         _______ _______ _______ _____ _____    ______ ____
ROOT
ATOM      1  N   UNL     1       9.024  -1.568  25.430  0.00  0.00    -0.300 NA
ATOM      2  C   UNL     1       8.416  -1.994  24.158  0.00  0.00    +0.089 C 
ATOM      3  C   UNL     1       6.925  -1.643  24.059  0.00  0.00    +0.021 C 
ATOM      4  C   UNL     1       6.303  -1.705  22.664  0.00  0.00    +0.010 C 
ATOM      5  C   UNL     1       6.136  -2.341  25.209  0.00  0.00    +0.087 C 
ATOM      6  C   UNL     1       6.669  -1.587  26.456  0.00  0.00    +0.038 C 
ATOM      7  C   UNL     1       8.184  -1.786  26.615  0.00  0.00    +0.086 C 
ENDROOT
BRANCH   5   8
ATOM      8  N   UNL     1       6.245  -3.848  25.386  0.00  0.00    -0.264 N 
ATOM      9  C   UNL     1       6.303  -4.506  26.621  0.00  0.00    +0.246 C 
ATOM     10  O   UNL     1       6.198  -3.944  27.713  0.00  0.00    -0.273 OA
BRANCH   8  11
ATOM     11  C   UNL     1       6.383  -4.617  24.182  0.00  0.00    +0.072 A 
ATOM     12  C   UNL     1       7.616  -5.093  23.725  0.00  0.00    +0.145 A 
ATOM     13  F   UNL     1       8.728  -4.920  24.451  0.00  0.00    -0.204 F 
ATOM     14  C   UNL     1       7.702  -5.789  22.517  0.00  0.00    +0.040 A 
ATOM     15  C   UNL     1       6.560  -5.978  21.733  0.00  0.00    +0.003 A 
ATOM     16  C   UNL     1       5.328  -5.498  22.173  0.00  0.00    +0.002 A 
ATOM     17  C   UNL     1       5.241  -4.838  23.396  0.00  0.00    +0.026 A 
ENDBRANCH   8  11
BRANCH   9  18
ATOM     18  C   UNL     1       6.532  -6.033  26.649  0.00  0.00    +0.255 C 
BRANCH  18  19
ATOM     19  O   UNL     1       5.499  -6.796  27.253  0.00  0.00    -0.374 OA
ATOM     20  C   UNL     1       4.329  -6.825  26.443  0.00  0.00    +0.194 C 
ENDBRANCH  18  19
ENDBRANCH   9  18
ENDBRANCH   5   8
BRANCH   1  21
ATOM     21  C   UNL     1       9.617  -0.227  25.352  0.00  0.00    +0.108 C 
BRANCH  21  22
ATOM     22  C   UNL     1      10.291  -0.001  23.987  0.00  0.00    +0.166 C 
BRANCH  22  26
ATOM     23  N   UNL     1       8.609   2.681  22.438  0.00  0.00    -0.194 N 
ATOM     24  C   UNL     1       9.042   1.378  22.327  0.00  0.00    +0.364 A 
ATOM     25  O   UNL     1       8.649   0.516  21.558  0.00  0.00    -0.243 OA
ATOM     26  N   UNL     1       9.950   1.259  23.368  0.00  0.00    -0.192 N 
ATOM     27  N   UNL     1       9.901   2.399  24.128  0.00  0.00    -0.043 NA
ATOM     28  N   UNL     1       9.124   3.235  23.575  0.00  0.00    -0.043 NA
BRANCH  23  30
ATOM     29  C   UNL     1       6.961   4.494  22.448  0.00  0.00    +0.029 C 
ATOM     30  C   UNL     1       7.440   3.208  21.790  0.00  0.00    +0.147 C 
ENDBRANCH  23  30
ENDBRANCH  22  26
ENDBRANCH  21  22
ENDBRANCH   1  21
TORSDOF 8
ENDMDL
MODEL 9
REMARK VINA RESULT:      -6.4      2.918      7.604
REMARK  Name = 
REMARK  11 active torsions:
REMARK  status: ('A' for Active; 'I' for Inactive)
REMARK    1  A    between atoms: C_1  and  C_2
REMARK    2  A    between atoms: C_2  and  N_3
REMARK    3  A    between atoms: N_6  and  C_7
REMARK    4  A    between atoms: C_7  and  C_8
REMARK    5  A    between atoms: C_8  and  N_9
REMARK    6  A    between atoms: C_12  and  N_18
REMARK    7  A    between atoms: C_14  and  C_16
REMARK    8  A    between atoms: N_18  and  C_24
REMARK    9  A    between atoms: C_19  and  C_21
REMARK   10  A    between atoms: C_21  and  O_22
REMARK   11  A    between atoms: O_22  and  C_23
REMARK                            x       y       z     vdW  Elec       q    Type
REMARK                         _______ _______ _______ _____ _____    ______ ____
ROOT
ATOM      1  N   UNL     1       6.977  -3.122  23.813  0.00  0.00    -0.300 NA
ATOM      2  C   UNL     1       7.890  -2.297  23.003  0.00  0.00    +0.089 C 
ATOM      3  C   UNL     1       9.295  -2.185  23.610  0.00  0.00    +0.021 C 
ATOM      4  C   UNL     1      10.397  -1.673  22.684  0.00  0.00    +0.010 C 
ATOM      5  C   UNL     1       9.214  -1.536  25.026  0.00  0.00    +0.087 C 
ATOM      6  C   UNL     1       8.487  -2.643  25.835  0.00  0.00    +0.038 C 
ATOM      7  C   UNL     1       7.088  -2.916  25.263  0.00  0.00    +0.086 C 
ENDROOT
BRANCH   5   8
ATOM      8  N   UNL     1       8.529  -0.188  25.195  0.00  0.00    -0.264 N 
ATOM      9  C   UNL     1       7.905   0.251  26.369  0.00  0.00    +0.246 C 
ATOM     10  O   UNL     1       7.904  -0.376  27.431  0.00  0.00    -0.273 OA
BRANCH   8  11
ATOM     11  C   UNL     1       8.457   0.635  24.021  0.00  0.00    +0.072 A 
ATOM     12  C   UNL     1       9.519   1.433  23.589  0.00  0.00    +0.145 A 
ATOM     13  F   UNL     1      10.702   1.398  24.218  0.00  0.00    -0.204 F 
ATOM     14  C   UNL     1       9.376   2.258  22.470  0.00  0.00    +0.040 A 
ATOM     15  C   UNL     1       8.152   2.323  21.799  0.00  0.00    +0.003 A 
ATOM     16  C   UNL     1       7.082   1.540  22.227  0.00  0.00    +0.002 A 
ATOM     17  C   UNL     1       7.242   0.691  23.319  0.00  0.00    +0.026 A 
ENDBRANCH   8  11
BRANCH   9  18
ATOM     18  C   UNL     1       7.147   1.596  26.361  0.00  0.00    +0.255 C 
BRANCH  18  19
ATOM     19  O   UNL     1       5.883   1.590  27.007  0.00  0.00    -0.374 OA
ATOM     20  C   UNL     1       4.871   1.041  26.170  0.00  0.00    +0.194 C 
ENDBRANCH  18  19
ENDBRANCH   9  18
ENDBRANCH   5   8
BRANCH   1  21
ATOM     21  C   UNL     1       6.978  -4.533  23.405  0.00  0.00    +0.108 C 
BRANCH  21  22
ATOM     22  C   UNL     1       6.021  -5.359  24.283  0.00  0.00    +0.166 C 
BRANCH  22  26
ATOM     23  N   UNL     1       2.788  -6.515  23.489  0.00  0.00    -0.194 N 
ATOM     24  C   UNL     1       4.005  -6.810  24.062  0.00  0.00    +0.364 A 
ATOM     25  O   UNL     1       4.269  -7.696  24.858  0.00  0.00    -0.243 OA
ATOM     26  N   UNL     1       4.826  -5.793  23.598  0.00  0.00    -0.192 N 
ATOM     27  N   UNL     1       4.055  -4.877  22.928  0.00  0.00    -0.043 NA
ATOM     28  N   UNL     1       2.865  -5.307  22.856  0.00  0.00    -0.043 NA
BRANCH  23  30
ATOM     29  C   UNL     1       1.184  -8.323  23.089  0.00  0.00    +0.029 C 
ATOM     30  C   UNL     1       1.535  -7.085  23.902  0.00  0.00    +0.147 C 
ENDBRANCH  23  30
ENDBRANCH  22  26
ENDBRANCH  21  22
ENDBRANCH   1  21
TORSDOF 8
ENDMDL
