MODEL 1
REMARK VINA RESULT:      -3.3      0.000      0.000
REMARK  Name = 
REMARK  3 active torsions:
REMARK  status: ('A' for Active; 'I' for Inactive)
REMARK    1  A    between atoms: O_1  and  C_2
REMARK    2  A    between atoms: C_2  and  C_3
REMARK    3  A    between atoms: C_3  and  O_4
REMARK                            x       y       z     vdW  Elec       q    Type
REMARK                         _______ _______ _______ _____ _____    ______ ____
ROOT
ATOM      1  C   UNL     1      12.066   5.875  23.876  0.00  0.00    +0.330 C 
ATOM      2  O   UNL     1      10.877   6.124  23.757  0.00  0.00    -0.248 OA
ENDROOT
BRANCH   1   3
ATOM      3  O   UNL     1      12.859   6.428  24.828  0.00  0.00    -0.479 OA
ATOM      4  H   UNL     1      13.674   5.872  24.879  0.00  0.00    +0.295 HD
ENDBRANCH   1   3
BRANCH   1   5
ATOM      5  C   UNL     1      12.847   4.915  22.990  0.00  0.00    +0.276 C 
BRANCH   5   6
ATOM      6  O   UNL     1      14.250   5.125  23.196  0.00  0.00    -0.384 OA
ATOM      7  H   UNL     1      14.538   4.434  23.822  0.00  0.00    +0.210 HD
ENDBRANCH   5   6
ENDBRANCH   1   5
TORSDOF 3
ENDMDL
MODEL 2
REMARK VINA RESULT:      -3.0     11.675     12.006
REMARK  Name = 
REMARK  3 active torsions:
REMARK  status: ('A' for Active; 'I' for Inactive)
REMARK    1  A    between atoms: O_1  and  C_2
REMARK    2  A    between atoms: C_2  and  C_3
REMARK    3  A    between atoms: C_3  and  O_4
REMARK                            x       y       z     vdW  Elec       q    Type
REMARK                         _______ _______ _______ _____ _____    ______ ____
ROOT
ATOM      1  C   UNL     1       9.211  -5.244  25.314  0.00  0.00    +0.330 C 
ATOM      2  O   UNL     1       8.815  -5.351  24.164  0.00  0.00    -0.248 OA
ENDROOT
BRANCH   1   3
ATOM      3  O   UNL     1      10.465  -5.578  25.712  0.00  0.00    -0.479 OA
ATOM      4  H   UNL     1      10.995  -5.722  24.890  0.00  0.00    +0.295 HD
ENDBRANCH   1   3
BRANCH   1   5
ATOM      5  C   UNL     1       8.379  -4.725  26.477  0.00  0.00    +0.276 C 
BRANCH   5   6
ATOM      6  O   UNL     1       8.078  -5.814  27.360  0.00  0.00    -0.384 OA
ATOM      7  H   UNL     1       8.935  -6.121  27.712  0.00  0.00    +0.210 HD
ENDBRANCH   5   6
ENDBRANCH   1   5
TORSDOF 3
ENDMDL
MODEL 3
REMARK VINA RESULT:      -2.9      6.022      6.397
REMARK  Name = 
REMARK  3 active torsions:
REMARK  status: ('A' for Active; 'I' for Inactive)
REMARK    1  A    between atoms: O_1  and  C_2
REMARK    2  A    between atoms: C_2  and  C_3
REMARK    3  A    between atoms: C_3  and  O_4
REMARK                            x       y       z     vdW  Elec       q    Type
REMARK                         _______ _______ _______ _____ _____    ______ ____
ROOT
ATOM      1  C   UNL     1       9.990   0.858  22.182  0.00  0.00    +0.330 C 
ATOM      2  O   UNL     1      10.476   0.757  23.297  0.00  0.00    -0.248 OA
ENDROOT
BRANCH   1   3
ATOM      3  O   UNL     1       9.945   2.022  21.485  0.00  0.00    -0.479 OA
ATOM      4  H   UNL     1       8.994   2.288  21.436  0.00  0.00    +0.295 HD
ENDBRANCH   1   3
BRANCH   1   5
ATOM      5  C   UNL     1       9.363  -0.285  21.397  0.00  0.00    +0.276 C 
BRANCH   5   6
ATOM      6  O   UNL     1      10.212  -1.436  21.489  0.00  0.00    -0.384 OA
ATOM      7  H   UNL     1       9.916  -1.928  22.278  0.00  0.00    +0.210 HD
ENDBRANCH   5   6
ENDBRANCH   1   5
TORSDOF 3
ENDMDL
MODEL 4
REMARK VINA RESULT:      -2.9     11.927     12.133
REMARK  Name = 
REMARK  3 active torsions:
REMARK  status: ('A' for Active; 'I' for Inactive)
REMARK    1  A    between atoms: O_1  and  C_2
REMARK    2  A    between atoms: C_2  and  C_3
REMARK    3  A    between atoms: C_3  and  O_4
REMARK                            x       y       z     vdW  Elec       q    Type
REMARK                         _______ _______ _______ _____ _____    ______ ____
ROOT
ATOM      1  C   UNL     1       7.976  -5.356  26.286  0.00  0.00    +0.330 C 
ATOM      2  O   UNL     1       7.065  -5.366  25.473  0.00  0.00    -0.248 OA
ENDROOT
BRANCH   1   3
ATOM      3  O   UNL     1       7.874  -5.875  27.536  0.00  0.00    -0.479 OA
ATOM      4  H   UNL     1       8.469  -5.340  28.116  0.00  0.00    +0.295 HD
ENDBRANCH   1   3
BRANCH   1   5
ATOM      5  C   UNL     1       9.358  -4.769  26.038  0.00  0.00    +0.276 C 
BRANCH   5   6
ATOM      6  O   UNL     1      10.152  -5.727  25.325  0.00  0.00    -0.384 OA
ATOM      7  H   UNL     1       9.648  -6.563  25.344  0.00  0.00    +0.210 HD
ENDBRANCH   5   6
ENDBRANCH   1   5
TORSDOF 3
ENDMDL
MODEL 5
REMARK VINA RESULT:      -2.9      6.285      6.832
REMARK  Name = 
REMARK  3 active torsions:
REMARK  status: ('A' for Active; 'I' for Inactive)
REMARK    1  A    between atoms: O_1  and  C_2
REMARK    2  A    between atoms: C_2  and  C_3
REMARK    3  A    between atoms: C_3  and  O_4
REMARK                            x       y       z     vdW  Elec       q    Type
REMARK                         _______ _______ _______ _____ _____    ______ ____
ROOT
ATOM      1  C   UNL     1      10.018  -0.339  22.149  0.00  0.00    +0.330 C 
ATOM      2  O   UNL     1      10.552  -0.206  23.240  0.00  0.00    -0.248 OA
ENDROOT
BRANCH   1   3
ATOM      3  O   UNL     1      10.112  -1.467  21.400  0.00  0.00    -0.479 OA
ATOM      4  H   UNL     1       9.444  -1.384  20.676  0.00  0.00    +0.295 HD
ENDBRANCH   1   3
BRANCH   1   5
ATOM      5  C   UNL     1       9.172   0.720  21.459  0.00  0.00    +0.276 C 
BRANCH   5   6
ATOM      6  O   UNL     1       9.880   1.967  21.473  0.00  0.00    -0.384 OA
ATOM      7  H   UNL     1      10.665   1.838  20.908  0.00  0.00    +0.210 HD
ENDBRANCH   5   6
ENDBRANCH   1   5
TORSDOF 3
ENDMDL
MODEL 6
REMARK VINA RESULT:      -2.7     11.006     11.255
REMARK  Name = 
REMARK  3 active torsions:
REMARK  status: ('A' for Active; 'I' for Inactive)
REMARK    1  A    between atoms: O_1  and  C_2
REMARK    2  A    between atoms: C_2  and  C_3
REMARK    3  A    between atoms: C_3  and  O_4
REMARK                            x       y       z     vdW  Elec       q    Type
REMARK                         _______ _______ _______ _____ _____    ______ ____
ROOT
ATOM      1  C   UNL     1       9.025  -5.217  25.492  0.00  0.00    +0.330 C 
ATOM      2  O   UNL     1       8.177  -5.763  26.181  0.00  0.00    -0.248 OA
ENDROOT
BRANCH   1   3
ATOM      3  O   UNL     1      10.301  -5.665  25.376  0.00  0.00    -0.479 OA
ATOM      4  H   UNL     1      10.267  -6.648  25.469  0.00  0.00    +0.295 HD
ENDBRANCH   1   3
BRANCH   1   5
ATOM      5  C   UNL     1       8.796  -3.965  24.659  0.00  0.00    +0.276 C 
BRANCH   5   6
ATOM      6  O   UNL     1      10.057  -3.496  24.164  0.00  0.00    -0.384 OA
ATOM      7  H   UNL     1      10.560  -4.292  23.908  0.00  0.00    +0.210 HD
ENDBRANCH   5   6
ENDBRANCH   1   5
TORSDOF 3
ENDMDL
MODEL 7
REMARK VINA RESULT:      -2.6      5.354      6.129
REMARK  Name = 
REMARK  3 active torsions:
REMARK  status: ('A' for Active; 'I' for Inactive)
REMARK    1  A    between atoms: O_1  and  C_2
REMARK    2  A    between atoms: C_2  and  C_3
REMARK    3  A    between atoms: C_3  and  O_4
REMARK                            x       y       z     vdW  Elec       q    Type
REMARK                         _______ _______ _______ _____ _____    ______ ____
ROOT
ATOM      1  C   UNL     1       9.261   1.344  21.560  0.00  0.00    +0.330 C 
ATOM      2  O   UNL     1       9.419   0.154  21.337  0.00  0.00    -0.248 OA
ENDROOT
BRANCH   1   3
ATOM      3  O   UNL     1      10.280   2.239  21.620  0.00  0.00    -0.479 OA
ATOM      4  H   UNL     1       9.869   3.136  21.667  0.00  0.00    +0.295 HD
ENDBRANCH   1   3
BRANCH   1   5
ATOM      5  C   UNL     1       7.917   2.014  21.804  0.00  0.00    +0.276 C 
BRANCH   5   6
ATOM      6  O   UNL     1       8.126   3.415  22.025  0.00  0.00    -0.384 OA
ATOM      7  H   UNL     1       7.774   3.604  22.915  0.00  0.00    +0.210 HD
ENDBRANCH   5   6
ENDBRANCH   1   5
TORSDOF 3
ENDMDL
MODEL 8
REMARK VINA RESULT:      -2.6      7.825      8.183
REMARK  Name = 
REMARK  3 active torsions:
REMARK  status: ('A' for Active; 'I' for Inactive)
REMARK    1  A    between atoms: O_1  and  C_2
REMARK    2  A    between atoms: C_2  and  C_3
REMARK    3  A    between atoms: C_3  and  O_4
REMARK                            x       y       z     vdW  Elec       q    Type
REMARK                         _______ _______ _______ _____ _____    ______ ____
ROOT
ATOM      1  C   UNL     1      10.107  -1.284  22.733  0.00  0.00    +0.330 C 
ATOM      2  O   UNL     1      10.631  -0.317  23.262  0.00  0.00    -0.248 OA
ENDROOT
BRANCH   1   3
ATOM      3  O   UNL     1      10.203  -1.559  21.407  0.00  0.00    -0.479 OA
ATOM      4  H   UNL     1      10.736  -2.388  21.326  0.00  0.00    +0.295 HD
ENDBRANCH   1   3
BRANCH   1   5
ATOM      5  C   UNL     1       9.271  -2.328  23.458  0.00  0.00    +0.276 C 
BRANCH   5   6
ATOM      6  O   UNL     1      10.144  -3.303  24.043  0.00  0.00    -0.384 OA
ATOM      7  H   UNL     1      10.819  -3.501  23.367  0.00  0.00    +0.210 HD
ENDBRANCH   5   6
ENDBRANCH   1   5
TORSDOF 3
ENDMDL
MODEL 9
REMARK VINA RESULT:      -2.5      7.123      7.606
REMARK  Name = 
REMARK  3 active torsions:
REMARK  status: ('A' for Active; 'I' for Inactive)
REMARK    1  A    between atoms: O_1  and  C_2
REMARK    2  A    between atoms: C_2  and  C_3
REMARK    3  A    between atoms: C_3  and  O_4
REMARK                            x       y       z     vdW  Elec       q    Type
REMARK                         _______ _______ _______ _____ _____    ______ ____
ROOT
ATOM      1  C   UNL     1      10.266  -1.590  22.744  0.00  0.00    +0.330 C 
ATOM      2  O   UNL     1      10.285  -2.603  23.427  0.00  0.00    -0.248 OA
ENDROOT
BRANCH   1   3
ATOM      3  O   UNL     1      10.141  -1.598  21.393  0.00  0.00    -0.479 OA
ATOM      4  H   UNL     1      10.448  -0.714  21.074  0.00  0.00    +0.295 HD
ENDBRANCH   1   3
BRANCH   1   5
ATOM      5  C   UNL     1      10.376  -0.173  23.285  0.00  0.00    +0.276 C 
BRANCH   5   6
ATOM      6  O   UNL     1      10.168   0.755  22.212  0.00  0.00    -0.384 OA
ATOM      7  H   UNL     1      10.340   1.641  22.583  0.00  0.00    +0.210 HD
ENDBRANCH   5   6
ENDBRANCH   1   5
TORSDOF 3
ENDMDL
