MODEL 1
REMARK VINA RESULT:      -6.6      0.000      0.000
REMARK  Name = 
REMARK  5 active torsions:
REMARK  status: ('A' for Active; 'I' for Inactive)
REMARK    1  A    between atoms: C_1  and  O_2
REMARK    2  A    between atoms: O_2  and  C_3
REMARK    3  A    between atoms: C_6  and  C_15
REMARK    4  A    between atoms: C_8  and  O_9
REMARK    5  A    between atoms: O_9  and  C_10
REMARK                            x       y       z     vdW  Elec       q    Type
REMARK                         _______ _______ _______ _____ _____    ______ ____
ROOT
ATOM      1  C   UNL     1       8.231  -2.838  25.605  0.00  0.00    +0.162 A 
ATOM      2  C   UNL     1       8.586  -3.110  24.276  0.00  0.00    +0.163 A 
ATOM      3  C   UNL     1       9.342  -2.161  23.558  0.00  0.00    +0.053 A 
ATOM      4  C   UNL     1       9.717  -0.930  24.117  0.00  0.00    -0.039 A 
ATOM      5  C   UNL     1       9.379  -0.690  25.451  0.00  0.00    +0.008 A 
ATOM      6  C   UNL     1       8.640  -1.623  26.177  0.00  0.00    +0.049 A 
ENDROOT
BRANCH   4   7
ATOM      7  C   UNL     1      10.468   0.157  23.365  0.00  0.00    +0.045 C 
ATOM      8  C   UNL     1       9.829   0.475  22.007  0.00  0.00    +0.105 C 
ATOM      9  C   UNL     1       9.029   1.725  22.285  0.00  0.00    +0.214 C 
ATOM     10  O   UNL     1       8.212   2.236  21.538  0.00  0.00    -0.276 OA
ATOM     11  N   UNL     1       9.426   2.242  23.496  0.00  0.00    -0.315 N 
ATOM     12  H   UNL     1       9.078   3.141  23.810  0.00  0.00    +0.149 HD
ATOM     13  C   UNL     1      10.524   1.518  24.063  0.00  0.00    +0.112 C 
ENDBRANCH   4   7
BRANCH   1  15
ATOM     14  C   UNL     1       8.209  -4.889  26.805  0.00  0.00    +0.277 C 
ATOM     15  O   UNL     1       7.499  -3.762  26.301  0.00  0.00    -0.491 OA
ENDBRANCH   1  15
BRANCH   2  16
ATOM     16  O   UNL     1       8.369  -4.262  23.565  0.00  0.00    -0.485 OA
BRANCH  16  17
ATOM     17  C   UNL     1       7.337  -4.325  22.583  0.00  0.00    +0.174 C 
ATOM     18  C   UNL     1       5.935  -4.344  23.210  0.00  0.00    +0.044 C 
ATOM     19  C   UNL     1       5.145  -5.462  22.526  0.00  0.00    +0.004 C 
ATOM     20  C   UNL     1       6.022  -5.950  21.386  0.00  0.00    +0.004 C 
ATOM     21  C   UNL     1       7.429  -5.695  21.897  0.00  0.00    +0.044 C 
ENDBRANCH  16  17
ENDBRANCH   2  16
TORSDOF 4
ENDMDL
MODEL 2
REMARK VINA RESULT:      -6.4      1.606      1.993
REMARK  Name = 
REMARK  5 active torsions:
REMARK  status: ('A' for Active; 'I' for Inactive)
REMARK    1  A    between atoms: C_1  and  O_2
REMARK    2  A    between atoms: O_2  and  C_3
REMARK    3  A    between atoms: C_6  and  C_15
REMARK    4  A    between atoms: C_8  and  O_9
REMARK    5  A    between atoms: O_9  and  C_10
REMARK                            x       y       z     vdW  Elec       q    Type
REMARK                         _______ _______ _______ _____ _____    ______ ____
ROOT
ATOM      1  C   UNL     1       9.228  -2.961  24.048  0.00  0.00    +0.162 A 
ATOM      2  C   UNL     1       8.295  -2.728  23.026  0.00  0.00    +0.163 A 
ATOM      3  C   UNL     1       7.993  -1.400  22.663  0.00  0.00    +0.053 A 
ATOM      4  C   UNL     1       8.564  -0.298  23.318  0.00  0.00    -0.039 A 
ATOM      5  C   UNL     1       9.512  -0.551  24.312  0.00  0.00    +0.008 A 
ATOM      6  C   UNL     1       9.829  -1.859  24.677  0.00  0.00    +0.049 A 
ENDROOT
BRANCH   4   7
ATOM      7  C   UNL     1       8.219   1.151  23.014  0.00  0.00    +0.045 C 
ATOM      8  C   UNL     1       9.008   2.134  23.889  0.00  0.00    +0.105 C 
ATOM      9  C   UNL     1      10.125   2.587  22.980  0.00  0.00    +0.214 C 
ATOM     10  O   UNL     1      11.103   3.236  23.311  0.00  0.00    -0.276 OA
ATOM     11  N   UNL     1       9.824   2.211  21.691  0.00  0.00    -0.315 N 
ATOM     12  H   UNL     1      10.403   2.518  20.919  0.00  0.00    +0.149 HD
ATOM     13  C   UNL     1       8.527   1.613  21.588  0.00  0.00    +0.112 C 
ENDBRANCH   4   7
BRANCH   1  15
ATOM     14  C   UNL     1       9.184  -4.646  25.724  0.00  0.00    +0.277 C 
ATOM     15  O   UNL     1       9.522  -4.251  24.398  0.00  0.00    -0.491 OA
ENDBRANCH   1  15
BRANCH   2  16
ATOM     16  O   UNL     1       7.669  -3.651  22.230  0.00  0.00    -0.485 OA
BRANCH  16  17
ATOM     17  C   UNL     1       6.287  -3.951  22.416  0.00  0.00    +0.174 C 
ATOM     18  C   UNL     1       5.913  -4.083  23.900  0.00  0.00    +0.044 C 
ATOM     19  C   UNL     1       5.083  -5.359  24.049  0.00  0.00    +0.004 C 
ATOM     20  C   UNL     1       4.822  -5.850  22.635  0.00  0.00    +0.004 C 
ATOM     21  C   UNL     1       6.038  -5.364  21.869  0.00  0.00    +0.044 C 
ENDBRANCH  16  17
ENDBRANCH   2  16
TORSDOF 4
ENDMDL
MODEL 3
REMARK VINA RESULT:      -6.3      2.534      6.017
REMARK  Name = 
REMARK  5 active torsions:
REMARK  status: ('A' for Active; 'I' for Inactive)
REMARK    1  A    between atoms: C_1  and  O_2
REMARK    2  A    between atoms: O_2  and  C_3
REMARK    3  A    between atoms: C_6  and  C_15
REMARK    4  A    between atoms: C_8  and  O_9
REMARK    5  A    between atoms: O_9  and  C_10
REMARK                            x       y       z     vdW  Elec       q    Type
REMARK                         _______ _______ _______ _____ _____    ______ ____
ROOT
ATOM      1  C   UNL     1       8.446  -1.968  26.179  0.00  0.00    +0.162 A 
ATOM      2  C   UNL     1       9.000  -2.022  24.891  0.00  0.00    +0.163 A 
ATOM      3  C   UNL     1       8.591  -3.044  24.011  0.00  0.00    +0.053 A 
ATOM      4  C   UNL     1       7.677  -4.037  24.393  0.00  0.00    -0.039 A 
ATOM      5  C   UNL     1       7.115  -3.949  25.669  0.00  0.00    +0.008 A 
ATOM      6  C   UNL     1       7.502  -2.938  26.549  0.00  0.00    +0.049 A 
ENDROOT
BRANCH   4   7
ATOM      7  C   UNL     1       7.258  -5.201  23.509  0.00  0.00    +0.045 C 
ATOM      8  C   UNL     1       5.841  -5.695  23.829  0.00  0.00    +0.105 C 
ATOM      9  C   UNL     1       4.998  -5.048  22.756  0.00  0.00    +0.214 C 
ATOM     10  O   UNL     1       3.779  -5.015  22.721  0.00  0.00    -0.276 OA
ATOM     11  N   UNL     1       5.831  -4.560  21.776  0.00  0.00    -0.315 N 
ATOM     12  H   UNL     1       5.447  -4.182  20.918  0.00  0.00    +0.149 HD
ATOM     13  C   UNL     1       7.202  -4.899  22.010  0.00  0.00    +0.112 C 
ENDBRANCH   4   7
BRANCH   1  15
ATOM     14  C   UNL     1       7.858  -0.007  27.386  0.00  0.00    +0.277 C 
ATOM     15  O   UNL     1       8.842  -0.973  27.032  0.00  0.00    -0.491 OA
ENDBRANCH   1  15
BRANCH   2  16
ATOM     16  O   UNL     1       9.859  -1.129  24.304  0.00  0.00    -0.485 OA
BRANCH  16  17
ATOM     17  C   UNL     1       9.397   0.156  23.892  0.00  0.00    +0.174 C 
ATOM     18  C   UNL     1       9.403   0.316  22.365  0.00  0.00    +0.044 C 
ATOM     19  C   UNL     1      10.058   1.662  22.050  0.00  0.00    +0.004 C 
ATOM     20  C   UNL     1      10.249   2.352  23.390  0.00  0.00    +0.004 C 
ATOM     21  C   UNL     1      10.430   1.193  24.354  0.00  0.00    +0.044 C 
ENDBRANCH  16  17
ENDBRANCH   2  16
TORSDOF 4
ENDMDL
MODEL 4
REMARK VINA RESULT:      -6.1      2.878      6.389
REMARK  Name = 
REMARK  5 active torsions:
REMARK  status: ('A' for Active; 'I' for Inactive)
REMARK    1  A    between atoms: C_1  and  O_2
REMARK    2  A    between atoms: O_2  and  C_3
REMARK    3  A    between atoms: C_6  and  C_15
REMARK    4  A    between atoms: C_8  and  O_9
REMARK    5  A    between atoms: O_9  and  C_10
REMARK                            x       y       z     vdW  Elec       q    Type
REMARK                         _______ _______ _______ _____ _____    ______ ____
ROOT
ATOM      1  C   UNL     1       9.680  -0.954  23.399  0.00  0.00    +0.162 A 
ATOM      2  C   UNL     1       8.452  -0.621  22.807  0.00  0.00    +0.163 A 
ATOM      3  C   UNL     1       7.377  -1.529  22.898  0.00  0.00    +0.053 A 
ATOM      4  C   UNL     1       7.506  -2.777  23.526  0.00  0.00    -0.039 A 
ATOM      5  C   UNL     1       8.727  -3.078  24.134  0.00  0.00    +0.008 A 
ATOM      6  C   UNL     1       9.797  -2.187  24.061  0.00  0.00    +0.049 A 
ENDROOT
BRANCH   4   7
ATOM      7  C   UNL     1       6.402  -3.821  23.589  0.00  0.00    +0.045 C 
ATOM      8  C   UNL     1       5.591  -3.891  22.288  0.00  0.00    +0.105 C 
ATOM      9  C   UNL     1       6.183  -5.084  21.576  0.00  0.00    +0.214 C 
ATOM     10  O   UNL     1       5.969  -5.410  20.420  0.00  0.00    -0.276 OA
ATOM     11  N   UNL     1       6.950  -5.794  22.469  0.00  0.00    -0.315 N 
ATOM     12  H   UNL     1       7.347  -6.689  22.207  0.00  0.00    +0.149 HD
ATOM     13  C   UNL     1       6.874  -5.262  23.796  0.00  0.00    +0.112 C 
ENDBRANCH   4   7
BRANCH   1  15
ATOM     14  C   UNL     1      11.033   0.665  24.491  0.00  0.00    +0.277 C 
ATOM     15  O   UNL     1      10.722  -0.071  23.312  0.00  0.00    -0.491 OA
ENDBRANCH   1  15
BRANCH   2  16
ATOM     16  O   UNL     1       8.101   0.557  22.200  0.00  0.00    -0.485 OA
BRANCH  16  17
ATOM     17  C   UNL     1       7.652   1.666  22.976  0.00  0.00    +0.174 C 
ATOM     18  C   UNL     1       6.312   2.224  22.475  0.00  0.00    +0.044 C 
ATOM     19  C   UNL     1       6.454   3.745  22.390  0.00  0.00    +0.004 C 
ATOM     20  C   UNL     1       7.797   4.070  23.020  0.00  0.00    +0.004 C 
ATOM     21  C   UNL     1       8.624   2.829  22.734  0.00  0.00    +0.044 C 
ENDBRANCH  16  17
ENDBRANCH   2  16
TORSDOF 4
ENDMDL
MODEL 5
REMARK VINA RESULT:      -5.7      2.685      6.800
REMARK  Name = 
REMARK  5 active torsions:
REMARK  status: ('A' for Active; 'I' for Inactive)
REMARK    1  A    between atoms: C_1  and  O_2
REMARK    2  A    between atoms: O_2  and  C_3
REMARK    3  A    between atoms: C_6  and  C_15
REMARK    4  A    between atoms: C_8  and  O_9
REMARK    5  A    between atoms: O_9  and  C_10
REMARK                            x       y       z     vdW  Elec       q    Type
REMARK                         _______ _______ _______ _____ _____    ______ ____
ROOT
ATOM      1  C   UNL     1      10.148   2.482  23.460  0.00  0.00    +0.162 A 
ATOM      2  C   UNL     1       9.062   2.114  22.651  0.00  0.00    +0.163 A 
ATOM      3  C   UNL     1       8.812   0.747  22.417  0.00  0.00    +0.053 A 
ATOM      4  C   UNL     1       9.640  -0.262  22.933  0.00  0.00    -0.039 A 
ATOM      5  C   UNL     1      10.698   0.123  23.759  0.00  0.00    +0.008 A 
ATOM      6  C   UNL     1      10.953   1.471  24.009  0.00  0.00    +0.049 A 
ENDROOT
BRANCH   4   7
ATOM      7  C   UNL     1       9.459  -1.745  22.652  0.00  0.00    +0.045 C 
ATOM      8  C   UNL     1       9.888  -2.620  23.837  0.00  0.00    +0.105 C 
ATOM      9  C   UNL     1       8.579  -2.957  24.510  0.00  0.00    +0.214 C 
ATOM     10  O   UNL     1       8.448  -3.487  25.601  0.00  0.00    -0.276 OA
ATOM     11  N   UNL     1       7.549  -2.635  23.657  0.00  0.00    -0.315 N 
ATOM     12  H   UNL     1       6.595  -2.885  23.888  0.00  0.00    +0.149 HD
ATOM     13  C   UNL     1       8.019  -2.189  22.381  0.00  0.00    +0.112 C 
ENDBRANCH   4   7
BRANCH   1  15
ATOM     14  C   UNL     1      11.679   4.295  23.338  0.00  0.00    +0.277 C 
ATOM     15  O   UNL     1      10.387   3.810  23.689  0.00  0.00    -0.491 OA
ENDBRANCH   1  15
BRANCH   2  16
ATOM     16  O   UNL     1       8.108   2.930  22.100  0.00  0.00    -0.485 OA
BRANCH  16  17
ATOM     17  C   UNL     1       7.070   3.480  22.909  0.00  0.00    +0.174 C 
ATOM     18  C   UNL     1       5.711   2.813  22.647  0.00  0.00    +0.044 C 
ATOM     19  C   UNL     1       4.679   3.932  22.488  0.00  0.00    +0.004 C 
ATOM     20  C   UNL     1       5.403   5.218  22.847  0.00  0.00    +0.004 C 
ATOM     21  C   UNL     1       6.841   4.927  22.453  0.00  0.00    +0.044 C 
ENDBRANCH  16  17
ENDBRANCH   2  16
TORSDOF 4
ENDMDL
MODEL 6
REMARK VINA RESULT:      -5.6      1.913      2.774
REMARK  Name = 
REMARK  5 active torsions:
REMARK  status: ('A' for Active; 'I' for Inactive)
REMARK    1  A    between atoms: C_1  and  O_2
REMARK    2  A    between atoms: O_2  and  C_3
REMARK    3  A    between atoms: C_6  and  C_15
REMARK    4  A    between atoms: C_8  and  O_9
REMARK    5  A    between atoms: O_9  and  C_10
REMARK                            x       y       z     vdW  Elec       q    Type
REMARK                         _______ _______ _______ _____ _____    ______ ____
ROOT
ATOM      1  C   UNL     1       7.228  -5.139  25.678  0.00  0.00    +0.162 A 
ATOM      2  C   UNL     1       6.868  -4.909  24.342  0.00  0.00    +0.163 A 
ATOM      3  C   UNL     1       7.618  -3.992  23.577  0.00  0.00    +0.053 A 
ATOM      4  C   UNL     1       8.690  -3.268  24.120  0.00  0.00    -0.039 A 
ATOM      5  C   UNL     1       9.051  -3.532  25.443  0.00  0.00    +0.008 A 
ATOM      6  C   UNL     1       8.326  -4.443  26.210  0.00  0.00    +0.049 A 
ENDROOT
BRANCH   4   7
ATOM      7  C   UNL     1       9.484  -2.217  23.361  0.00  0.00    +0.045 C 
ATOM      8  C   UNL     1       8.660  -1.554  22.248  0.00  0.00    +0.105 C 
ATOM      9  C   UNL     1       8.221  -0.251  22.872  0.00  0.00    +0.214 C 
ATOM     10  O   UNL     1       7.395   0.521  22.415  0.00  0.00    -0.276 OA
ATOM     11  N   UNL     1       8.961  -0.036  24.011  0.00  0.00    -0.315 N 
ATOM     12  H   UNL     1       8.886   0.841  24.514  0.00  0.00    +0.149 HD
ATOM     13  C   UNL     1       9.972  -1.032  24.199  0.00  0.00    +0.112 C 
ENDBRANCH   4   7
BRANCH   1  15
ATOM     14  C   UNL     1       6.373  -5.751  27.809  0.00  0.00    +0.277 C 
ATOM     15  O   UNL     1       6.501  -6.031  26.419  0.00  0.00    -0.491 OA
ENDBRANCH   1  15
BRANCH   2  16
ATOM     16  O   UNL     1       5.900  -5.544  23.609  0.00  0.00    -0.485 OA
BRANCH  16  17
ATOM     17  C   UNL     1       4.674  -4.883  23.300  0.00  0.00    +0.174 C 
ATOM     18  C   UNL     1       4.136  -4.068  24.484  0.00  0.00    +0.044 C 
ATOM     19  C   UNL     1       2.649  -4.400  24.628  0.00  0.00    +0.004 C 
ATOM     20  C   UNL     1       2.296  -5.249  23.418  0.00  0.00    +0.004 C 
ATOM     21  C   UNL     1       3.600  -5.961  23.102  0.00  0.00    +0.044 C 
ENDBRANCH  16  17
ENDBRANCH   2  16
TORSDOF 4
ENDMDL
MODEL 7
REMARK VINA RESULT:      -5.6      3.302      6.355
REMARK  Name = 
REMARK  5 active torsions:
REMARK  status: ('A' for Active; 'I' for Inactive)
REMARK    1  A    between atoms: C_1  and  O_2
REMARK    2  A    between atoms: O_2  and  C_3
REMARK    3  A    between atoms: C_6  and  C_15
REMARK    4  A    between atoms: C_8  and  O_9
REMARK    5  A    between atoms: O_9  and  C_10
REMARK                            x       y       z     vdW  Elec       q    Type
REMARK                         _______ _______ _______ _____ _____    ______ ____
ROOT
ATOM      1  C   UNL     1       8.781  -1.337  22.762  0.00  0.00    +0.162 A 
ATOM      2  C   UNL     1       7.630  -1.137  23.538  0.00  0.00    +0.163 A 
ATOM      3  C   UNL     1       7.513  -1.799  24.777  0.00  0.00    +0.053 A 
ATOM      4  C   UNL     1       8.493  -2.688  25.244  0.00  0.00    -0.039 A 
ATOM      5  C   UNL     1       9.645  -2.852  24.471  0.00  0.00    +0.008 A 
ATOM      6  C   UNL     1       9.780  -2.196  23.248  0.00  0.00    +0.049 A 
ENDROOT
BRANCH   4   7
ATOM      7  C   UNL     1       8.383  -3.482  26.535  0.00  0.00    +0.045 C 
ATOM      8  C   UNL     1       6.961  -4.004  26.780  0.00  0.00    +0.105 C 
ATOM      9  C   UNL     1       7.038  -5.442  26.327  0.00  0.00    +0.214 C 
ATOM     10  O   UNL     1       6.093  -6.198  26.172  0.00  0.00    -0.276 OA
ATOM     11  N   UNL     1       8.361  -5.790  26.187  0.00  0.00    -0.315 N 
ATOM     12  H   UNL     1       8.621  -6.750  25.991  0.00  0.00    +0.149 HD
ATOM     13  C   UNL     1       9.245  -4.745  26.605  0.00  0.00    +0.112 C 
ENDBRANCH   4   7
BRANCH   1  15
ATOM     14  C   UNL     1       9.646   0.519  21.557  0.00  0.00    +0.277 C 
ATOM     15  O   UNL     1       8.895  -0.691  21.561  0.00  0.00    -0.491 OA
ENDBRANCH   1  15
BRANCH   2  16
ATOM     16  O   UNL     1       6.589  -0.278  23.296  0.00  0.00    -0.485 OA
BRANCH  16  17
ATOM     17  C   UNL     1       6.633   1.066  23.770  0.00  0.00    +0.174 C 
ATOM     18  C   UNL     1       5.443   1.404  24.679  0.00  0.00    +0.044 C 
ATOM     19  C   UNL     1       4.878   2.747  24.210  0.00  0.00    +0.004 C 
ATOM     20  C   UNL     1       5.854   3.265  23.167  0.00  0.00    +0.004 C 
ATOM     21  C   UNL     1       6.424   1.993  22.564  0.00  0.00    +0.044 C 
ENDBRANCH  16  17
ENDBRANCH   2  16
TORSDOF 4
ENDMDL
MODEL 8
REMARK VINA RESULT:      -5.6      1.546      3.383
REMARK  Name = 
REMARK  5 active torsions:
REMARK  status: ('A' for Active; 'I' for Inactive)
REMARK    1  A    between atoms: C_1  and  O_2
REMARK    2  A    between atoms: O_2  and  C_3
REMARK    3  A    between atoms: C_6  and  C_15
REMARK    4  A    between atoms: C_8  and  O_9
REMARK    5  A    between atoms: O_9  and  C_10
REMARK                            x       y       z     vdW  Elec       q    Type
REMARK                         _______ _______ _______ _____ _____    ______ ____
ROOT
ATOM      1  C   UNL     1       6.980  -2.961  23.339  0.00  0.00    +0.162 A 
ATOM      2  C   UNL     1       7.258  -2.215  24.494  0.00  0.00    +0.163 A 
ATOM      3  C   UNL     1       8.303  -1.269  24.466  0.00  0.00    +0.053 A 
ATOM      4  C   UNL     1       9.105  -1.078  23.331  0.00  0.00    -0.039 A 
ATOM      5  C   UNL     1       8.794  -1.809  22.182  0.00  0.00    +0.008 A 
ATOM      6  C   UNL     1       7.758  -2.741  22.191  0.00  0.00    +0.049 A 
ENDROOT
BRANCH   4   7
ATOM      7  C   UNL     1      10.288  -0.125  23.270  0.00  0.00    +0.045 C 
ATOM      8  C   UNL     1      10.013   1.091  22.375  0.00  0.00    +0.105 C 
ATOM      9  C   UNL     1       9.654   2.174  23.364  0.00  0.00    +0.214 C 
ATOM     10  O   UNL     1       9.185   3.267  23.093  0.00  0.00    -0.276 OA
ATOM     11  N   UNL     1      10.013   1.757  24.624  0.00  0.00    -0.315 N 
ATOM     12  H   UNL     1       9.948   2.391  25.412  0.00  0.00    +0.149 HD
ATOM     13  C   UNL     1      10.697   0.500  24.607  0.00  0.00    +0.112 C 
ENDBRANCH   4   7
BRANCH   1  15
ATOM     14  C   UNL     1       5.955  -4.853  22.331  0.00  0.00    +0.277 C 
ATOM     15  O   UNL     1       5.963  -3.877  23.368  0.00  0.00    -0.491 OA
ENDBRANCH   1  15
BRANCH   2  16
ATOM     16  O   UNL     1       6.569  -2.208  25.679  0.00  0.00    -0.485 OA
BRANCH  16  17
ATOM     17  C   UNL     1       6.943  -3.084  26.741  0.00  0.00    +0.174 C 
ATOM     18  C   UNL     1       8.227  -3.865  26.427  0.00  0.00    +0.044 C 
ATOM     19  C   UNL     1       7.965  -5.331  26.778  0.00  0.00    +0.004 C 
ATOM     20  C   UNL     1       6.611  -5.356  27.466  0.00  0.00    +0.004 C 
ATOM     21  C   UNL     1       5.879  -4.186  26.834  0.00  0.00    +0.044 C 
ENDBRANCH  16  17
ENDBRANCH   2  16
TORSDOF 4
ENDMDL
MODEL 9
REMARK VINA RESULT:      -5.5      2.559      3.804
REMARK  Name = 
REMARK  5 active torsions:
REMARK  status: ('A' for Active; 'I' for Inactive)
REMARK    1  A    between atoms: C_1  and  O_2
REMARK    2  A    between atoms: O_2  and  C_3
REMARK    3  A    between atoms: C_6  and  C_15
REMARK    4  A    between atoms: C_8  and  O_9
REMARK    5  A    between atoms: O_9  and  C_10
REMARK                            x       y       z     vdW  Elec       q    Type
REMARK                         _______ _______ _______ _____ _____    ______ ____
ROOT
ATOM      1  C   UNL     1       9.013  -0.706  22.106  0.00  0.00    +0.162 A 
ATOM      2  C   UNL     1       7.770  -0.810  22.747  0.00  0.00    +0.163 A 
ATOM      3  C   UNL     1       6.923   0.317  22.788  0.00  0.00    +0.053 A 
ATOM      4  C   UNL     1       7.300   1.554  22.245  0.00  0.00    -0.039 A 
ATOM      5  C   UNL     1       8.529   1.629  21.585  0.00  0.00    +0.008 A 
ATOM      6  C   UNL     1       9.374   0.521  21.527  0.00  0.00    +0.049 A 
ENDROOT
BRANCH   4   7
ATOM      7  C   UNL     1       6.457   2.816  22.325  0.00  0.00    +0.045 C 
ATOM      8  C   UNL     1       5.700   2.928  23.655  0.00  0.00    +0.105 C 
ATOM      9  C   UNL     1       6.552   3.880  24.460  0.00  0.00    +0.214 C 
ATOM     10  O   UNL     1       6.432   4.122  25.649  0.00  0.00    -0.276 OA
ATOM     11  N   UNL     1       7.447   4.492  23.614  0.00  0.00    -0.315 N 
ATOM     12  H   UNL     1       8.038   5.245  23.949  0.00  0.00    +0.149 HD
ATOM     13  C   UNL     1       7.236   4.132  22.245  0.00  0.00    +0.112 C 
ENDBRANCH   4   7
BRANCH   1  15
ATOM     14  C   UNL     1      10.480  -2.161  23.281  0.00  0.00    +0.277 C 
ATOM     15  O   UNL     1       9.833  -1.802  22.064  0.00  0.00    -0.491 OA
ENDBRANCH   1  15
BRANCH   2  16
ATOM     16  O   UNL     1       7.191  -1.928  23.289  0.00  0.00    -0.485 OA
BRANCH  16  17
ATOM     17  C   UNL     1       6.366  -2.776  22.492  0.00  0.00    +0.174 C 
ATOM     18  C   UNL     1       5.146  -3.297  23.265  0.00  0.00    +0.044 C 
ATOM     19  C   UNL     1       5.053  -4.802  23.008  0.00  0.00    +0.004 C 
ATOM     20  C   UNL     1       6.094  -5.105  21.944  0.00  0.00    +0.004 C 
ATOM     21  C   UNL     1       7.161  -4.055  22.194  0.00  0.00    +0.044 C 
ENDBRANCH  16  17
ENDBRANCH   2  16
TORSDOF 4
ENDMDL
