MODEL 1
REMARK VINA RESULT:      -8.8      0.000      0.000
REMARK  Name = 
REMARK  3 active torsions:
REMARK  status: ('A' for Active; 'I' for Inactive)
REMARK    1  A    between atoms: N_1  and  C_2
REMARK    2  A    between atoms: C_2  and  C_3
REMARK    3  A    between atoms: C_6  and  C_9
REMARK                            x       y       z     vdW  Elec       q    Type
REMARK                         _______ _______ _______ _____ _____    ______ ____
ROOT
ATOM      1  C   UNL     1       8.081   2.446  23.561  0.00  0.00    +0.247 C 
ATOM      2  N   UNL     1       8.173   1.058  23.368  0.00  0.00    -0.297 N 
ATOM      3  C   UNL     1       9.378   0.265  23.134  0.00  0.00    +0.114 C 
ATOM      4  C   UNL     1       9.535  -0.760  24.257  0.00  0.00    +0.097 C 
ATOM      5  C   UNL     1       8.302  -1.686  24.338  0.00  0.00    +0.220 C 
ATOM      6  N   UNL     1       8.435  -2.460  25.586  0.00  0.00    -0.056 NA
ATOM      7  C   UNL     1       7.912  -3.648  25.607  0.00  0.00    +0.318 C 
ATOM      8  N   UNL     1       8.041  -4.371  26.765  0.00  0.00    -0.246 N 
ATOM      9  H   UNL     1       8.311  -3.821  27.574  0.00  0.00    +0.288 HD
ATOM     10  H   UNL     1       7.385  -5.119  26.946  0.00  0.00    +0.288 HD
ATOM     11  C   UNL     1       7.211  -4.232  24.439  0.00  0.00    +0.121 A 
ATOM     12  C   UNL     1       7.427  -3.605  23.209  0.00  0.00    +0.048 A 
ATOM     13  C   UNL     1       6.851  -4.139  22.054  0.00  0.00    +0.024 A 
ATOM     14  C   UNL     1       5.993  -5.237  22.135  0.00  0.00    +0.005 A 
ATOM     15  C   UNL     1       5.744  -5.829  23.372  0.00  0.00    +0.039 A 
ATOM     16  C   UNL     1       6.366  -5.335  24.517  0.00  0.00    +0.140 A 
ATOM     17  F   UNL     1       6.110  -5.931  25.693  0.00  0.00    -0.205 F 
ATOM     18  N   UNL     1       8.286  -2.510  23.122  0.00  0.00    -0.300 N 
ATOM     19  H   UNL     1       8.192  -1.993  22.254  0.00  0.00    +0.150 HD
ATOM     20  C   UNL     1       7.017  -0.822  24.446  0.00  0.00    +0.097 C 
ATOM     21  C   UNL     1       6.946   0.266  23.376  0.00  0.00    +0.114 C 
ATOM     22  O   UNL     1       7.001   3.020  23.656  0.00  0.00    -0.270 OA
ENDROOT
BRANCH   1  26
ATOM     23  C   UNL     1      11.538   5.005  23.556  0.00  0.00    -0.034 A 
ATOM     24  C   UNL     1      10.259   5.516  23.818  0.00  0.00    +0.005 A 
ATOM     25  C   UNL     1       9.149   4.664  23.839  0.00  0.00    +0.013 A 
ATOM     26  C   UNL     1       9.306   3.290  23.613  0.00  0.00    +0.037 A 
ATOM     27  C   UNL     1      10.595   2.768  23.478  0.00  0.00    +0.013 A 
ATOM     28  C   UNL     1      11.695   3.624  23.399  0.00  0.00    +0.005 A 
BRANCH  23  29
ATOM     29  C   UNL     1      12.731   5.918  23.429  0.00  0.00    +0.113 C 
BRANCH  29  30
ATOM     30  N   UNL     1      13.937   5.161  23.113  0.00  0.00    -0.326 NA
ATOM     31  H   UNL     1      13.746   4.168  23.244  0.00  0.00    +0.119 HD
ATOM     32  H   UNL     1      14.160   5.283  22.127  0.00  0.00    +0.119 HD
ENDBRANCH  29  30
ENDBRANCH  23  29
ENDBRANCH   1  26
TORSDOF 3
ENDMDL
MODEL 2
REMARK VINA RESULT:      -8.7      3.362      8.910
REMARK  Name = 
REMARK  3 active torsions:
REMARK  status: ('A' for Active; 'I' for Inactive)
REMARK    1  A    between atoms: N_1  and  C_2
REMARK    2  A    between atoms: C_2  and  C_3
REMARK    3  A    between atoms: C_6  and  C_9
REMARK                            x       y       z     vdW  Elec       q    Type
REMARK                         _______ _______ _______ _____ _____    ______ ____
ROOT
ATOM      1  C   UNL     1       8.697  -1.723  24.755  0.00  0.00    +0.247 C 
ATOM      2  N   UNL     1       9.160  -0.534  24.170  0.00  0.00    -0.297 N 
ATOM      3  C   UNL     1       9.137  -0.164  22.757  0.00  0.00    +0.114 C 
ATOM      4  C   UNL     1       8.299   1.102  22.579  0.00  0.00    +0.097 C 
ATOM      5  C   UNL     1       8.869   2.265  23.419  0.00  0.00    +0.220 C 
ATOM      6  N   UNL     1       7.868   3.347  23.378  0.00  0.00    -0.056 NA
ATOM      7  C   UNL     1       8.305   4.566  23.473  0.00  0.00    +0.318 C 
ATOM      8  N   UNL     1       7.376   5.572  23.428  0.00  0.00    -0.246 N 
ATOM      9  H   UNL     1       6.419   5.266  23.577  0.00  0.00    +0.288 HD
ATOM     10  H   UNL     1       7.613   6.471  23.829  0.00  0.00    +0.288 HD
ATOM     11  C   UNL     1       9.746   4.888  23.609  0.00  0.00    +0.121 A 
ATOM     12  C   UNL     1      10.643   3.865  23.291  0.00  0.00    +0.048 A 
ATOM     13  C   UNL     1      12.016   4.116  23.334  0.00  0.00    +0.024 A 
ATOM     14  C   UNL     1      12.495   5.350  23.777  0.00  0.00    +0.005 A 
ATOM     15  C   UNL     1      11.595   6.351  24.139  0.00  0.00    +0.039 A 
ATOM     16  C   UNL     1      10.224   6.122  24.039  0.00  0.00    +0.140 A 
ATOM     17  F   UNL     1       9.383   7.108  24.389  0.00  0.00    -0.205 F 
ATOM     18  N   UNL     1      10.169   2.631  22.843  0.00  0.00    -0.300 N 
ATOM     19  H   UNL     1      10.871   1.900  22.866  0.00  0.00    +0.150 HD
ATOM     20  C   UNL     1       9.019   1.808  24.895  0.00  0.00    +0.097 C 
ATOM     21  C   UNL     1       9.764   0.481  25.029  0.00  0.00    +0.114 C 
ATOM     22  O   UNL     1       8.853  -1.966  25.947  0.00  0.00    -0.270 OA
ENDROOT
BRANCH   1  26
ATOM     23  C   UNL     1       6.955  -4.806  22.313  0.00  0.00    -0.034 A 
ATOM     24  C   UNL     1       7.836  -5.120  23.357  0.00  0.00    +0.005 A 
ATOM     25  C   UNL     1       8.374  -4.106  24.157  0.00  0.00    +0.013 A 
ATOM     26  C   UNL     1       8.028  -2.767  23.932  0.00  0.00    +0.037 A 
ATOM     27  C   UNL     1       7.054  -2.471  22.974  0.00  0.00    +0.013 A 
ATOM     28  C   UNL     1       6.562  -3.475  22.139  0.00  0.00    +0.005 A 
BRANCH  23  29
ATOM     29  C   UNL     1       6.443  -5.871  21.378  0.00  0.00    +0.113 C 
BRANCH  29  30
ATOM     30  N   UNL     1       5.079  -6.258  21.722  0.00  0.00    -0.326 NA
ATOM     31  H   UNL     1       4.876  -5.939  22.669  0.00  0.00    +0.119 HD
ATOM     32  H   UNL     1       4.429  -5.772  21.109  0.00  0.00    +0.119 HD
ENDBRANCH  29  30
ENDBRANCH  23  29
ENDBRANCH   1  26
TORSDOF 3
ENDMDL
MODEL 3
REMARK VINA RESULT:      -8.6      3.684      9.465
REMARK  Name = 
REMARK  3 active torsions:
REMARK  status: ('A' for Active; 'I' for Inactive)
REMARK    1  A    between atoms: N_1  and  C_2
REMARK    2  A    between atoms: C_2  and  C_3
REMARK    3  A    between atoms: C_6  and  C_9
REMARK                            x       y       z     vdW  Elec       q    Type
REMARK                         _______ _______ _______ _____ _____    ______ ____
ROOT
ATOM      1  C   UNL     1       5.482  -5.342  22.647  0.00  0.00    +0.247 C 
ATOM      2  N   UNL     1       5.674  -3.971  22.880  0.00  0.00    -0.297 N 
ATOM      3  C   UNL     1       4.896  -3.093  23.752  0.00  0.00    +0.114 C 
ATOM      4  C   UNL     1       5.810  -2.515  24.833  0.00  0.00    +0.097 C 
ATOM      5  C   UNL     1       6.981  -1.729  24.205  0.00  0.00    +0.220 C 
ATOM      6  N   UNL     1       7.924  -1.431  25.299  0.00  0.00    -0.056 NA
ATOM      7  C   UNL     1       8.632  -0.348  25.194  0.00  0.00    +0.318 C 
ATOM      8  N   UNL     1       9.504  -0.066  26.214  0.00  0.00    -0.246 N 
ATOM      9  H   UNL     1       9.697  -0.850  26.829  0.00  0.00    +0.288 HD
ATOM     10  H   UNL     1      10.289   0.544  26.027  0.00  0.00    +0.288 HD
ATOM     11  C   UNL     1       8.514   0.574  24.039  0.00  0.00    +0.121 A 
ATOM     12  C   UNL     1       7.379   0.421  23.238  0.00  0.00    +0.048 A 
ATOM     13  C   UNL     1       7.169   1.297  22.170  0.00  0.00    +0.024 A 
ATOM     14  C   UNL     1       8.126   2.260  21.847  0.00  0.00    +0.005 A 
ATOM     15  C   UNL     1       9.280   2.376  22.622  0.00  0.00    +0.039 A 
ATOM     16  C   UNL     1       9.462   1.543  23.724  0.00  0.00    +0.140 A 
ATOM     17  F   UNL     1      10.580   1.683  24.454  0.00  0.00    -0.205 F 
ATOM     18  N   UNL     1       6.418  -0.537  23.558  0.00  0.00    -0.300 N 
ATOM     19  H   UNL     1       5.770  -0.725  22.801  0.00  0.00    +0.150 HD
ATOM     20  C   UNL     1       7.713  -2.633  23.177  0.00  0.00    +0.097 C 
ATOM     21  C   UNL     1       6.757  -3.285  22.179  0.00  0.00    +0.114 C 
ATOM     22  O   UNL     1       6.142  -5.960  21.818  0.00  0.00    -0.270 OA
ENDROOT
BRANCH   1  26
ATOM     23  C   UNL     1       2.560  -7.694  24.752  0.00  0.00    -0.034 A 
ATOM     24  C   UNL     1       3.829  -7.457  25.297  0.00  0.00    +0.005 A 
ATOM     25  C   UNL     1       4.759  -6.670  24.609  0.00  0.00    +0.013 A 
ATOM     26  C   UNL     1       4.426  -6.097  23.374  0.00  0.00    +0.037 A 
ATOM     27  C   UNL     1       3.120  -6.230  22.895  0.00  0.00    +0.013 A 
ATOM     28  C   UNL     1       2.213  -7.063  23.552  0.00  0.00    +0.005 A 
BRANCH  23  29
ATOM     29  C   UNL     1       1.582  -8.620  25.427  0.00  0.00    +0.113 C 
BRANCH  29  30
ATOM     30  N   UNL     1       2.031 -10.005  25.345  0.00  0.00    -0.326 NA
ATOM     31  H   UNL     1       2.934 -10.087  25.811  0.00  0.00    +0.119 HD
ATOM     32  H   UNL     1       1.385 -10.598  25.862  0.00  0.00    +0.119 HD
ENDBRANCH  29  30
ENDBRANCH  23  29
ENDBRANCH   1  26
TORSDOF 3
ENDMDL
MODEL 4
REMARK VINA RESULT:      -8.4      3.809      5.830
REMARK  Name = 
REMARK  3 active torsions:
REMARK  status: ('A' for Active; 'I' for Inactive)
REMARK    1  A    between atoms: N_1  and  C_2
REMARK    2  A    between atoms: C_2  and  C_3
REMARK    3  A    between atoms: C_6  and  C_9
REMARK                            x       y       z     vdW  Elec       q    Type
REMARK                         _______ _______ _______ _____ _____    ______ ____
ROOT
ATOM      1  C   UNL     1       8.564  -3.643  24.156  0.00  0.00    +0.247 C 
ATOM      2  N   UNL     1       7.235  -3.787  24.585  0.00  0.00    -0.297 N 
ATOM      3  C   UNL     1       6.185  -2.771  24.603  0.00  0.00    +0.114 C 
ATOM      4  C   UNL     1       5.028  -3.224  23.713  0.00  0.00    +0.097 C 
ATOM      5  C   UNL     1       4.459  -4.578  24.192  0.00  0.00    +0.220 C 
ATOM      6  N   UNL     1       3.534  -5.042  23.142  0.00  0.00    -0.056 NA
ATOM      7  C   UNL     1       2.533  -5.780  23.516  0.00  0.00    +0.318 C 
ATOM      8  N   UNL     1       1.668  -6.206  22.542  0.00  0.00    -0.246 N 
ATOM      9  H   UNL     1       2.026  -6.117  21.595  0.00  0.00    +0.288 HD
ATOM     10  H   UNL     1       1.104  -7.028  22.718  0.00  0.00    +0.288 HD
ATOM     11  C   UNL     1       2.301  -6.150  24.933  0.00  0.00    +0.121 A 
ATOM     12  C   UNL     1       2.992  -5.403  25.890  0.00  0.00    +0.048 A 
ATOM     13  C   UNL     1       2.773  -5.653  27.247  0.00  0.00    +0.024 A 
ATOM     14  C   UNL     1       1.939  -6.699  27.647  0.00  0.00    +0.005 A 
ATOM     15  C   UNL     1       1.290  -7.472  26.685  0.00  0.00    +0.039 A 
ATOM     16  C   UNL     1       1.460  -7.185  25.332  0.00  0.00    +0.140 A 
ATOM     17  F   UNL     1       0.817  -7.943  24.431  0.00  0.00    -0.205 F 
ATOM     18  N   UNL     1       3.822  -4.354  25.495  0.00  0.00    -0.300 N 
ATOM     19  H   UNL     1       4.445  -4.038  26.230  0.00  0.00    +0.150 HD
ATOM     20  C   UNL     1       5.614  -5.609  24.301  0.00  0.00    +0.097 C 
ATOM     21  C   UNL     1       6.803  -5.083  25.103  0.00  0.00    +0.114 C 
ATOM     22  O   UNL     1       9.388  -4.544  24.274  0.00  0.00    -0.270 OA
ENDROOT
BRANCH   1  26
ATOM     23  C   UNL     1       9.830   0.170  22.619  0.00  0.00    -0.034 A 
ATOM     24  C   UNL     1      10.111  -0.208  23.939  0.00  0.00    +0.005 A 
ATOM     25  C   UNL     1       9.712  -1.462  24.415  0.00  0.00    +0.013 A 
ATOM     26  C   UNL     1       9.041  -2.359  23.573  0.00  0.00    +0.037 A 
ATOM     27  C   UNL     1       8.876  -2.029  22.225  0.00  0.00    +0.013 A 
ATOM     28  C   UNL     1       9.221  -0.757  21.766  0.00  0.00    +0.005 A 
BRANCH  23  29
ATOM     29  C   UNL     1      10.160   1.552  22.117  0.00  0.00    +0.113 C 
BRANCH  29  30
ATOM     30  N   UNL     1       9.037   2.123  21.382  0.00  0.00    -0.326 NA
ATOM     31  H   UNL     1       9.104   1.838  20.405  0.00  0.00    +0.119 HD
ATOM     32  H   UNL     1       8.169   1.729  21.738  0.00  0.00    +0.119 HD
ENDBRANCH  29  30
ENDBRANCH  23  29
ENDBRANCH   1  26
TORSDOF 3
ENDMDL
MODEL 5
REMARK VINA RESULT:      -8.4      3.334      8.888
REMARK  Name = 
REMARK  3 active torsions:
REMARK  status: ('A' for Active; 'I' for Inactive)
REMARK    1  A    between atoms: N_1  and  C_2
REMARK    2  A    between atoms: C_2  and  C_3
REMARK    3  A    between atoms: C_6  and  C_9
REMARK                            x       y       z     vdW  Elec       q    Type
REMARK                         _______ _______ _______ _____ _____    ______ ____
ROOT
ATOM      1  C   UNL     1       8.302  -1.942  25.124  0.00  0.00    +0.247 C 
ATOM      2  N   UNL     1       8.749  -0.784  24.467  0.00  0.00    -0.297 N 
ATOM      3  C   UNL     1       8.586  -0.436  23.057  0.00  0.00    +0.114 C 
ATOM      4  C   UNL     1       7.789   0.864  22.947  0.00  0.00    +0.097 C 
ATOM      5  C   UNL     1       8.498   2.014  23.695  0.00  0.00    +0.220 C 
ATOM      6  N   UNL     1       7.546   3.138  23.742  0.00  0.00    -0.056 NA
ATOM      7  C   UNL     1       8.042   4.338  23.763  0.00  0.00    +0.318 C 
ATOM      8  N   UNL     1       7.158   5.384  23.799  0.00  0.00    -0.246 N 
ATOM      9  H   UNL     1       6.211   5.124  24.057  0.00  0.00    +0.288 HD
ATOM     10  H   UNL     1       7.476   6.277  24.153  0.00  0.00    +0.288 HD
ATOM     11  C   UNL     1       9.502   4.597  23.735  0.00  0.00    +0.121 A 
ATOM     12  C   UNL     1      10.314   3.529  23.341  0.00  0.00    +0.048 A 
ATOM     13  C   UNL     1      11.693   3.719  23.229  0.00  0.00    +0.024 A 
ATOM     14  C   UNL     1      12.270   4.937  23.592  0.00  0.00    +0.005 A 
ATOM     15  C   UNL     1      11.459   5.983  24.030  0.00  0.00    +0.039 A 
ATOM     16  C   UNL     1      10.077   5.815  24.085  0.00  0.00    +0.140 A 
ATOM     17  F   UNL     1       9.323   6.843  24.504  0.00  0.00    -0.205 F 
ATOM     18  N   UNL     1       9.741   2.312  22.974  0.00  0.00    -0.300 N 
ATOM     19  H   UNL     1      10.409   1.550  22.935  0.00  0.00    +0.150 HD
ATOM     20  C   UNL     1       8.789   1.573  25.155  0.00  0.00    +0.097 C 
ATOM     21  C   UNL     1       9.486   0.216  25.235  0.00  0.00    +0.114 C 
ATOM     22  O   UNL     1       8.577  -2.173  26.296  0.00  0.00    -0.270 OA
ENDROOT
BRANCH   1  26
ATOM     23  C   UNL     1       5.867  -4.924  23.203  0.00  0.00    -0.034 A 
ATOM     24  C   UNL     1       5.312  -3.723  23.667  0.00  0.00    +0.005 A 
ATOM     25  C   UNL     1       6.123  -2.754  24.268  0.00  0.00    +0.013 A 
ATOM     26  C   UNL     1       7.502  -2.967  24.400  0.00  0.00    +0.037 A 
ATOM     27  C   UNL     1       8.070  -4.107  23.824  0.00  0.00    +0.013 A 
ATOM     28  C   UNL     1       7.254  -5.099  23.278  0.00  0.00    +0.005 A 
BRANCH  23  29
ATOM     29  C   UNL     1       4.998  -6.021  22.646  0.00  0.00    +0.113 C 
BRANCH  29  30
ATOM     30  N   UNL     1       4.747  -7.049  23.650  0.00  0.00    -0.326 NA
ATOM     31  H   UNL     1       5.323  -7.863  23.438  0.00  0.00    +0.119 HD
ATOM     32  H   UNL     1       5.051  -6.710  24.560  0.00  0.00    +0.119 HD
ENDBRANCH  29  30
ENDBRANCH  23  29
ENDBRANCH   1  26
TORSDOF 3
ENDMDL
MODEL 6
REMARK VINA RESULT:      -8.0      2.678      4.008
REMARK  Name = 
REMARK  3 active torsions:
REMARK  status: ('A' for Active; 'I' for Inactive)
REMARK    1  A    between atoms: N_1  and  C_2
REMARK    2  A    between atoms: C_2  and  C_3
REMARK    3  A    between atoms: C_6  and  C_9
REMARK                            x       y       z     vdW  Elec       q    Type
REMARK                         _______ _______ _______ _____ _____    ______ ____
ROOT
ATOM      1  C   UNL     1       9.868  -1.744  23.448  0.00  0.00    +0.247 C 
ATOM      2  N   UNL     1       8.787  -2.228  24.201  0.00  0.00    -0.297 N 
ATOM      3  C   UNL     1       7.797  -1.453  24.947  0.00  0.00    +0.114 C 
ATOM      4  C   UNL     1       6.404  -1.739  24.386  0.00  0.00    +0.097 C 
ATOM      5  C   UNL     1       6.070  -3.244  24.474  0.00  0.00    +0.220 C 
ATOM      6  N   UNL     1       4.836  -3.449  23.694  0.00  0.00    -0.056 NA
ATOM      7  C   UNL     1       4.050  -4.413  24.067  0.00  0.00    +0.318 C 
ATOM      8  N   UNL     1       2.899  -4.600  23.347  0.00  0.00    -0.246 N 
ATOM      9  H   UNL     1       2.888  -4.134  22.445  0.00  0.00    +0.288 HD
ATOM     10  H   UNL     1       2.451  -5.507  23.374  0.00  0.00    +0.288 HD
ATOM     11  C   UNL     1       4.352  -5.284  25.229  0.00  0.00    +0.121 A 
ATOM     12  C   UNL     1       5.330  -4.820  26.113  0.00  0.00    +0.048 A 
ATOM     13  C   UNL     1       5.620  -5.556  27.264  0.00  0.00    +0.024 A 
ATOM     14  C   UNL     1       5.005  -6.789  27.488  0.00  0.00    +0.005 A 
ATOM     15  C   UNL     1       4.066  -7.269  26.577  0.00  0.00    +0.039 A 
ATOM     16  C   UNL     1       3.730  -6.507  25.459  0.00  0.00    +0.140 A 
ATOM     17  F   UNL     1       2.817  -6.993  24.604  0.00  0.00    -0.205 F 
ATOM     18  N   UNL     1       5.943  -3.586  25.896  0.00  0.00    -0.300 N 
ATOM     19  H   UNL     1       6.785  -3.455  26.446  0.00  0.00    +0.150 HD
ATOM     20  C   UNL     1       7.203  -4.062  23.798  0.00  0.00    +0.097 C 
ATOM     21  C   UNL     1       8.592  -3.673  24.301  0.00  0.00    +0.114 C 
ATOM     22  O   UNL     1      10.694  -2.494  22.938  0.00  0.00    -0.270 OA
ENDROOT
BRANCH   1  26
ATOM     23  C   UNL     1      10.384   2.514  23.128  0.00  0.00    -0.034 A 
ATOM     24  C   UNL     1      10.930   1.797  24.201  0.00  0.00    +0.005 A 
ATOM     25  C   UNL     1      10.773   0.408  24.277  0.00  0.00    +0.013 A 
ATOM     26  C   UNL     1      10.080  -0.282  23.273  0.00  0.00    +0.037 A 
ATOM     27  C   UNL     1       9.647   0.419  22.143  0.00  0.00    +0.013 A 
ATOM     28  C   UNL     1       9.753   1.810  22.097  0.00  0.00    +0.005 A 
BRANCH  23  29
ATOM     29  C   UNL     1      10.455   4.019  23.080  0.00  0.00    +0.113 C 
BRANCH  29  30
ATOM     30  N   UNL     1      11.840   4.477  23.082  0.00  0.00    -0.326 NA
ATOM     31  H   UNL     1      12.283   4.189  22.210  0.00  0.00    +0.119 HD
ATOM     32  H   UNL     1      11.855   5.495  23.091  0.00  0.00    +0.119 HD
ENDBRANCH  29  30
ENDBRANCH  23  29
ENDBRANCH   1  26
TORSDOF 3
ENDMDL
MODEL 7
REMARK VINA RESULT:      -8.0      3.599      9.291
REMARK  Name = 
REMARK  3 active torsions:
REMARK  status: ('A' for Active; 'I' for Inactive)
REMARK    1  A    between atoms: N_1  and  C_2
REMARK    2  A    between atoms: C_2  and  C_3
REMARK    3  A    between atoms: C_6  and  C_9
REMARK                            x       y       z     vdW  Elec       q    Type
REMARK                         _______ _______ _______ _____ _____    ______ ____
ROOT
ATOM      1  C   UNL     1       6.927  -5.060  25.201  0.00  0.00    +0.247 C 
ATOM      2  N   UNL     1       7.048  -3.823  24.547  0.00  0.00    -0.297 N 
ATOM      3  C   UNL     1       6.024  -3.108  23.789  0.00  0.00    +0.114 C 
ATOM      4  C   UNL     1       5.768  -1.749  24.442  0.00  0.00    +0.097 C 
ATOM      5  C   UNL     1       7.062  -0.910  24.501  0.00  0.00    +0.220 C 
ATOM      6  N   UNL     1       6.773   0.255  25.357  0.00  0.00    -0.056 NA
ATOM      7  C   UNL     1       7.422   1.351  25.109  0.00  0.00    +0.318 C 
ATOM      8  N   UNL     1       7.148   2.437  25.900  0.00  0.00    -0.246 N 
ATOM      9  H   UNL     1       6.652   2.216  26.758  0.00  0.00    +0.288 HD
ATOM     10  H   UNL     1       7.841   3.171  25.974  0.00  0.00    +0.288 HD
ATOM     11  C   UNL     1       8.415   1.459  24.013  0.00  0.00    +0.121 A 
ATOM     12  C   UNL     1       8.380   0.453  23.044  0.00  0.00    +0.048 A 
ATOM     13  C   UNL     1       9.242   0.525  21.947  0.00  0.00    +0.024 A 
ATOM     14  C   UNL     1      10.193   1.543  21.862  0.00  0.00    +0.005 A 
ATOM     15  C   UNL     1      10.255   2.517  22.857  0.00  0.00    +0.039 A 
ATOM     16  C   UNL     1       9.355   2.481  23.921  0.00  0.00    +0.140 A 
ATOM     17  F   UNL     1       9.435   3.437  24.860  0.00  0.00    -0.205 F 
ATOM     18  N   UNL     1       7.428  -0.563  23.122  0.00  0.00    -0.300 N 
ATOM     19  H   UNL     1       7.634  -1.353  22.521  0.00  0.00    +0.150 HD
ATOM     20  C   UNL     1       8.181  -1.740  25.186  0.00  0.00    +0.097 C 
ATOM     21  C   UNL     1       8.336  -3.135  24.583  0.00  0.00    +0.114 C 
ATOM     22  O   UNL     1       7.885  -5.613  25.731  0.00  0.00    -0.270 OA
ENDROOT
BRANCH   1  26
ATOM     23  C   UNL     1       3.236  -7.254  25.464  0.00  0.00    -0.034 A 
ATOM     24  C   UNL     1       3.745  -6.557  26.569  0.00  0.00    +0.005 A 
ATOM     25  C   UNL     1       4.935  -5.828  26.458  0.00  0.00    +0.013 A 
ATOM     26  C   UNL     1       5.623  -5.776  25.238  0.00  0.00    +0.037 A 
ATOM     27  C   UNL     1       5.047  -6.367  24.110  0.00  0.00    +0.013 A 
ATOM     28  C   UNL     1       3.893  -7.141  24.234  0.00  0.00    +0.005 A 
BRANCH  23  29
ATOM     29  C   UNL     1       2.013  -8.125  25.588  0.00  0.00    +0.113 C 
BRANCH  29  30
ATOM     30  N   UNL     1       2.318  -9.507  25.235  0.00  0.00    -0.326 NA
ATOM     31  H   UNL     1       3.294  -9.566  24.946  0.00  0.00    +0.119 HD
ATOM     32  H   UNL     1       2.228 -10.092  26.064  0.00  0.00    +0.119 HD
ENDBRANCH  29  30
ENDBRANCH  23  29
ENDBRANCH   1  26
TORSDOF 3
ENDMDL
MODEL 8
REMARK VINA RESULT:      -8.0      1.722      2.535
REMARK  Name = 
REMARK  3 active torsions:
REMARK  status: ('A' for Active; 'I' for Inactive)
REMARK    1  A    between atoms: N_1  and  C_2
REMARK    2  A    between atoms: C_2  and  C_3
REMARK    3  A    between atoms: C_6  and  C_9
REMARK                            x       y       z     vdW  Elec       q    Type
REMARK                         _______ _______ _______ _____ _____    ______ ____
ROOT
ATOM      1  C   UNL     1       6.890   0.908  24.582  0.00  0.00    +0.247 C 
ATOM      2  N   UNL     1       6.779  -0.475  24.370  0.00  0.00    -0.297 N 
ATOM      3  C   UNL     1       7.721  -1.353  23.680  0.00  0.00    +0.114 C 
ATOM      4  C   UNL     1       8.217  -2.425  24.651  0.00  0.00    +0.097 C 
ATOM      5  C   UNL     1       7.040  -3.252  25.211  0.00  0.00    +0.220 C 
ATOM      6  N   UNL     1       7.584  -4.075  26.306  0.00  0.00    -0.056 NA
ATOM      7  C   UNL     1       7.012  -5.218  26.532  0.00  0.00    +0.318 C 
ATOM      8  N   UNL     1       7.521  -5.987  27.546  0.00  0.00    -0.246 N 
ATOM      9  H   UNL     1       8.134  -5.488  28.184  0.00  0.00    +0.288 HD
ATOM     10  H   UNL     1       6.927  -6.687  27.971  0.00  0.00    +0.288 HD
ATOM     11  C   UNL     1       5.860  -5.705  25.734  0.00  0.00    +0.121 A 
ATOM     12  C   UNL     1       5.630  -5.055  24.519  0.00  0.00    +0.048 A 
ATOM     13  C   UNL     1       4.603  -5.503  23.684  0.00  0.00    +0.024 A 
ATOM     14  C   UNL     1       3.755  -6.532  24.097  0.00  0.00    +0.005 A 
ATOM     15  C   UNL     1       3.961  -7.144  25.332  0.00  0.00    +0.039 A 
ATOM     16  C   UNL     1       5.022  -6.739  26.140  0.00  0.00    +0.140 A 
ATOM     17  F   UNL     1       5.198  -7.352  27.321  0.00  0.00    -0.205 F 
ATOM     18  N   UNL     1       6.478  -4.030  24.100  0.00  0.00    -0.300 N 
ATOM     19  H   UNL     1       6.095  -3.479  23.340  0.00  0.00    +0.150 HD
ATOM     20  C   UNL     1       5.980  -2.292  25.816  0.00  0.00    +0.097 C 
ATOM     21  C   UNL     1       5.589  -1.166  24.861  0.00  0.00    +0.114 C 
ATOM     22  O   UNL     1       5.988   1.563  25.095  0.00  0.00    -0.270 OA
ENDROOT
BRANCH   1  26
ATOM     23  C   UNL     1      10.455   3.073  23.531  0.00  0.00    -0.034 A 
ATOM     24  C   UNL     1      10.522   1.871  24.248  0.00  0.00    +0.005 A 
ATOM     25  C   UNL     1       9.354   1.167  24.561  0.00  0.00    +0.013 A 
ATOM     26  C   UNL     1       8.104   1.650  24.148  0.00  0.00    +0.037 A 
ATOM     27  C   UNL     1       8.052   2.780  23.326  0.00  0.00    +0.013 A 
ATOM     28  C   UNL     1       9.211   3.512  23.064  0.00  0.00    +0.005 A 
BRANCH  23  29
ATOM     29  C   UNL     1      11.690   3.897  23.272  0.00  0.00    +0.113 C 
BRANCH  29  30
ATOM     30  N   UNL     1      11.349   5.301  23.070  0.00  0.00    -0.326 NA
ATOM     31  H   UNL     1      12.150   5.778  22.656  0.00  0.00    +0.119 HD
ATOM     32  H   UNL     1      10.592   5.367  22.393  0.00  0.00    +0.119 HD
ENDBRANCH  29  30
ENDBRANCH  23  29
ENDBRANCH   1  26
TORSDOF 3
ENDMDL
MODEL 9
REMARK VINA RESULT:      -7.9      3.651      5.647
REMARK  Name = 
REMARK  3 active torsions:
REMARK  status: ('A' for Active; 'I' for Inactive)
REMARK    1  A    between atoms: N_1  and  C_2
REMARK    2  A    between atoms: C_2  and  C_3
REMARK    3  A    between atoms: C_6  and  C_9
REMARK                            x       y       z     vdW  Elec       q    Type
REMARK                         _______ _______ _______ _____ _____    ______ ____
ROOT
ATOM      1  C   UNL     1       9.330  -3.296  24.609  0.00  0.00    +0.247 C 
ATOM      2  N   UNL     1       8.251  -3.412  25.499  0.00  0.00    -0.297 N 
ATOM      3  C   UNL     1       7.290  -2.378  25.879  0.00  0.00    +0.114 C 
ATOM      4  C   UNL     1       5.883  -2.827  25.485  0.00  0.00    +0.097 C 
ATOM      5  C   UNL     1       5.516  -4.163  26.167  0.00  0.00    +0.220 C 
ATOM      6  N   UNL     1       4.266  -4.629  25.540  0.00  0.00    -0.056 NA
ATOM      7  C   UNL     1       3.465  -5.344  26.270  0.00  0.00    +0.318 C 
ATOM      8  N   UNL     1       2.299  -5.772  25.690  0.00  0.00    -0.246 N 
ATOM      9  H   UNL     1       2.285  -5.703  24.677  0.00  0.00    +0.288 HD
ATOM     10  H   UNL     1       1.832  -6.581  26.078  0.00  0.00    +0.288 HD
ATOM     11  C   UNL     1       3.765  -5.688  27.681  0.00  0.00    +0.121 A 
ATOM     12  C   UNL     1       4.766  -4.937  28.302  0.00  0.00    +0.048 A 
ATOM     13  C   UNL     1       5.058  -5.161  29.649  0.00  0.00    +0.024 A 
ATOM     14  C   UNL     1       4.420  -6.187  30.349  0.00  0.00    +0.005 A 
ATOM     15  C   UNL     1       3.456  -6.964  29.709  0.00  0.00    +0.039 A 
ATOM     16  C   UNL     1       3.120  -6.702  28.382  0.00  0.00    +0.140 A 
ATOM     17  F   UNL     1       2.184  -7.464  27.796  0.00  0.00    -0.205 F 
ATOM     18  N   UNL     1       5.404  -3.908  27.609  0.00  0.00    -0.300 N 
ATOM     19  H   UNL     1       6.256  -3.590  28.057  0.00  0.00    +0.150 HD
ATOM     20  C   UNL     1       6.621  -5.211  25.867  0.00  0.00    +0.097 C 
ATOM     21  C   UNL     1       8.026  -4.691  26.166  0.00  0.00    +0.114 C 
ATOM     22  O   UNL     1      10.132  -4.209  24.436  0.00  0.00    -0.270 OA
ENDROOT
BRANCH   1  26
ATOM     23  C   UNL     1       9.904   0.463  22.599  0.00  0.00    -0.034 A 
ATOM     24  C   UNL     1      10.275   0.295  23.941  0.00  0.00    +0.005 A 
ATOM     25  C   UNL     1      10.103  -0.942  24.572  0.00  0.00    +0.013 A 
ATOM     26  C   UNL     1       9.572  -2.030  23.865  0.00  0.00    +0.037 A 
ATOM     27  C   UNL     1       9.323  -1.893  22.497  0.00  0.00    +0.013 A 
ATOM     28  C   UNL     1       9.439  -0.645  21.883  0.00  0.00    +0.005 A 
BRANCH  23  29
ATOM     29  C   UNL     1       9.987   1.811  21.931  0.00  0.00    +0.113 C 
BRANCH  29  30
ATOM     30  N   UNL     1       8.670   2.257  21.489  0.00  0.00    -0.326 NA
ATOM     31  H   UNL     1       7.958   1.775  22.038  0.00  0.00    +0.119 HD
ATOM     32  H   UNL     1       8.567   3.249  21.692  0.00  0.00    +0.119 HD
ENDBRANCH  29  30
ENDBRANCH  23  29
ENDBRANCH   1  26
TORSDOF 3
ENDMDL
