MODEL 1
REMARK VINA RESULT:      -8.1      0.000      0.000
REMARK  Name = 
REMARK  8 active torsions:
REMARK  status: ('A' for Active; 'I' for Inactive)
REMARK    1  A    between atoms: C_1  and  O_2
REMARK    2  A    between atoms: O_2  and  C_3
REMARK    3  A    between atoms: C_5  and  C_9
REMARK    4  A    between atoms: C_11  and  C_12
REMARK    5  A    between atoms: C_12  and  C_13
REMARK    6  A    between atoms: C_13  and  C_14
REMARK    7  A    between atoms: C_14  and  C_15
REMARK    8  A    between atoms: N_19  and  C_20
REMARK                            x       y       z     vdW  Elec       q    Type
REMARK                         _______ _______ _______ _____ _____    ______ ____
ROOT
ATOM      1  C   UNL     1       9.835   1.896  23.135  0.00  0.00    -0.018 A 
ATOM      2  C   UNL     1       9.677   1.535  21.784  0.00  0.00    +0.008 A 
ATOM      3  C   UNL     1       9.476   0.205  21.400  0.00  0.00    +0.001 A 
ATOM      4  C   UNL     1       9.408  -0.799  22.361  0.00  0.00    +0.003 A 
ATOM      5  C   UNL     1       9.531  -0.484  23.717  0.00  0.00    -0.047 A 
ATOM      6  C   UNL     1       9.741   0.859  24.086  0.00  0.00    +0.012 A 
ENDROOT
BRANCH   1  11
ATOM      7  C   UNL     1      11.717   5.191  23.626  0.00  0.00    +0.121 A 
ATOM      8  C   UNL     1      10.718   6.000  24.160  0.00  0.00    +0.045 A 
ATOM      9  C   UNL     1       9.452   5.471  24.399  0.00  0.00    +0.004 A 
ATOM     10  C   UNL     1       9.180   4.135  24.085  0.00  0.00    +0.009 A 
ATOM     11  C   UNL     1      10.161   3.288  23.540  0.00  0.00    -0.014 A 
ATOM     12  C   UNL     1      11.438   3.846  23.342  0.00  0.00    +0.054 A 
BRANCH   7  14
ATOM     13  C   UNL     1      13.345   5.614  21.945  0.00  0.00    +0.277 C 
ATOM     14  O   UNL     1      12.990   5.593  23.322  0.00  0.00    -0.495 OA
ENDBRANCH   7  14
ENDBRANCH   1  11
BRANCH   5  15
ATOM     15  C   UNL     1       9.523  -1.582  24.761  0.00  0.00    +0.039 C 
BRANCH  15  16
ATOM     16  C   UNL     1       9.434  -2.992  24.161  0.00  0.00    +0.052 C 
BRANCH  16  17
ATOM     17  C   UNL     1       8.108  -3.755  24.445  0.00  0.00    +0.132 C 
ATOM     18  N   UNL     1       8.390  -4.747  25.476  0.00  0.00    -0.110 NA
ATOM     19  C   UNL     1       7.604  -4.957  26.467  0.00  0.00    +0.372 C 
ATOM     20  N   UNL     1       7.946  -5.991  27.285  0.00  0.00    -0.251 N 
ATOM     21  H   UNL     1       8.675  -6.551  26.854  0.00  0.00    +0.241 HD
ATOM     22  H   UNL     1       7.181  -6.567  27.612  0.00  0.00    +0.241 HD
ATOM     23  N   UNL     1       6.463  -4.236  26.713  0.00  0.00    -0.165 N 
ATOM     24  C   UNL     1       5.634  -4.532  27.872  0.00  0.00    +0.238 C 
ATOM     25  C   UNL     1       6.069  -3.198  25.893  0.00  0.00    +0.281 C 
ATOM     26  O   UNL     1       5.002  -2.594  26.031  0.00  0.00    -0.257 OA
ATOM     27  C   UNL     1       7.052  -2.733  24.859  0.00  0.00    +0.161 C 
ATOM     28  C   UNL     1       7.635  -4.532  23.204  0.00  0.00    +0.056 C 
ENDBRANCH  16  17
ENDBRANCH  15  16
ENDBRANCH   5  15
TORSDOF 5
ENDMDL
MODEL 2
REMARK VINA RESULT:      -7.8      1.530      1.870
REMARK  Name = 
REMARK  8 active torsions:
REMARK  status: ('A' for Active; 'I' for Inactive)
REMARK    1  A    between atoms: C_1  and  O_2
REMARK    2  A    between atoms: O_2  and  C_3
REMARK    3  A    between atoms: C_5  and  C_9
REMARK    4  A    between atoms: C_11  and  C_12
REMARK    5  A    between atoms: C_12  and  C_13
REMARK    6  A    between atoms: C_13  and  C_14
REMARK    7  A    between atoms: C_14  and  C_15
REMARK    8  A    between atoms: N_19  and  C_20
REMARK                            x       y       z     vdW  Elec       q    Type
REMARK                         _______ _______ _______ _____ _____    ______ ____
ROOT
ATOM      1  C   UNL     1       9.854   1.868  23.159  0.00  0.00    -0.018 A 
ATOM      2  C   UNL     1       9.722   1.459  21.820  0.00  0.00    +0.008 A 
ATOM      3  C   UNL     1       9.486   0.123  21.482  0.00  0.00    +0.001 A 
ATOM      4  C   UNL     1       9.357  -0.840  22.479  0.00  0.00    +0.003 A 
ATOM      5  C   UNL     1       9.452  -0.476  23.824  0.00  0.00    -0.047 A 
ATOM      6  C   UNL     1       9.698   0.873  24.147  0.00  0.00    +0.012 A 
ENDROOT
BRANCH   1  11
ATOM      7  C   UNL     1      11.850   5.099  23.626  0.00  0.00    +0.121 A 
ATOM      8  C   UNL     1      10.857   5.977  24.047  0.00  0.00    +0.045 A 
ATOM      9  C   UNL     1       9.553   5.516  24.219  0.00  0.00    +0.004 A 
ATOM     10  C   UNL     1       9.241   4.179  23.951  0.00  0.00    +0.009 A 
ATOM     11  C   UNL     1      10.217   3.263  23.520  0.00  0.00    -0.014 A 
ATOM     12  C   UNL     1      11.529   3.754  23.389  0.00  0.00    +0.054 A 
BRANCH   7  14
ATOM     13  C   UNL     1      13.527   5.693  22.048  0.00  0.00    +0.277 C 
ATOM     14  O   UNL     1      13.159   5.429  23.397  0.00  0.00    -0.495 OA
ENDBRANCH   7  14
ENDBRANCH   1  11
BRANCH   5  15
ATOM     15  C   UNL     1       9.377  -1.530  24.909  0.00  0.00    +0.039 C 
BRANCH  15  16
ATOM     16  C   UNL     1       7.987  -2.169  25.042  0.00  0.00    +0.052 C 
BRANCH  16  17
ATOM     17  C   UNL     1       7.922  -3.694  24.740  0.00  0.00    +0.132 C 
ATOM     18  N   UNL     1       7.084  -4.304  25.764  0.00  0.00    -0.110 NA
ATOM     19  C   UNL     1       6.193  -5.187  25.494  0.00  0.00    +0.372 C 
ATOM     20  N   UNL     1       5.569  -5.746  26.568  0.00  0.00    -0.251 N 
ATOM     21  H   UNL     1       6.059  -5.502  27.423  0.00  0.00    +0.241 HD
ATOM     22  H   UNL     1       5.397  -6.741  26.510  0.00  0.00    +0.241 HD
ATOM     23  N   UNL     1       5.876  -5.599  24.225  0.00  0.00    -0.165 N 
ATOM     24  C   UNL     1       4.839  -6.596  24.006  0.00  0.00    +0.238 C 
ATOM     25  C   UNL     1       6.504  -5.075  23.113  0.00  0.00    +0.281 C 
ATOM     26  O   UNL     1       6.310  -5.491  21.968  0.00  0.00    -0.257 OA
ATOM     27  C   UNL     1       7.378  -3.873  23.324  0.00  0.00    +0.161 C 
ATOM     28  C   UNL     1       9.311  -4.345  24.860  0.00  0.00    +0.056 C 
ENDBRANCH  16  17
ENDBRANCH  15  16
ENDBRANCH   5  15
TORSDOF 5
ENDMDL
MODEL 3
REMARK VINA RESULT:      -7.7      1.588      2.194
REMARK  Name = 
REMARK  8 active torsions:
REMARK  status: ('A' for Active; 'I' for Inactive)
REMARK    1  A    between atoms: C_1  and  O_2
REMARK    2  A    between atoms: O_2  and  C_3
REMARK    3  A    between atoms: C_5  and  C_9
REMARK    4  A    between atoms: C_11  and  C_12
REMARK    5  A    between atoms: C_12  and  C_13
REMARK    6  A    between atoms: C_13  and  C_14
REMARK    7  A    between atoms: C_14  and  C_15
REMARK    8  A    between atoms: N_19  and  C_20
REMARK                            x       y       z     vdW  Elec       q    Type
REMARK                         _______ _______ _______ _____ _____    ______ ____
ROOT
ATOM      1  C   UNL     1       8.938   1.536  23.706  0.00  0.00    -0.018 A 
ATOM      2  C   UNL     1       9.990   1.047  24.501  0.00  0.00    +0.008 A 
ATOM      3  C   UNL     1      10.144  -0.319  24.754  0.00  0.00    +0.001 A 
ATOM      4  C   UNL     1       9.257  -1.239  24.202  0.00  0.00    +0.003 A 
ATOM      5  C   UNL     1       8.212  -0.803  23.382  0.00  0.00    -0.047 A 
ATOM      6  C   UNL     1       8.067   0.578  23.144  0.00  0.00    +0.012 A 
ENDROOT
BRANCH   1  11
ATOM      7  C   UNL     1       9.402   5.332  23.810  0.00  0.00    +0.121 A 
ATOM      8  C   UNL     1       8.335   5.761  23.027  0.00  0.00    +0.045 A 
ATOM      9  C   UNL     1       7.444   4.828  22.500  0.00  0.00    +0.004 A 
ATOM     10  C   UNL     1       7.633   3.463  22.743  0.00  0.00    +0.009 A 
ATOM     11  C   UNL     1       8.702   2.992  23.526  0.00  0.00    -0.014 A 
ATOM     12  C   UNL     1       9.563   3.963  24.070  0.00  0.00    +0.054 A 
BRANCH   7  14
ATOM     13  C   UNL     1      11.693   5.961  23.909  0.00  0.00    +0.277 C 
ATOM     14  O   UNL     1      10.358   6.141  24.365  0.00  0.00    -0.495 OA
ENDBRANCH   7  14
ENDBRANCH   1  11
BRANCH   5  15
ATOM     15  C   UNL     1       7.207  -1.793  22.833  0.00  0.00    +0.039 C 
BRANCH  15  16
ATOM     16  C   UNL     1       7.846  -3.098  22.337  0.00  0.00    +0.052 C 
BRANCH  16  17
ATOM     17  C   UNL     1       7.477  -4.373  23.150  0.00  0.00    +0.132 C 
ATOM     18  N   UNL     1       8.654  -4.753  23.921  0.00  0.00    -0.110 NA
ATOM     19  C   UNL     1       8.589  -5.116  25.149  0.00  0.00    +0.372 C 
ATOM     20  N   UNL     1       9.758  -5.549  25.701  0.00  0.00    -0.251 N 
ATOM     21  H   UNL     1      10.454  -5.694  24.976  0.00  0.00    +0.241 HD
ATOM     22  H   UNL     1       9.686  -6.352  26.312  0.00  0.00    +0.241 HD
ATOM     23  N   UNL     1       7.437  -5.118  25.893  0.00  0.00    -0.165 N 
ATOM     24  C   UNL     1       7.455  -5.531  27.288  0.00  0.00    +0.238 C 
ATOM     25  C   UNL     1       6.230  -4.711  25.363  0.00  0.00    +0.281 C 
ATOM     26  O   UNL     1       5.161  -4.790  25.974  0.00  0.00    -0.257 OA
ATOM     27  C   UNL     1       6.263  -4.046  24.018  0.00  0.00    +0.161 C 
ATOM     28  C   UNL     1       7.158  -5.555  22.218  0.00  0.00    +0.056 C 
ENDBRANCH  16  17
ENDBRANCH  15  16
ENDBRANCH   5  15
TORSDOF 5
ENDMDL
MODEL 4
REMARK VINA RESULT:      -7.6      1.994      3.177
REMARK  Name = 
REMARK  8 active torsions:
REMARK  status: ('A' for Active; 'I' for Inactive)
REMARK    1  A    between atoms: C_1  and  O_2
REMARK    2  A    between atoms: O_2  and  C_3
REMARK    3  A    between atoms: C_5  and  C_9
REMARK    4  A    between atoms: C_11  and  C_12
REMARK    5  A    between atoms: C_12  and  C_13
REMARK    6  A    between atoms: C_13  and  C_14
REMARK    7  A    between atoms: C_14  and  C_15
REMARK    8  A    between atoms: N_19  and  C_20
REMARK                            x       y       z     vdW  Elec       q    Type
REMARK                         _______ _______ _______ _____ _____    ______ ____
ROOT
ATOM      1  C   UNL     1      10.016   2.218  23.254  0.00  0.00    -0.018 A 
ATOM      2  C   UNL     1       9.863   1.726  21.945  0.00  0.00    +0.008 A 
ATOM      3  C   UNL     1       9.574   0.381  21.697  0.00  0.00    +0.001 A 
ATOM      4  C   UNL     1       9.411  -0.508  22.756  0.00  0.00    +0.003 A 
ATOM      5  C   UNL     1       9.527  -0.059  24.074  0.00  0.00    -0.047 A 
ATOM      6  C   UNL     1       9.826   1.298  24.306  0.00  0.00    +0.012 A 
ENDROOT
BRANCH   1  11
ATOM      7  C   UNL     1       9.993   5.852  24.452  0.00  0.00    +0.121 A 
ATOM      8  C   UNL     1      11.303   6.237  24.185  0.00  0.00    +0.045 A 
ATOM      9  C   UNL     1      12.180   5.338  23.581  0.00  0.00    +0.004 A 
ATOM     10  C   UNL     1      11.749   4.046  23.262  0.00  0.00    +0.009 A 
ATOM     11  C   UNL     1      10.434   3.619  23.521  0.00  0.00    -0.014 A 
ATOM     12  C   UNL     1       9.566   4.562  24.101  0.00  0.00    +0.054 A 
BRANCH   7  14
ATOM     13  C   UNL     1       8.411   6.084  26.212  0.00  0.00    +0.277 C 
ATOM     14  O   UNL     1       9.043   6.628  25.060  0.00  0.00    -0.495 OA
ENDBRANCH   7  14
ENDBRANCH   1  11
BRANCH   5  15
ATOM     15  C   UNL     1       9.415  -1.036  25.227  0.00  0.00    +0.039 C 
BRANCH  15  16
ATOM     16  C   UNL     1       7.970  -1.271  25.688  0.00  0.00    +0.052 C 
BRANCH  16  17
ATOM     17  C   UNL     1       7.430  -2.716  25.477  0.00  0.00    +0.132 C 
ATOM     18  N   UNL     1       6.486  -2.669  24.367  0.00  0.00    -0.110 NA
ATOM     19  C   UNL     1       6.465  -3.554  23.440  0.00  0.00    +0.372 C 
ATOM     20  N   UNL     1       5.455  -3.438  22.533  0.00  0.00    -0.251 N 
ATOM     21  H   UNL     1       4.765  -2.770  22.862  0.00  0.00    +0.241 HD
ATOM     22  H   UNL     1       5.022  -4.305  22.241  0.00  0.00    +0.241 HD
ATOM     23  N   UNL     1       7.360  -4.590  23.341  0.00  0.00    -0.165 N 
ATOM     24  C   UNL     1       7.273  -5.543  22.246  0.00  0.00    +0.238 C 
ATOM     25  C   UNL     1       8.381  -4.756  24.254  0.00  0.00    +0.281 C 
ATOM     26  O   UNL     1       9.142  -5.728  24.249  0.00  0.00    -0.257 OA
ATOM     27  C   UNL     1       8.622  -3.635  25.223  0.00  0.00    +0.161 C 
ATOM     28  C   UNL     1       6.641  -3.200  26.707  0.00  0.00    +0.056 C 
ENDBRANCH  16  17
ENDBRANCH  15  16
ENDBRANCH   5  15
TORSDOF 5
ENDMDL
MODEL 5
REMARK VINA RESULT:      -7.5      1.037      1.831
REMARK  Name = 
REMARK  8 active torsions:
REMARK  status: ('A' for Active; 'I' for Inactive)
REMARK    1  A    between atoms: C_1  and  O_2
REMARK    2  A    between atoms: O_2  and  C_3
REMARK    3  A    between atoms: C_5  and  C_9
REMARK    4  A    between atoms: C_11  and  C_12
REMARK    5  A    between atoms: C_12  and  C_13
REMARK    6  A    between atoms: C_13  and  C_14
REMARK    7  A    between atoms: C_14  and  C_15
REMARK    8  A    between atoms: N_19  and  C_20
REMARK                            x       y       z     vdW  Elec       q    Type
REMARK                         _______ _______ _______ _____ _____    ______ ____
ROOT
ATOM      1  C   UNL     1       9.899   1.987  23.089  0.00  0.00    -0.018 A 
ATOM      2  C   UNL     1       9.730   1.547  21.763  0.00  0.00    +0.008 A 
ATOM      3  C   UNL     1       9.502   0.200  21.463  0.00  0.00    +0.001 A 
ATOM      4  C   UNL     1       9.419  -0.742  22.484  0.00  0.00    +0.003 A 
ATOM      5  C   UNL     1       9.553  -0.347  23.817  0.00  0.00    -0.047 A 
ATOM      6  C   UNL     1       9.790   1.012  24.102  0.00  0.00    +0.012 A 
ENDROOT
BRANCH   1  11
ATOM      7  C   UNL     1       9.687   5.590  24.361  0.00  0.00    +0.121 A 
ATOM      8  C   UNL     1      10.995   6.025  24.172  0.00  0.00    +0.045 A 
ATOM      9  C   UNL     1      11.933   5.170  23.597  0.00  0.00    +0.004 A 
ATOM     10  C   UNL     1      11.565   3.871  23.228  0.00  0.00    +0.009 A 
ATOM     11  C   UNL     1      10.254   3.394  23.407  0.00  0.00    -0.014 A 
ATOM     12  C   UNL     1       9.325   4.295  23.960  0.00  0.00    +0.054 A 
BRANCH   7  14
ATOM     13  C   UNL     1       8.723   6.472  26.348  0.00  0.00    +0.277 C 
ATOM     14  O   UNL     1       8.681   6.320  24.934  0.00  0.00    -0.495 OA
ENDBRANCH   7  14
ENDBRANCH   1  11
BRANCH   5  15
ATOM     15  C   UNL     1       9.528  -1.378  24.926  0.00  0.00    +0.039 C 
BRANCH  15  16
ATOM     16  C   UNL     1       9.507  -2.825  24.412  0.00  0.00    +0.052 C 
BRANCH  16  17
ATOM     17  C   UNL     1       8.159  -3.580  24.603  0.00  0.00    +0.132 C 
ATOM     18  N   UNL     1       8.384  -4.627  25.592  0.00  0.00    -0.110 NA
ATOM     19  C   UNL     1       7.555  -4.875  26.538  0.00  0.00    +0.372 C 
ATOM     20  N   UNL     1       7.848  -5.955  27.315  0.00  0.00    -0.251 N 
ATOM     21  H   UNL     1       8.586  -6.504  26.886  0.00  0.00    +0.241 HD
ATOM     22  H   UNL     1       7.062  -6.534  27.580  0.00  0.00    +0.241 HD
ATOM     23  N   UNL     1       6.415  -4.149  26.774  0.00  0.00    -0.165 N 
ATOM     24  C   UNL     1       5.534  -4.490  27.881  0.00  0.00    +0.238 C 
ATOM     25  C   UNL     1       6.070  -3.065  25.993  0.00  0.00    +0.281 C 
ATOM     26  O   UNL     1       5.006  -2.451  26.119  0.00  0.00    -0.257 OA
ATOM     27  C   UNL     1       7.101  -2.563  25.025  0.00  0.00    +0.161 C 
ATOM     28  C   UNL     1       7.728  -4.285  23.305  0.00  0.00    +0.056 C 
ENDBRANCH  16  17
ENDBRANCH  15  16
ENDBRANCH   5  15
TORSDOF 5
ENDMDL
MODEL 6
REMARK VINA RESULT:      -7.3      1.779      2.510
REMARK  Name = 
REMARK  8 active torsions:
REMARK  status: ('A' for Active; 'I' for Inactive)
REMARK    1  A    between atoms: C_1  and  O_2
REMARK    2  A    between atoms: O_2  and  C_3
REMARK    3  A    between atoms: C_5  and  C_9
REMARK    4  A    between atoms: C_11  and  C_12
REMARK    5  A    between atoms: C_12  and  C_13
REMARK    6  A    between atoms: C_13  and  C_14
REMARK    7  A    between atoms: C_14  and  C_15
REMARK    8  A    between atoms: N_19  and  C_20
REMARK                            x       y       z     vdW  Elec       q    Type
REMARK                         _______ _______ _______ _____ _____    ______ ____
ROOT
ATOM      1  C   UNL     1       9.833   1.882  23.183  0.00  0.00    -0.018 A 
ATOM      2  C   UNL     1       9.760   1.371  21.874  0.00  0.00    +0.008 A 
ATOM      3  C   UNL     1       9.537   0.012  21.630  0.00  0.00    +0.001 A 
ATOM      4  C   UNL     1       9.363  -0.872  22.691  0.00  0.00    +0.003 A 
ATOM      5  C   UNL     1       9.400  -0.405  24.008  0.00  0.00    -0.047 A 
ATOM      6  C   UNL     1       9.633   0.966  24.236  0.00  0.00    +0.012 A 
ENDROOT
BRANCH   1  11
ATOM      7  C   UNL     1       9.630   5.510  24.382  0.00  0.00    +0.121 A 
ATOM      8  C   UNL     1      10.920   5.959  24.117  0.00  0.00    +0.045 A 
ATOM      9  C   UNL     1      11.841   5.104  23.515  0.00  0.00    +0.004 A 
ATOM     10  C   UNL     1      11.475   3.793  23.194  0.00  0.00    +0.009 A 
ATOM     11  C   UNL     1      10.182   3.301  23.451  0.00  0.00    -0.014 A 
ATOM     12  C   UNL     1       9.268   4.201  24.030  0.00  0.00    +0.054 A 
BRANCH   7  14
ATOM     13  C   UNL     1       7.835   5.556  25.941  0.00  0.00    +0.277 C 
ATOM     14  O   UNL     1       8.643   6.238  24.989  0.00  0.00    -0.495 OA
ENDBRANCH   7  14
ENDBRANCH   1  11
BRANCH   5  15
ATOM     15  C   UNL     1       9.276  -1.373  25.166  0.00  0.00    +0.039 C 
BRANCH  15  16
ATOM     16  C   UNL     1       7.900  -2.049  25.250  0.00  0.00    +0.052 C 
BRANCH  16  17
ATOM     17  C   UNL     1       7.861  -3.539  24.801  0.00  0.00    +0.132 C 
ATOM     18  N   UNL     1       7.344  -4.316  25.921  0.00  0.00    -0.110 NA
ATOM     19  C   UNL     1       6.474  -5.246  25.775  0.00  0.00    +0.372 C 
ATOM     20  N   UNL     1       6.172  -5.958  26.897  0.00  0.00    -0.251 N 
ATOM     21  H   UNL     1       6.842  -5.752  27.631  0.00  0.00    +0.241 HD
ATOM     22  H   UNL     1       6.057  -6.955  26.769  0.00  0.00    +0.241 HD
ATOM     23  N   UNL     1       5.879  -5.565  24.580  0.00  0.00    -0.165 N 
ATOM     24  C   UNL     1       4.888  -6.627  24.505  0.00  0.00    +0.238 C 
ATOM     25  C   UNL     1       6.177  -4.885  23.417  0.00  0.00    +0.281 C 
ATOM     26  O   UNL     1       5.733  -5.208  22.311  0.00  0.00    -0.257 OA
ATOM     27  C   UNL     1       6.997  -3.634  23.546  0.00  0.00    +0.161 C 
ATOM     28  C   UNL     1       9.276  -4.070  24.511  0.00  0.00    +0.056 C 
ENDBRANCH  16  17
ENDBRANCH  15  16
ENDBRANCH   5  15
TORSDOF 5
ENDMDL
MODEL 7
REMARK VINA RESULT:      -7.3      4.145      8.730
REMARK  Name = 
REMARK  8 active torsions:
REMARK  status: ('A' for Active; 'I' for Inactive)
REMARK    1  A    between atoms: C_1  and  O_2
REMARK    2  A    between atoms: O_2  and  C_3
REMARK    3  A    between atoms: C_5  and  C_9
REMARK    4  A    between atoms: C_11  and  C_12
REMARK    5  A    between atoms: C_12  and  C_13
REMARK    6  A    between atoms: C_13  and  C_14
REMARK    7  A    between atoms: C_14  and  C_15
REMARK    8  A    between atoms: N_19  and  C_20
REMARK                            x       y       z     vdW  Elec       q    Type
REMARK                         _______ _______ _______ _____ _____    ______ ____
ROOT
ATOM      1  C   UNL     1       8.816  -2.396  23.898  0.00  0.00    -0.018 A 
ATOM      2  C   UNL     1       8.821  -2.423  22.491  0.00  0.00    +0.008 A 
ATOM      3  C   UNL     1       9.391  -1.389  21.741  0.00  0.00    +0.001 A 
ATOM      4  C   UNL     1       9.988  -0.306  22.380  0.00  0.00    +0.003 A 
ATOM      5  C   UNL     1      10.031  -0.250  23.775  0.00  0.00    -0.047 A 
ATOM      6  C   UNL     1       9.446  -1.296  24.516  0.00  0.00    +0.012 A 
ENDROOT
BRANCH   1  11
ATOM      7  C   UNL     1       6.450  -5.233  24.896  0.00  0.00    +0.121 A 
ATOM      8  C   UNL     1       6.901  -5.528  26.179  0.00  0.00    +0.045 A 
ATOM      9  C   UNL     1       7.940  -4.784  26.736  0.00  0.00    +0.004 A 
ATOM     10  C   UNL     1       8.540  -3.757  25.999  0.00  0.00    +0.009 A 
ATOM     11  C   UNL     1       8.115  -3.433  24.699  0.00  0.00    -0.014 A 
ATOM     12  C   UNL     1       7.042  -4.181  24.180  0.00  0.00    +0.054 A 
BRANCH   7  14
ATOM     13  C   UNL     1       5.064  -5.368  22.969  0.00  0.00    +0.277 C 
ATOM     14  O   UNL     1       5.458  -5.900  24.229  0.00  0.00    -0.495 OA
ENDBRANCH   7  14
ENDBRANCH   1  11
BRANCH   5  15
ATOM     15  C   UNL     1      10.622   0.958  24.474  0.00  0.00    +0.039 C 
BRANCH  15  16
ATOM     16  C   UNL     1      10.499   2.253  23.659  0.00  0.00    +0.052 C 
BRANCH  16  17
ATOM     17  C   UNL     1       9.200   3.075  23.905  0.00  0.00    +0.132 C 
ATOM     18  N   UNL     1       9.588   4.474  24.027  0.00  0.00    -0.110 NA
ATOM     19  C   UNL     1       8.938   5.424  23.461  0.00  0.00    +0.372 C 
ATOM     20  N   UNL     1       9.356   6.687  23.759  0.00  0.00    -0.251 N 
ATOM     21  H   UNL     1      10.000   6.666  24.543  0.00  0.00    +0.241 HD
ATOM     22  H   UNL     1       8.624   7.371  23.899  0.00  0.00    +0.241 HD
ATOM     23  N   UNL     1       7.865   5.235  22.628  0.00  0.00    -0.165 N 
ATOM     24  C   UNL     1       7.193   6.371  22.015  0.00  0.00    +0.238 C 
ATOM     25  C   UNL     1       7.396   3.973  22.322  0.00  0.00    +0.281 C 
ATOM     26  O   UNL     1       6.378   3.773  21.655  0.00  0.00    -0.257 OA
ATOM     27  C   UNL     1       8.244   2.809  22.744  0.00  0.00    +0.161 C 
ATOM     28  C   UNL     1       8.537   2.683  25.237  0.00  0.00    +0.056 C 
ENDBRANCH  16  17
ENDBRANCH  15  16
ENDBRANCH   5  15
TORSDOF 5
ENDMDL
MODEL 8
REMARK VINA RESULT:      -7.3      3.965      9.493
REMARK  Name = 
REMARK  8 active torsions:
REMARK  status: ('A' for Active; 'I' for Inactive)
REMARK    1  A    between atoms: C_1  and  O_2
REMARK    2  A    between atoms: O_2  and  C_3
REMARK    3  A    between atoms: C_5  and  C_9
REMARK    4  A    between atoms: C_11  and  C_12
REMARK    5  A    between atoms: C_12  and  C_13
REMARK    6  A    between atoms: C_13  and  C_14
REMARK    7  A    between atoms: C_14  and  C_15
REMARK    8  A    between atoms: N_19  and  C_20
REMARK                            x       y       z     vdW  Elec       q    Type
REMARK                         _______ _______ _______ _____ _____    ______ ____
ROOT
ATOM      1  C   UNL     1       6.237  -5.166  25.204  0.00  0.00    -0.018 A 
ATOM      2  C   UNL     1       6.612  -5.599  26.489  0.00  0.00    +0.008 A 
ATOM      3  C   UNL     1       7.856  -5.275  27.038  0.00  0.00    +0.001 A 
ATOM      4  C   UNL     1       8.755  -4.490  26.322  0.00  0.00    +0.003 A 
ATOM      5  C   UNL     1       8.416  -4.013  25.053  0.00  0.00    -0.047 A 
ATOM      6  C   UNL     1       7.161  -4.356  24.512  0.00  0.00    +0.012 A 
ENDROOT
BRANCH   1  11
ATOM      7  C   UNL     1       3.216  -7.290  24.203  0.00  0.00    +0.121 A 
ATOM      8  C   UNL     1       2.451  -6.365  23.501  0.00  0.00    +0.045 A 
ATOM      9  C   UNL     1       2.928  -5.069  23.316  0.00  0.00    +0.004 A 
ATOM     10  C   UNL     1       4.165  -4.695  23.852  0.00  0.00    +0.009 A 
ATOM     11  C   UNL     1       4.966  -5.600  24.571  0.00  0.00    -0.014 A 
ATOM     12  C   UNL     1       4.468  -6.910  24.710  0.00  0.00    +0.054 A 
BRANCH   7  14
ATOM     13  C   UNL     1       1.635  -8.770  25.186  0.00  0.00    +0.277 C 
ATOM     14  O   UNL     1       2.853  -8.582  24.474  0.00  0.00    -0.495 OA
ENDBRANCH   7  14
ENDBRANCH   1  11
BRANCH   5  15
ATOM     15  C   UNL     1       9.416  -3.214  24.243  0.00  0.00    +0.039 C 
BRANCH  15  16
ATOM     16  C   UNL     1       8.760  -2.261  23.234  0.00  0.00    +0.052 C 
BRANCH  16  17
ATOM     17  C   UNL     1       8.639  -0.780  23.696  0.00  0.00    +0.132 C 
ATOM     18  N   UNL     1       9.183   0.053  22.631  0.00  0.00    -0.110 NA
ATOM     19  C   UNL     1       8.612   1.133  22.238  0.00  0.00    +0.372 C 
ATOM     20  N   UNL     1       9.298   1.861  21.313  0.00  0.00    -0.251 N 
ATOM     21  H   UNL     1      10.250   1.518  21.233  0.00  0.00    +0.241 HD
ATOM     22  H   UNL     1       9.275   2.865  21.438  0.00  0.00    +0.241 HD
ATOM     23  N   UNL     1       7.406   1.584  22.710  0.00  0.00    -0.165 N 
ATOM     24  C   UNL     1       6.821   2.813  22.197  0.00  0.00    +0.238 C 
ATOM     25  C   UNL     1       6.693   0.887  23.665  0.00  0.00    +0.281 C 
ATOM     26  O   UNL     1       5.655   1.312  24.179  0.00  0.00    -0.257 OA
ATOM     27  C   UNL     1       7.169  -0.497  23.998  0.00  0.00    +0.161 C 
ATOM     28  C   UNL     1       9.496  -0.515  24.946  0.00  0.00    +0.056 C 
ENDBRANCH  16  17
ENDBRANCH  15  16
ENDBRANCH   5  15
TORSDOF 5
ENDMDL
MODEL 9
REMARK VINA RESULT:      -7.1      2.035      2.528
REMARK  Name = 
REMARK  8 active torsions:
REMARK  status: ('A' for Active; 'I' for Inactive)
REMARK    1  A    between atoms: C_1  and  O_2
REMARK    2  A    between atoms: O_2  and  C_3
REMARK    3  A    between atoms: C_5  and  C_9
REMARK    4  A    between atoms: C_11  and  C_12
REMARK    5  A    between atoms: C_12  and  C_13
REMARK    6  A    between atoms: C_13  and  C_14
REMARK    7  A    between atoms: C_14  and  C_15
REMARK    8  A    between atoms: N_19  and  C_20
REMARK                            x       y       z     vdW  Elec       q    Type
REMARK                         _______ _______ _______ _____ _____    ______ ____
ROOT
ATOM      1  C   UNL     1       9.137   1.912  23.876  0.00  0.00    -0.018 A 
ATOM      2  C   UNL     1      10.380   1.433  24.327  0.00  0.00    +0.008 A 
ATOM      3  C   UNL     1      10.568   0.089  24.665  0.00  0.00    +0.001 A 
ATOM      4  C   UNL     1       9.519  -0.818  24.544  0.00  0.00    +0.003 A 
ATOM      5  C   UNL     1       8.274  -0.393  24.073  0.00  0.00    -0.047 A 
ATOM      6  C   UNL     1       8.100   0.965  23.744  0.00  0.00    +0.012 A 
ENDROOT
BRANCH   1  11
ATOM      7  C   UNL     1       9.645   5.700  23.688  0.00  0.00    +0.121 A 
ATOM      8  C   UNL     1       8.514   6.093  22.979  0.00  0.00    +0.045 A 
ATOM      9  C   UNL     1       7.569   5.142  22.598  0.00  0.00    +0.004 A 
ATOM     10  C   UNL     1       7.767   3.793  22.912  0.00  0.00    +0.009 A 
ATOM     11  C   UNL     1       8.899   3.357  23.623  0.00  0.00    -0.014 A 
ATOM     12  C   UNL     1       9.816   4.347  24.021  0.00  0.00    +0.054 A 
BRANCH   7  14
ATOM     13  C   UNL     1      11.968   5.979  24.112  0.00  0.00    +0.277 C 
ATOM     14  O   UNL     1      10.655   6.528  24.098  0.00  0.00    -0.495 OA
ENDBRANCH   7  14
ENDBRANCH   1  11
BRANCH   5  15
ATOM     15  C   UNL     1       7.113  -1.363  24.001  0.00  0.00    +0.039 C 
BRANCH  15  16
ATOM     16  C   UNL     1       7.149  -2.439  25.096  0.00  0.00    +0.052 C 
BRANCH  16  17
ATOM     17  C   UNL     1       7.105  -3.909  24.588  0.00  0.00    +0.132 C 
ATOM     18  N   UNL     1       6.722  -4.747  25.718  0.00  0.00    -0.110 NA
ATOM     19  C   UNL     1       5.865  -5.697  25.616  0.00  0.00    +0.372 C 
ATOM     20  N   UNL     1       5.695  -6.463  26.729  0.00  0.00    -0.251 N 
ATOM     21  H   UNL     1       6.429  -6.268  27.403  0.00  0.00    +0.241 HD
ATOM     22  H   UNL     1       5.594  -7.457  26.569  0.00  0.00    +0.241 HD
ATOM     23  N   UNL     1       5.164  -5.983  24.472  0.00  0.00    -0.165 N 
ATOM     24  C   UNL     1       4.198  -7.071  24.447  0.00  0.00    +0.238 C 
ATOM     25  C   UNL     1       5.328  -5.246  23.316  0.00  0.00    +0.281 C 
ATOM     26  O   UNL     1       4.785  -5.536  22.247  0.00  0.00    -0.257 OA
ATOM     27  C   UNL     1       6.123  -3.978  23.421  0.00  0.00    +0.161 C 
ATOM     28  C   UNL     1       8.497  -4.384  24.138  0.00  0.00    +0.056 C 
ENDBRANCH  16  17
ENDBRANCH  15  16
ENDBRANCH   5  15
TORSDOF 5
ENDMDL
