MODEL 1
REMARK VINA RESULT:      -5.7      0.000      0.000
REMARK  Name = 
REMARK  12 active torsions:
REMARK  status: ('A' for Active; 'I' for Inactive)
REMARK    1  A    between atoms: C_1  and  C_2
REMARK    2  A    between atoms: N_4  and  C_5
REMARK    3  A    between atoms: C_7  and  O_9
REMARK    4  A    between atoms: C_10  and  O_12
REMARK    5  A    between atoms: C_13  and  C_15
REMARK    6  A    between atoms: C_15  and  O_16
REMARK    7  A    between atoms: C_18  and  O_20
REMARK    8  A    between atoms: O_20  and  C_21
REMARK    9  A    between atoms: C_21  and  C_22
REMARK   10  A    between atoms: C_22  and  N_24
REMARK   11  A    between atoms: C_22  and  C_25
REMARK   12  A    between atoms: C_25  and  O_26
REMARK                            x       y       z     vdW  Elec       q    Type
REMARK                         _______ _______ _______ _____ _____    ______ ____
ROOT
ATOM      1  C   UNK     1       8.974  -1.339  24.504  0.00  0.00    +0.160 C 
ATOM      2  C   UNK     1       7.728  -0.957  23.663  0.00  0.00    +0.273 C 
ATOM      3  O   UNK     1       7.990  -1.134  22.270  0.00  0.00    -0.341 OA
ATOM      4  C   UNK     1       9.045  -0.295  21.758  0.00  0.00    +0.178 C 
ATOM      5  C   UNK     1      10.356  -0.576  22.509  0.00  0.00    +0.176 C 
ATOM      6  C   UNK     1      10.167  -0.472  24.034  0.00  0.00    +0.171 C 
ENDROOT
BRANCH   1   9
ATOM      7  C   UNK     1       9.399  -5.055  25.204  0.00  0.00    +0.109 C 
ATOM      8  C   UNK     1       9.036  -3.623  25.481  0.00  0.00    +0.210 C 
ATOM      9  N   UNK     1       9.260  -2.779  24.418  0.00  0.00    -0.305 N 
ATOM     10  H   UNK     1       9.194  -3.187  23.487  0.00  0.00    +0.149 HD
ATOM     11  O   UNK     1       8.589  -3.248  26.560  0.00  0.00    -0.276 OA
ENDBRANCH   1   9
BRANCH   5  12
ATOM     12  O   UNK     1      10.808  -1.889  22.143  0.00  0.00    -0.387 OA
ATOM     13  H   UNK     1      10.860  -2.415  22.968  0.00  0.00    +0.210 HD
ENDBRANCH   5  12
BRANCH   6  14
ATOM     14  O   UNK     1       9.947   0.900  24.387  0.00  0.00    -0.387 OA
ATOM     15  H   UNK     1      10.418   1.076  25.221  0.00  0.00    +0.210 HD
ENDBRANCH   6  14
BRANCH   2  16
ATOM     16  O   UNK     1       6.631  -1.792  24.068  0.00  0.00    -0.347 OA
BRANCH  16  17
ATOM     17  C   UNK     1       6.022  -2.430  22.943  0.00  0.00    +0.193 C 
BRANCH  17  18
ATOM     18  C   UNK     1       5.777  -3.923  23.202  0.00  0.00    +0.187 C 
BRANCH  18  19
ATOM     19  N   UNK     1       4.454  -4.339  22.641  0.00  0.00    -0.317 NA
ATOM     20  H   UNK     1       4.618  -5.090  21.962  0.00  0.00    +0.119 HD
ATOM     21  H   UNK     1       3.914  -4.784  23.388  0.00  0.00    +0.119 HD
ENDBRANCH  18  19
BRANCH  18  22
ATOM     22  C   UNK     1       6.870  -4.751  22.512  0.00  0.00    +0.324 C 
ATOM     23  O   UNK     1       6.840  -5.958  22.332  0.00  0.00    -0.249 OA
BRANCH  22  24
ATOM     24  O   UNK     1       7.903  -3.965  22.105  0.00  0.00    -0.479 OA
ATOM     25  H   UNK     1       8.581  -4.570  21.715  0.00  0.00    +0.295 HD
ENDBRANCH  22  24
ENDBRANCH  18  22
ENDBRANCH  17  18
ENDBRANCH  16  17
ENDBRANCH   2  16
BRANCH   4  26
ATOM     26  C   UNK     1       8.667   1.199  21.733  0.00  0.00    +0.190 C 
BRANCH  26  27
ATOM     27  O   UNK     1       9.809   2.024  21.506  0.00  0.00    -0.392 OA
ATOM     28  H   UNK     1       9.888   2.626  22.265  0.00  0.00    +0.210 HD
ENDBRANCH  26  27
ENDBRANCH   4  26
TORSDOF 11
ENDMDL
MODEL 2
REMARK VINA RESULT:      -5.6      1.957      3.658
REMARK  Name = 
REMARK  12 active torsions:
REMARK  status: ('A' for Active; 'I' for Inactive)
REMARK    1  A    between atoms: C_1  and  C_2
REMARK    2  A    between atoms: N_4  and  C_5
REMARK    3  A    between atoms: C_7  and  O_9
REMARK    4  A    between atoms: C_10  and  O_12
REMARK    5  A    between atoms: C_13  and  C_15
REMARK    6  A    between atoms: C_15  and  O_16
REMARK    7  A    between atoms: C_18  and  O_20
REMARK    8  A    between atoms: O_20  and  C_21
REMARK    9  A    between atoms: C_21  and  C_22
REMARK   10  A    between atoms: C_22  and  N_24
REMARK   11  A    between atoms: C_22  and  C_25
REMARK   12  A    between atoms: C_25  and  O_26
REMARK                            x       y       z     vdW  Elec       q    Type
REMARK                         _______ _______ _______ _____ _____    ______ ____
ROOT
ATOM      1  C   UNK     1       8.505  -2.912  22.855  0.00  0.00    +0.160 C 
ATOM      2  C   UNK     1       9.149  -2.616  24.235  0.00  0.00    +0.273 C 
ATOM      3  O   UNK     1       8.582  -1.438  24.810  0.00  0.00    -0.341 OA
ATOM      4  C   UNK     1       8.808  -0.240  24.040  0.00  0.00    +0.178 C 
ATOM      5  C   UNK     1       8.209  -0.395  22.632  0.00  0.00    +0.176 C 
ATOM      6  C   UNK     1       8.712  -1.678  21.943  0.00  0.00    +0.171 C 
ENDROOT
BRANCH   1   9
ATOM      7  C   UNK     1       5.133  -4.673  22.757  0.00  0.00    +0.109 C 
ATOM      8  C   UNK     1       6.609  -4.486  22.539  0.00  0.00    +0.210 C 
ATOM      9  N   UNK     1       7.087  -3.278  22.990  0.00  0.00    -0.305 N 
ATOM     10  H   UNK     1       6.596  -2.854  23.774  0.00  0.00    +0.149 HD
ATOM     11  O   UNK     1       7.313  -5.335  22.001  0.00  0.00    -0.276 OA
ENDBRANCH   1   9
BRANCH   5  12
ATOM     12  O   UNK     1       6.779  -0.412  22.755  0.00  0.00    -0.387 OA
ATOM     13  H   UNK     1       6.547   0.189  23.493  0.00  0.00    +0.210 HD
ENDBRANCH   5  12
BRANCH   6  14
ATOM     14  O   UNK     1      10.102  -1.527  21.626  0.00  0.00    -0.387 OA
ATOM     15  H   UNK     1      10.533  -1.072  22.372  0.00  0.00    +0.210 HD
ENDBRANCH   6  14
BRANCH   2  16
ATOM     16  O   UNK     1       8.921  -3.744  25.095  0.00  0.00    -0.347 OA
BRANCH  16  17
ATOM     17  C   UNK     1       8.513  -3.325  26.401  0.00  0.00    +0.193 C 
BRANCH  17  18
ATOM     18  C   UNK     1       7.110  -3.842  26.748  0.00  0.00    +0.187 C 
BRANCH  18  19
ATOM     19  N   UNK     1       6.078  -3.138  25.925  0.00  0.00    -0.317 NA
ATOM     20  H   UNK     1       5.191  -3.158  26.441  0.00  0.00    +0.119 HD
ATOM     21  H   UNK     1       6.324  -2.145  25.881  0.00  0.00    +0.119 HD
ENDBRANCH  18  19
BRANCH  18  22
ATOM     22  C   UNK     1       7.024  -5.342  26.441  0.00  0.00    +0.324 C 
ATOM     23  O   UNK     1       6.078  -5.907  25.913  0.00  0.00    -0.249 OA
BRANCH  22  24
ATOM     24  O   UNK     1       8.155  -5.993  26.827  0.00  0.00    -0.479 OA
ATOM     25  H   UNK     1       8.283  -5.791  27.787  0.00  0.00    +0.295 HD
ENDBRANCH  22  24
ENDBRANCH  18  22
ENDBRANCH  17  18
ENDBRANCH  16  17
ENDBRANCH   2  16
BRANCH   4  26
ATOM     26  C   UNK     1      10.285   0.198  24.027  0.00  0.00    +0.190 C 
BRANCH  26  27
ATOM     27  O   UNK     1      10.708   0.654  25.311  0.00  0.00    -0.392 OA
ATOM     28  H   UNK     1      10.645   1.624  25.310  0.00  0.00    +0.210 HD
ENDBRANCH  26  27
ENDBRANCH   4  26
TORSDOF 11
ENDMDL
MODEL 3
REMARK VINA RESULT:      -5.4      1.876      4.514
REMARK  Name = 
REMARK  12 active torsions:
REMARK  status: ('A' for Active; 'I' for Inactive)
REMARK    1  A    between atoms: C_1  and  C_2
REMARK    2  A    between atoms: N_4  and  C_5
REMARK    3  A    between atoms: C_7  and  O_9
REMARK    4  A    between atoms: C_10  and  O_12
REMARK    5  A    between atoms: C_13  and  C_15
REMARK    6  A    between atoms: C_15  and  O_16
REMARK    7  A    between atoms: C_18  and  O_20
REMARK    8  A    between atoms: O_20  and  C_21
REMARK    9  A    between atoms: C_21  and  C_22
REMARK   10  A    between atoms: C_22  and  N_24
REMARK   11  A    between atoms: C_22  and  C_25
REMARK   12  A    between atoms: C_25  and  O_26
REMARK                            x       y       z     vdW  Elec       q    Type
REMARK                         _______ _______ _______ _____ _____    ______ ____
ROOT
ATOM      1  C   UNK     1       8.582  -3.226  23.788  0.00  0.00    +0.160 C 
ATOM      2  C   UNK     1       7.096  -3.645  23.943  0.00  0.00    +0.273 C 
ATOM      3  O   UNK     1       6.574  -3.184  25.190  0.00  0.00    -0.341 OA
ATOM      4  C   UNK     1       7.230  -3.742  26.346  0.00  0.00    +0.178 C 
ATOM      5  C   UNK     1       8.728  -3.395  26.322  0.00  0.00    +0.176 C 
ATOM      6  C   UNK     1       9.380  -3.798  24.985  0.00  0.00    +0.171 C 
ENDROOT
BRANCH   1   9
ATOM      7  C   UNK     1       9.714   0.306  22.938  0.00  0.00    +0.109 C 
ATOM      8  C   UNK     1       9.734  -1.198  22.932  0.00  0.00    +0.210 C 
ATOM      9  N   UNK     1       8.720  -1.767  23.668  0.00  0.00    -0.305 N 
ATOM     10  H   UNK     1       7.856  -1.234  23.747  0.00  0.00    +0.149 HD
ATOM     11  O   UNK     1      10.582  -1.849  22.331  0.00  0.00    -0.276 OA
ENDBRANCH   1   9
BRANCH   5  12
ATOM     12  O   UNK     1       8.864  -1.984  26.548  0.00  0.00    -0.387 OA
ATOM     13  H   UNK     1       9.095  -1.866  27.492  0.00  0.00    +0.210 HD
ENDBRANCH   5  12
BRANCH   6  14
ATOM     14  O   UNK     1       9.435  -5.228  24.902  0.00  0.00    -0.387 OA
ATOM     15  H   UNK     1       9.484  -5.473  23.960  0.00  0.00    +0.210 HD
ENDBRANCH   6  14
BRANCH   2  16
ATOM     16  O   UNK     1       6.348  -3.079  22.855  0.00  0.00    -0.347 OA
BRANCH  16  17
ATOM     17  C   UNK     1       5.142  -3.812  22.619  0.00  0.00    +0.193 C 
BRANCH  17  18
ATOM     18  C   UNK     1       5.384  -5.326  22.653  0.00  0.00    +0.187 C 
BRANCH  18  19
ATOM     19  N   UNK     1       4.084  -6.063  22.574  0.00  0.00    -0.317 NA
ATOM     20  H   UNK     1       4.189  -6.948  23.082  0.00  0.00    +0.119 HD
ATOM     21  H   UNK     1       3.386  -5.542  23.112  0.00  0.00    +0.119 HD
ENDBRANCH  18  19
BRANCH  18  22
ATOM     22  C   UNK     1       6.239  -5.738  21.447  0.00  0.00    +0.324 C 
ATOM     23  O   UNK     1       5.941  -5.574  20.275  0.00  0.00    -0.249 OA
BRANCH  22  24
ATOM     24  O   UNK     1       7.405  -6.317  21.842  0.00  0.00    -0.479 OA
ATOM     25  H   UNK     1       7.160  -7.143  22.329  0.00  0.00    +0.295 HD
ENDBRANCH  22  24
ENDBRANCH  18  22
ENDBRANCH  17  18
ENDBRANCH  16  17
ENDBRANCH   2  16
BRANCH   4  26
ATOM     26  C   UNK     1       6.958  -5.248  26.524  0.00  0.00    +0.190 C 
BRANCH  26  27
ATOM     27  O   UNK     1       7.860  -5.836  27.460  0.00  0.00    -0.392 OA
ATOM     28  H   UNK     1       7.655  -5.464  28.335  0.00  0.00    +0.210 HD
ENDBRANCH  26  27
ENDBRANCH   4  26
TORSDOF 11
ENDMDL
MODEL 4
REMARK VINA RESULT:      -5.4      2.266      3.746
REMARK  Name = 
REMARK  12 active torsions:
REMARK  status: ('A' for Active; 'I' for Inactive)
REMARK    1  A    between atoms: C_1  and  C_2
REMARK    2  A    between atoms: N_4  and  C_5
REMARK    3  A    between atoms: C_7  and  O_9
REMARK    4  A    between atoms: C_10  and  O_12
REMARK    5  A    between atoms: C_13  and  C_15
REMARK    6  A    between atoms: C_15  and  O_16
REMARK    7  A    between atoms: C_18  and  O_20
REMARK    8  A    between atoms: O_20  and  C_21
REMARK    9  A    between atoms: C_21  and  C_22
REMARK   10  A    between atoms: C_22  and  N_24
REMARK   11  A    between atoms: C_22  and  C_25
REMARK   12  A    between atoms: C_25  and  O_26
REMARK                            x       y       z     vdW  Elec       q    Type
REMARK                         _______ _______ _______ _____ _____    ______ ____
ROOT
ATOM      1  C   UNK     1       6.888  -0.362  23.907  0.00  0.00    +0.160 C 
ATOM      2  C   UNK     1       8.056  -1.213  23.342  0.00  0.00    +0.273 C 
ATOM      3  O   UNK     1       9.304  -0.764  23.872  0.00  0.00    -0.341 OA
ATOM      4  C   UNK     1       9.640   0.593  23.519  0.00  0.00    +0.178 C 
ATOM      5  C   UNK     1       8.554   1.556  24.028  0.00  0.00    +0.176 C 
ATOM      6  C   UNK     1       7.152   1.123  23.561  0.00  0.00    +0.171 C 
ENDROOT
BRANCH   1   9
ATOM      7  C   UNK     1       5.591  -1.312  27.356  0.00  0.00    +0.109 C 
ATOM      8  C   UNK     1       5.591  -1.190  25.858  0.00  0.00    +0.210 C 
ATOM      9  N   UNK     1       6.714  -0.579  25.352  0.00  0.00    -0.305 N 
ATOM     10  H   UNK     1       7.573  -0.681  25.888  0.00  0.00    +0.149 HD
ATOM     11  O   UNK     1       4.666  -1.594  25.159  0.00  0.00    -0.276 OA
ENDBRANCH   1   9
BRANCH   5  12
ATOM     12  O   UNK     1       8.624   1.589  25.462  0.00  0.00    -0.387 OA
ATOM     13  H   UNK     1       9.549   1.810  25.698  0.00  0.00    +0.210 HD
ENDBRANCH   5  12
BRANCH   6  14
ATOM     14  O   UNK     1       7.045   1.325  22.146  0.00  0.00    -0.387 OA
ATOM     15  H   UNK     1       6.552   2.152  21.996  0.00  0.00    +0.210 HD
ENDBRANCH   6  14
BRANCH   2  16
ATOM     16  O   UNK     1       7.834  -2.587  23.700  0.00  0.00    -0.347 OA
BRANCH  16  17
ATOM     17  C   UNK     1       9.069  -3.264  23.948  0.00  0.00    +0.193 C 
BRANCH  17  18
ATOM     18  C   UNK     1       8.889  -4.431  24.928  0.00  0.00    +0.187 C 
BRANCH  18  19
ATOM     19  N   UNK     1      10.180  -5.167  25.104  0.00  0.00    -0.317 NA
ATOM     20  H   UNK     1      10.813  -4.572  25.649  0.00  0.00    +0.119 HD
ATOM     21  H   UNK     1      10.008  -5.976  25.707  0.00  0.00    +0.119 HD
ENDBRANCH  18  19
BRANCH  18  22
ATOM     22  C   UNK     1       8.457  -3.890  26.297  0.00  0.00    +0.324 C 
ATOM     23  O   UNK     1       7.917  -4.538  27.180  0.00  0.00    -0.249 OA
BRANCH  22  24
ATOM     24  O   UNK     1       8.758  -2.569  26.425  0.00  0.00    -0.479 OA
ATOM     25  H   UNK     1       9.660  -2.446  26.038  0.00  0.00    +0.295 HD
ENDBRANCH  22  24
ENDBRANCH  18  22
ENDBRANCH  17  18
ENDBRANCH  16  17
ENDBRANCH   2  16
BRANCH   4  26
ATOM     26  C   UNK     1       9.950   0.765  22.019  0.00  0.00    +0.190 C 
BRANCH  26  27
ATOM     27  O   UNK     1       9.959   2.141  21.641  0.00  0.00    -0.392 OA
ATOM     28  H   UNK     1       9.568   2.647  22.374  0.00  0.00    +0.210 HD
ENDBRANCH  26  27
ENDBRANCH   4  26
TORSDOF 11
ENDMDL
MODEL 5
REMARK VINA RESULT:      -5.4      2.046      4.092
REMARK  Name = 
REMARK  12 active torsions:
REMARK  status: ('A' for Active; 'I' for Inactive)
REMARK    1  A    between atoms: C_1  and  C_2
REMARK    2  A    between atoms: N_4  and  C_5
REMARK    3  A    between atoms: C_7  and  O_9
REMARK    4  A    between atoms: C_10  and  O_12
REMARK    5  A    between atoms: C_13  and  C_15
REMARK    6  A    between atoms: C_15  and  O_16
REMARK    7  A    between atoms: C_18  and  O_20
REMARK    8  A    between atoms: O_20  and  C_21
REMARK    9  A    between atoms: C_21  and  C_22
REMARK   10  A    between atoms: C_22  and  N_24
REMARK   11  A    between atoms: C_22  and  C_25
REMARK   12  A    between atoms: C_25  and  O_26
REMARK                            x       y       z     vdW  Elec       q    Type
REMARK                         _______ _______ _______ _____ _____    ______ ____
ROOT
ATOM      1  C   UNK     1       7.147  -1.406  22.868  0.00  0.00    +0.160 C 
ATOM      2  C   UNK     1       8.528  -1.655  23.530  0.00  0.00    +0.273 C 
ATOM      3  O   UNK     1       8.495  -1.288  24.910  0.00  0.00    -0.341 OA
ATOM      4  C   UNK     1       8.227   0.110  25.142  0.00  0.00    +0.178 C 
ATOM      5  C   UNK     1       6.869   0.496  24.533  0.00  0.00    +0.176 C 
ATOM      6  C   UNK     1       6.777   0.085  23.052  0.00  0.00    +0.171 C 
ENDROOT
BRANCH   1   9
ATOM      7  C   UNK     1       4.436  -4.034  23.340  0.00  0.00    +0.109 C 
ATOM      8  C   UNK     1       5.455  -3.206  22.606  0.00  0.00    +0.210 C 
ATOM      9  N   UNK     1       6.121  -2.310  23.409  0.00  0.00    -0.305 N 
ATOM     10  H   UNK     1       6.230  -2.565  24.389  0.00  0.00    +0.149 HD
ATOM     11  O   UNK     1       5.661  -3.321  21.402  0.00  0.00    -0.276 OA
ENDBRANCH   1   9
BRANCH   5  12
ATOM     12  O   UNK     1       5.838  -0.142  25.302  0.00  0.00    -0.387 OA
ATOM     13  H   UNK     1       6.069  -0.022  26.246  0.00  0.00    +0.210 HD
ENDBRANCH   5  12
BRANCH   6  14
ATOM     14  O   UNK     1       7.659   0.910  22.280  0.00  0.00    -0.387 OA
ATOM     15  H   UNK     1       7.606   0.621  21.351  0.00  0.00    +0.210 HD
ENDBRANCH   6  14
BRANCH   2  16
ATOM     16  O   UNK     1       8.853  -3.048  23.397  0.00  0.00    -0.347 OA
BRANCH  16  17
ATOM     17  C   UNK     1       9.438  -3.560  24.598  0.00  0.00    +0.193 C 
BRANCH  17  18
ATOM     18  C   UNK     1       8.976  -4.995  24.885  0.00  0.00    +0.187 C 
BRANCH  18  19
ATOM     19  N   UNK     1      10.089  -5.788  25.496  0.00  0.00    -0.317 NA
ATOM     20  H   UNK     1      10.037  -6.744  25.129  0.00  0.00    +0.119 HD
ATOM     21  H   UNK     1      10.977  -5.425  25.137  0.00  0.00    +0.119 HD
ENDBRANCH  18  19
BRANCH  18  22
ATOM     22  C   UNK     1       7.807  -4.971  25.878  0.00  0.00    +0.324 C 
ATOM     23  O   UNK     1       7.511  -5.869  26.651  0.00  0.00    -0.249 OA
BRANCH  22  24
ATOM     24  O   UNK     1       7.119  -3.799  25.804  0.00  0.00    -0.479 OA
ATOM     25  H   UNK     1       6.464  -3.902  25.071  0.00  0.00    +0.295 HD
ENDBRANCH  22  24
ENDBRANCH  18  22
ENDBRANCH  17  18
ENDBRANCH  16  17
ENDBRANCH   2  16
BRANCH   4  26
ATOM     26  C   UNK     1       9.380   1.026  24.687  0.00  0.00    +0.190 C 
BRANCH  26  27
ATOM     27  O   UNK     1      10.621   0.636  25.272  0.00  0.00    -0.392 OA
ATOM     28  H   UNK     1      10.421   0.218  26.127  0.00  0.00    +0.210 HD
ENDBRANCH  26  27
ENDBRANCH   4  26
TORSDOF 11
ENDMDL
MODEL 6
REMARK VINA RESULT:      -5.2      3.382      7.100
REMARK  Name = 
REMARK  12 active torsions:
REMARK  status: ('A' for Active; 'I' for Inactive)
REMARK    1  A    between atoms: C_1  and  C_2
REMARK    2  A    between atoms: N_4  and  C_5
REMARK    3  A    between atoms: C_7  and  O_9
REMARK    4  A    between atoms: C_10  and  O_12
REMARK    5  A    between atoms: C_13  and  C_15
REMARK    6  A    between atoms: C_15  and  O_16
REMARK    7  A    between atoms: C_18  and  O_20
REMARK    8  A    between atoms: O_20  and  C_21
REMARK    9  A    between atoms: C_21  and  C_22
REMARK   10  A    between atoms: C_22  and  N_24
REMARK   11  A    between atoms: C_22  and  C_25
REMARK   12  A    between atoms: C_25  and  O_26
REMARK                            x       y       z     vdW  Elec       q    Type
REMARK                         _______ _______ _______ _____ _____    ______ ____
ROOT
ATOM      1  C   UNK     1       4.805  -4.812  24.660  0.00  0.00    +0.160 C 
ATOM      2  C   UNK     1       5.645  -4.944  25.958  0.00  0.00    +0.273 C 
ATOM      3  O   UNK     1       5.844  -6.319  26.288  0.00  0.00    -0.341 OA
ATOM      4  C   UNK     1       4.628  -7.040  26.569  0.00  0.00    +0.178 C 
ATOM      5  C   UNK     1       3.692  -6.993  25.349  0.00  0.00    +0.176 C 
ATOM      6  C   UNK     1       3.460  -5.547  24.871  0.00  0.00    +0.171 C 
ENDROOT
BRANCH   1   9
ATOM      7  C   UNK     1       6.361  -5.297  21.222  0.00  0.00    +0.109 C 
ATOM      8  C   UNK     1       5.566  -4.619  22.303  0.00  0.00    +0.210 C 
ATOM      9  N   UNK     1       5.542  -5.313  23.490  0.00  0.00    -0.305 N 
ATOM     10  H   UNK     1       6.347  -5.901  23.695  0.00  0.00    +0.149 HD
ATOM     11  O   UNK     1       4.989  -3.550  22.132  0.00  0.00    -0.276 OA
ENDBRANCH   1   9
BRANCH   5  12
ATOM     12  O   UNK     1       4.279  -7.784  24.305  0.00  0.00    -0.387 OA
ATOM     13  H   UNK     1       4.431  -8.679  24.675  0.00  0.00    +0.210 HD
ENDBRANCH   5  12
BRANCH   6  14
ATOM     14  O   UNK     1       2.666  -4.853  25.842  0.00  0.00    -0.387 OA
ATOM     15  H   UNK     1       2.074  -4.242  25.367  0.00  0.00    +0.210 HD
ENDBRANCH   6  14
BRANCH   2  16
ATOM     16  O   UNK     1       6.912  -4.298  25.749  0.00  0.00    -0.347 OA
BRANCH  16  17
ATOM     17  C   UNK     1       7.990  -5.103  26.234  0.00  0.00    +0.193 C 
BRANCH  17  18
ATOM     18  C   UNK     1       9.354  -4.508  25.860  0.00  0.00    +0.187 C 
BRANCH  18  19
ATOM     19  N   UNK     1      10.328  -5.598  25.540  0.00  0.00    -0.317 NA
ATOM     20  H   UNK     1      10.272  -6.303  26.283  0.00  0.00    +0.119 HD
ATOM     21  H   UNK     1      10.001  -6.085  24.701  0.00  0.00    +0.119 HD
ENDBRANCH  18  19
BRANCH  18  22
ATOM     22  C   UNK     1       9.205  -3.621  24.617  0.00  0.00    +0.324 C 
ATOM     23  O   UNK     1       9.559  -2.456  24.528  0.00  0.00    -0.249 OA
BRANCH  22  24
ATOM     24  O   UNK     1       8.624  -4.300  23.591  0.00  0.00    -0.479 OA
ATOM     25  H   UNK     1       9.229  -5.051  23.371  0.00  0.00    +0.295 HD
ENDBRANCH  22  24
ENDBRANCH  18  22
ENDBRANCH  17  18
ENDBRANCH  16  17
ENDBRANCH   2  16
BRANCH   4  26
ATOM     26  C   UNK     1       3.947  -6.585  27.874  0.00  0.00    +0.190 C 
BRANCH  26  27
ATOM     27  O   UNK     1       4.282  -7.441  28.965  0.00  0.00    -0.392 OA
ATOM     28  H   UNK     1       3.450  -7.798  29.321  0.00  0.00    +0.210 HD
ENDBRANCH  26  27
ENDBRANCH   4  26
TORSDOF 11
ENDMDL
MODEL 7
REMARK VINA RESULT:      -5.2      1.900      5.210
REMARK  Name = 
REMARK  12 active torsions:
REMARK  status: ('A' for Active; 'I' for Inactive)
REMARK    1  A    between atoms: C_1  and  C_2
REMARK    2  A    between atoms: N_4  and  C_5
REMARK    3  A    between atoms: C_7  and  O_9
REMARK    4  A    between atoms: C_10  and  O_12
REMARK    5  A    between atoms: C_13  and  C_15
REMARK    6  A    between atoms: C_15  and  O_16
REMARK    7  A    between atoms: C_18  and  O_20
REMARK    8  A    between atoms: O_20  and  C_21
REMARK    9  A    between atoms: C_21  and  C_22
REMARK   10  A    between atoms: C_22  and  N_24
REMARK   11  A    between atoms: C_22  and  C_25
REMARK   12  A    between atoms: C_25  and  O_26
REMARK                            x       y       z     vdW  Elec       q    Type
REMARK                         _______ _______ _______ _____ _____    ______ ____
ROOT
ATOM      1  C   UNK     1       7.022  -2.505  23.342  0.00  0.00    +0.160 C 
ATOM      2  C   UNK     1       8.344  -1.746  23.631  0.00  0.00    +0.273 C 
ATOM      3  O   UNK     1       9.040  -2.349  24.723  0.00  0.00    -0.341 OA
ATOM      4  C   UNK     1       8.320  -2.314  25.972  0.00  0.00    +0.178 C 
ATOM      5  C   UNK     1       6.974  -3.043  25.828  0.00  0.00    +0.176 C 
ATOM      6  C   UNK     1       6.166  -2.506  24.631  0.00  0.00    +0.171 C 
ENDROOT
BRANCH   1   9
ATOM      7  C   UNK     1       6.918  -5.822  21.480  0.00  0.00    +0.109 C 
ATOM      8  C   UNK     1       6.505  -4.424  21.852  0.00  0.00    +0.210 C 
ATOM      9  N   UNK     1       7.281  -3.862  22.839  0.00  0.00    -0.305 N 
ATOM     10  H   UNK     1       8.247  -4.178  22.899  0.00  0.00    +0.149 HD
ATOM     11  O   UNK     1       5.559  -3.849  21.324  0.00  0.00    -0.276 OA
ENDBRANCH   1   9
BRANCH   5  12
ATOM     12  O   UNK     1       7.240  -4.445  25.671  0.00  0.00    -0.387 OA
ATOM     13  H   UNK     1       7.631  -4.758  26.514  0.00  0.00    +0.210 HD
ENDBRANCH   5  12
BRANCH   6  14
ATOM     14  O   UNK     1       5.718  -1.176  24.926  0.00  0.00    -0.387 OA
ATOM     15  H   UNK     1       6.497  -0.643  25.167  0.00  0.00    +0.210 HD
ENDBRANCH   6  14
BRANCH   2  16
ATOM     16  O   UNK     1       9.158  -1.781  22.448  0.00  0.00    -0.347 OA
BRANCH  16  17
ATOM     17  C   UNK     1      10.104  -0.707  22.437  0.00  0.00    +0.193 C 
BRANCH  17  18
ATOM     18  C   UNK     1       9.513   0.573  23.042  0.00  0.00    +0.187 C 
BRANCH  18  19
ATOM     19  N   UNK     1      10.494   1.207  23.978  0.00  0.00    -0.317 NA
ATOM     20  H   UNK     1      10.504   0.660  24.846  0.00  0.00    +0.119 HD
ATOM     21  H   UNK     1      11.433   1.085  23.590  0.00  0.00    +0.119 HD
ENDBRANCH  18  19
BRANCH  18  22
ATOM     22  C   UNK     1       9.204   1.577  21.924  0.00  0.00    +0.324 C 
ATOM     23  O   UNK     1       8.120   1.727  21.383  0.00  0.00    -0.249 OA
BRANCH  22  24
ATOM     24  O   UNK     1      10.305   2.308  21.598  0.00  0.00    -0.479 OA
ATOM     25  H   UNK     1      10.477   2.914  22.360  0.00  0.00    +0.295 HD
ENDBRANCH  22  24
ENDBRANCH  18  22
ENDBRANCH  17  18
ENDBRANCH  16  17
ENDBRANCH   2  16
BRANCH   4  26
ATOM     26  C   UNK     1       8.181  -0.890  26.545  0.00  0.00    +0.190 C 
BRANCH  26  27
ATOM     27  O   UNK     1       9.426  -0.193  26.524  0.00  0.00    -0.392 OA
ATOM     28  H   UNK     1       9.226   0.759  26.530  0.00  0.00    +0.210 HD
ENDBRANCH  26  27
ENDBRANCH   4  26
TORSDOF 11
ENDMDL
MODEL 8
REMARK VINA RESULT:      -5.1      1.995      5.307
REMARK  Name = 
REMARK  12 active torsions:
REMARK  status: ('A' for Active; 'I' for Inactive)
REMARK    1  A    between atoms: C_1  and  C_2
REMARK    2  A    between atoms: N_4  and  C_5
REMARK    3  A    between atoms: C_7  and  O_9
REMARK    4  A    between atoms: C_10  and  O_12
REMARK    5  A    between atoms: C_13  and  C_15
REMARK    6  A    between atoms: C_15  and  O_16
REMARK    7  A    between atoms: C_18  and  O_20
REMARK    8  A    between atoms: O_20  and  C_21
REMARK    9  A    between atoms: C_21  and  C_22
REMARK   10  A    between atoms: C_22  and  N_24
REMARK   11  A    between atoms: C_22  and  C_25
REMARK   12  A    between atoms: C_25  and  O_26
REMARK                            x       y       z     vdW  Elec       q    Type
REMARK                         _______ _______ _______ _____ _____    ______ ____
ROOT
ATOM      1  C   UNK     1       7.945  -3.001  24.036  0.00  0.00    +0.160 C 
ATOM      2  C   UNK     1       7.679  -2.772  22.525  0.00  0.00    +0.273 C 
ATOM      3  O   UNK     1       6.312  -3.042  22.210  0.00  0.00    -0.341 OA
ATOM      4  C   UNK     1       5.912  -4.407  22.446  0.00  0.00    +0.178 C 
ATOM      5  C   UNK     1       6.121  -4.771  23.926  0.00  0.00    +0.176 C 
ATOM      6  C   UNK     1       7.557  -4.458  24.386  0.00  0.00    +0.171 C 
ENDROOT
BRANCH   1   9
ATOM      7  C   UNK     1       6.827  -0.633  26.797  0.00  0.00    +0.109 C 
ATOM      8  C   UNK     1       7.699  -1.641  26.100  0.00  0.00    +0.210 C 
ATOM      9  N   UNK     1       7.231  -2.017  24.863  0.00  0.00    -0.305 N 
ATOM     10  H   UNK     1       6.680  -1.329  24.353  0.00  0.00    +0.149 HD
ATOM     11  O   UNK     1       8.727  -2.087  26.600  0.00  0.00    -0.276 OA
ENDBRANCH   1   9
BRANCH   5  12
ATOM     12  O   UNK     1       5.166  -4.036  24.706  0.00  0.00    -0.387 OA
ATOM     13  H   UNK     1       4.424  -4.645  24.898  0.00  0.00    +0.210 HD
ENDBRANCH   5  12
BRANCH   6  14
ATOM     14  O   UNK     1       8.463  -5.374  23.756  0.00  0.00    -0.387 OA
ATOM     15  H   UNK     1       8.713  -6.050  24.411  0.00  0.00    +0.210 HD
ENDBRANCH   6  14
BRANCH   2  16
ATOM     16  O   UNK     1       7.998  -1.408  22.208  0.00  0.00    -0.347 OA
BRANCH  16  17
ATOM     17  C   UNK     1       9.343  -1.286  21.734  0.00  0.00    +0.193 C 
BRANCH  17  18
ATOM     18  C   UNK     1       9.963   0.060  22.130  0.00  0.00    +0.187 C 
BRANCH  18  19
ATOM     19  N   UNK     1       9.319   1.175  21.367  0.00  0.00    -0.317 NA
ATOM     20  H   UNK     1       8.599   1.595  21.965  0.00  0.00    +0.119 HD
ATOM     21  H   UNK     1      10.011   1.918  21.239  0.00  0.00    +0.119 HD
ENDBRANCH  18  19
BRANCH  18  22
ATOM     22  C   UNK     1       9.734   0.311  23.626  0.00  0.00    +0.324 C 
ATOM     23  O   UNK     1      10.543   0.096  24.515  0.00  0.00    -0.249 OA
BRANCH  22  24
ATOM     24  O   UNK     1       8.495   0.823  23.858  0.00  0.00    -0.479 OA
ATOM     25  H   UNK     1       7.881   0.371  23.228  0.00  0.00    +0.295 HD
ENDBRANCH  22  24
ENDBRANCH  18  22
ENDBRANCH  17  18
ENDBRANCH  16  17
ENDBRANCH   2  16
BRANCH   4  26
ATOM     26  C   UNK     1       6.574  -5.404  21.476  0.00  0.00    +0.190 C 
BRANCH  26  27
ATOM     27  O   UNK     1       6.424  -6.750  21.925  0.00  0.00    -0.392 OA
ATOM     28  H   UNK     1       6.988  -7.309  21.363  0.00  0.00    +0.210 HD
ENDBRANCH  26  27
ENDBRANCH   4  26
TORSDOF 11
ENDMDL
MODEL 9
REMARK VINA RESULT:      -5.0      1.990      2.677
REMARK  Name = 
REMARK  12 active torsions:
REMARK  status: ('A' for Active; 'I' for Inactive)
REMARK    1  A    between atoms: C_1  and  C_2
REMARK    2  A    between atoms: N_4  and  C_5
REMARK    3  A    between atoms: C_7  and  O_9
REMARK    4  A    between atoms: C_10  and  O_12
REMARK    5  A    between atoms: C_13  and  C_15
REMARK    6  A    between atoms: C_15  and  O_16
REMARK    7  A    between atoms: C_18  and  O_20
REMARK    8  A    between atoms: O_20  and  C_21
REMARK    9  A    between atoms: C_21  and  C_22
REMARK   10  A    between atoms: C_22  and  N_24
REMARK   11  A    between atoms: C_22  and  C_25
REMARK   12  A    between atoms: C_25  and  O_26
REMARK                            x       y       z     vdW  Elec       q    Type
REMARK                         _______ _______ _______ _____ _____    ______ ____
ROOT
ATOM      1  C   UNK     1       7.019  -0.743  23.617  0.00  0.00    +0.160 C 
ATOM      2  C   UNK     1       8.116  -1.403  22.741  0.00  0.00    +0.273 C 
ATOM      3  O   UNK     1       9.416  -1.063  23.225  0.00  0.00    -0.341 OA
ATOM      4  C   UNK     1       9.712   0.347  23.175  0.00  0.00    +0.178 C 
ATOM      5  C   UNK     1       8.691   1.132  24.016  0.00  0.00    +0.176 C 
ATOM      6  C   UNK     1       7.245   0.788  23.613  0.00  0.00    +0.171 C 
ENDROOT
BRANCH   1   9
ATOM      7  C   UNK     1       6.044  -2.341  26.930  0.00  0.00    +0.109 C 
ATOM      8  C   UNK     1       5.860  -1.825  25.530  0.00  0.00    +0.210 C 
ATOM      9  N   UNK     1       7.007  -1.304  24.977  0.00  0.00    -0.305 N 
ATOM     10  H   UNK     1       7.890  -1.692  25.301  0.00  0.00    +0.149 HD
ATOM     11  O   UNK     1       4.782  -1.863  24.945  0.00  0.00    -0.276 OA
ENDBRANCH   1   9
BRANCH   5  12
ATOM     12  O   UNK     1       8.920   0.822  25.399  0.00  0.00    -0.387 OA
ATOM     13  H   UNK     1       9.292   1.628  25.815  0.00  0.00    +0.210 HD
ENDBRANCH   5  12
BRANCH   6  14
ATOM     14  O   UNK     1       6.981   1.321  22.309  0.00  0.00    -0.387 OA
ATOM     15  H   UNK     1       6.776   2.269  22.406  0.00  0.00    +0.210 HD
ENDBRANCH   6  14
BRANCH   2  16
ATOM     16  O   UNK     1       7.933  -2.828  22.779  0.00  0.00    -0.347 OA
BRANCH  16  17
ATOM     17  C   UNK     1       6.751  -3.218  22.073  0.00  0.00    +0.193 C 
BRANCH  17  18
ATOM     18  C   UNK     1       6.022  -4.367  22.781  0.00  0.00    +0.187 C 
BRANCH  18  19
ATOM     19  N   UNK     1       4.541  -4.152  22.734  0.00  0.00    -0.317 NA
ATOM     20  H   UNK     1       4.158  -4.375  23.658  0.00  0.00    +0.119 HD
ATOM     21  H   UNK     1       4.366  -3.150  22.620  0.00  0.00    +0.119 HD
ENDBRANCH  18  19
BRANCH  18  22
ATOM     22  C   UNK     1       6.334  -5.691  22.071  0.00  0.00    +0.324 C 
ATOM     23  O   UNK     1       7.446  -6.081  21.751  0.00  0.00    -0.249 OA
BRANCH  22  24
ATOM     24  O   UNK     1       5.200  -6.406  21.836  0.00  0.00    -0.479 OA
ATOM     25  H   UNK     1       4.470  -5.944  22.317  0.00  0.00    +0.295 HD
ENDBRANCH  22  24
ENDBRANCH  18  22
ENDBRANCH  17  18
ENDBRANCH  16  17
ENDBRANCH   2  16
BRANCH   4  26
ATOM     26  C   UNK     1       9.853   0.882  21.737  0.00  0.00    +0.190 C 
BRANCH  26  27
ATOM     27  O   UNK     1       9.801   2.307  21.701  0.00  0.00    -0.392 OA
ATOM     28  H   UNK     1      10.068   2.630  22.578  0.00  0.00    +0.210 HD
ENDBRANCH  26  27
ENDBRANCH   4  26
TORSDOF 11
ENDMDL
