MODEL 1
REMARK VINA RESULT:      -6.5      0.000      0.000
REMARK  Name = 
REMARK  16 active torsions:
REMARK  status: ('A' for Active; 'I' for Inactive)
REMARK    1  A    between atoms: C_1  and  C_2
REMARK    2  A    between atoms: C_2  and  N_3
REMARK    3  A    between atoms: C_4  and  C_6
REMARK    4  A    between atoms: C_6  and  C_7
REMARK    5  A    between atoms: C_7  and  C_8
REMARK    6  A    between atoms: C_8  and  C_9
REMARK    7  A    between atoms: C_10  and  C_11
REMARK    8  A    between atoms: C_11  and  C_12
REMARK    9  A    between atoms: C_14  and  O_16
REMARK   10  A    between atoms: C_18  and  O_20
REMARK   11  A    between atoms: C_21  and  C_23
REMARK   12  A    between atoms: C_24  and  C_25
REMARK   13  A    between atoms: C_25  and  O_27
REMARK   14  A    between atoms: C_25  and  C_28
REMARK   15  A    between atoms: C_28  and  C_29
REMARK   16  A    between atoms: C_29  and  C_30
REMARK                            x       y       z     vdW  Elec       q    Type
REMARK                         _______ _______ _______ _____ _____    ______ ____
ROOT
ATOM      1  C   UNL     1       4.509  -6.030  25.603  0.00  0.00    +0.031 C 
ATOM      2  C   UNL     1       5.753  -6.289  26.493  0.00  0.00    +0.046 C 
ATOM      3  C   UNL     1       5.248  -6.180  27.947  0.00  0.00    +0.124 C 
ATOM      4  C   UNL     1       3.827  -5.624  27.868  0.00  0.00    +0.063 C 
ATOM      5  C   UNL     1       3.305  -6.191  26.549  0.00  0.00    +0.121 C 
ENDROOT
BRANCH   2   6
ATOM      6  C   UNL     1       6.866  -5.308  26.192  0.00  0.00    -0.022 C 
ATOM      7  C   UNL     1       8.100  -5.423  26.707  0.00  0.00    -0.000 C 
BRANCH   7   8
ATOM      8  C   UNL     1       9.235  -4.481  26.424  0.00  0.00    +0.137 C 
BRANCH   8   9
ATOM      9  O   UNL     1      10.272  -5.239  25.810  0.00  0.00    -0.388 OA
ATOM     10  H   UNL     1       9.879  -6.083  25.527  0.00  0.00    +0.210 HD
ENDBRANCH   8   9
BRANCH   8  11
ATOM     11  C   UNL     1       8.836  -3.351  25.472  0.00  0.00    +0.040 C 
BRANCH  11  12
ATOM     12  C   UNL     1       9.764  -3.244  24.259  0.00  0.00    +0.038 C 
BRANCH  12  13
ATOM     13  C   UNL     1       9.830  -1.831  23.739  0.00  0.00    -0.047 A 
ATOM     14  C   UNL     1       9.937  -0.751  24.626  0.00  0.00    +0.003 A 
ATOM     15  C   UNL     1      10.029   0.553  24.141  0.00  0.00    +0.000 A 
ATOM     16  C   UNL     1      10.018   0.791  22.768  0.00  0.00    +0.000 A 
ATOM     17  C   UNL     1       9.913  -0.276  21.877  0.00  0.00    +0.000 A 
ATOM     18  C   UNL     1       9.820  -1.582  22.360  0.00  0.00    +0.003 A 
ENDBRANCH  12  13
ENDBRANCH  11  12
ENDBRANCH   8  11
ENDBRANCH   7   8
ENDBRANCH   2   6
BRANCH   3  19
ATOM     19  O   UNL     1       5.226  -7.486  28.530  0.00  0.00    -0.391 OA
ATOM     20  H   UNL     1       5.910  -8.009  28.060  0.00  0.00    +0.210 HD
ENDBRANCH   3  19
BRANCH   5  21
ATOM     21  O   UNL     1       2.931  -7.539  26.795  0.00  0.00    -0.391 OA
ATOM     22  H   UNL     1       2.970  -8.012  25.946  0.00  0.00    +0.210 HD
ENDBRANCH   5  21
BRANCH   1  23
ATOM     23  C   UNL     1       4.495  -6.856  24.304  0.00  0.00    +0.033 C 
BRANCH  23  25
ATOM     24  C   UNL     1       5.095  -5.515  22.227  0.00  0.00    -0.031 C 
ATOM     25  C   UNL     1       4.198  -6.084  23.047  0.00  0.00    -0.031 C 
BRANCH  24  26
ATOM     26  C   UNL     1       6.588  -5.559  22.378  0.00  0.00    +0.027 C 
BRANCH  26  27
ATOM     27  C   UNL     1       7.190  -4.159  22.312  0.00  0.00    +0.013 C 
BRANCH  27  28
ATOM     28  C   UNL     1       6.135  -3.076  22.105  0.00  0.00    +0.096 C 
BRANCH  28  31
ATOM     29  N   UNL     1       6.338  -0.889  23.099  0.00  0.00    -0.316 N 
ATOM     30  H   UNL     1       6.553  -0.591  22.154  0.00  0.00    +0.149 HD
ATOM     31  C   UNL     1       5.994  -2.204  23.332  0.00  0.00    +0.213 C 
ATOM     32  O   UNL     1       5.610  -2.623  24.421  0.00  0.00    -0.276 OA
BRANCH  29  34
ATOM     33  C   UNL     1       6.506   1.497  23.616  0.00  0.00    +0.024 C 
ATOM     34  C   UNL     1       6.244   0.099  24.146  0.00  0.00    +0.101 C 
ENDBRANCH  29  34
ENDBRANCH  28  31
ENDBRANCH  27  28
ENDBRANCH  26  27
ENDBRANCH  24  26
ENDBRANCH  23  25
ENDBRANCH   1  23
TORSDOF 15
ENDMDL
MODEL 2
REMARK VINA RESULT:      -6.4      3.045      6.222
REMARK  Name = 
REMARK  16 active torsions:
REMARK  status: ('A' for Active; 'I' for Inactive)
REMARK    1  A    between atoms: C_1  and  C_2
REMARK    2  A    between atoms: C_2  and  N_3
REMARK    3  A    between atoms: C_4  and  C_6
REMARK    4  A    between atoms: C_6  and  C_7
REMARK    5  A    between atoms: C_7  and  C_8
REMARK    6  A    between atoms: C_8  and  C_9
REMARK    7  A    between atoms: C_10  and  C_11
REMARK    8  A    between atoms: C_11  and  C_12
REMARK    9  A    between atoms: C_14  and  O_16
REMARK   10  A    between atoms: C_18  and  O_20
REMARK   11  A    between atoms: C_21  and  C_23
REMARK   12  A    between atoms: C_24  and  C_25
REMARK   13  A    between atoms: C_25  and  O_27
REMARK   14  A    between atoms: C_25  and  C_28
REMARK   15  A    between atoms: C_28  and  C_29
REMARK   16  A    between atoms: C_29  and  C_30
REMARK                            x       y       z     vdW  Elec       q    Type
REMARK                         _______ _______ _______ _____ _____    ______ ____
ROOT
ATOM      1  C   UNL     1       8.282  -1.267  25.205  0.00  0.00    +0.031 C 
ATOM      2  C   UNL     1       6.995  -0.832  24.456  0.00  0.00    +0.046 C 
ATOM      3  C   UNL     1       5.940  -0.597  25.557  0.00  0.00    +0.124 C 
ATOM      4  C   UNL     1       6.544  -1.130  26.854  0.00  0.00    +0.063 C 
ATOM      5  C   UNL     1       8.039  -0.873  26.673  0.00  0.00    +0.121 C 
ENDROOT
BRANCH   2   6
ATOM      6  C   UNL     1       6.558  -1.875  23.450  0.00  0.00    -0.022 C 
ATOM      7  C   UNL     1       5.463  -2.635  23.613  0.00  0.00    -0.000 C 
BRANCH   7   8
ATOM      8  C   UNL     1       4.988  -3.670  22.635  0.00  0.00    +0.137 C 
BRANCH   8   9
ATOM      9  O   UNL     1       5.757  -3.513  21.446  0.00  0.00    -0.388 OA
ATOM     10  H   UNL     1       6.455  -2.864  21.640  0.00  0.00    +0.210 HD
ENDBRANCH   8   9
BRANCH   8  11
ATOM     11  C   UNL     1       5.184  -5.097  23.150  0.00  0.00    +0.040 C 
BRANCH  11  12
ATOM     12  C   UNL     1       6.638  -5.567  23.056  0.00  0.00    +0.038 C 
BRANCH  12  13
ATOM     13  C   UNL     1       7.394  -5.276  24.327  0.00  0.00    -0.047 A 
ATOM     14  C   UNL     1       8.764  -4.982  24.288  0.00  0.00    +0.003 A 
ATOM     15  C   UNL     1       9.454  -4.682  25.461  0.00  0.00    +0.000 A 
ATOM     16  C   UNL     1       8.785  -4.670  26.683  0.00  0.00    +0.000 A 
ATOM     17  C   UNL     1       7.422  -4.959  26.733  0.00  0.00    +0.000 A 
ATOM     18  C   UNL     1       6.729  -5.261  25.560  0.00  0.00    +0.003 A 
ENDBRANCH  12  13
ENDBRANCH  11  12
ENDBRANCH   8  11
ENDBRANCH   7   8
ENDBRANCH   2   6
BRANCH   3  19
ATOM     19  O   UNL     1       5.699   0.809  25.676  0.00  0.00    -0.391 OA
ATOM     20  H   UNL     1       4.746   0.942  25.485  0.00  0.00    +0.210 HD
ENDBRANCH   3  19
BRANCH   5  21
ATOM     21  O   UNL     1       8.260   0.503  26.953  0.00  0.00    -0.391 OA
ATOM     22  H   UNL     1       7.729   1.018  26.323  0.00  0.00    +0.210 HD
ENDBRANCH   5  21
BRANCH   1  23
ATOM     23  C   UNL     1       9.579  -0.760  24.549  0.00  0.00    +0.033 C 
BRANCH  23  25
ATOM     24  C   UNL     1       9.994  -1.475  22.142  0.00  0.00    -0.031 C 
ATOM     25  C   UNL     1      10.144  -1.639  23.465  0.00  0.00    -0.031 C 
BRANCH  24  26
ATOM     26  C   UNL     1       9.253  -0.358  21.466  0.00  0.00    +0.027 C 
BRANCH  26  27
ATOM     27  C   UNL     1       9.799   1.002  21.888  0.00  0.00    +0.013 C 
BRANCH  27  28
ATOM     28  C   UNL     1       8.693   2.007  22.202  0.00  0.00    +0.096 C 
BRANCH  28  31
ATOM     29  N   UNL     1       9.538   4.104  23.036  0.00  0.00    -0.316 N 
ATOM     30  H   UNL     1       9.529   4.380  22.061  0.00  0.00    +0.149 HD
ATOM     31  C   UNL     1       9.052   2.864  23.394  0.00  0.00    +0.213 C 
ATOM     32  O   UNL     1       8.922   2.496  24.558  0.00  0.00    -0.276 OA
BRANCH  29  34
ATOM     33  C   UNL     1      11.276   5.671  23.754  0.00  0.00    +0.024 C 
ATOM     34  C   UNL     1       9.911   5.073  24.039  0.00  0.00    +0.101 C 
ENDBRANCH  29  34
ENDBRANCH  28  31
ENDBRANCH  27  28
ENDBRANCH  26  27
ENDBRANCH  24  26
ENDBRANCH  23  25
ENDBRANCH   1  23
TORSDOF 15
ENDMDL
MODEL 3
REMARK VINA RESULT:      -6.3      2.474      4.946
REMARK  Name = 
REMARK  16 active torsions:
REMARK  status: ('A' for Active; 'I' for Inactive)
REMARK    1  A    between atoms: C_1  and  C_2
REMARK    2  A    between atoms: C_2  and  N_3
REMARK    3  A    between atoms: C_4  and  C_6
REMARK    4  A    between atoms: C_6  and  C_7
REMARK    5  A    between atoms: C_7  and  C_8
REMARK    6  A    between atoms: C_8  and  C_9
REMARK    7  A    between atoms: C_10  and  C_11
REMARK    8  A    between atoms: C_11  and  C_12
REMARK    9  A    between atoms: C_14  and  O_16
REMARK   10  A    between atoms: C_18  and  O_20
REMARK   11  A    between atoms: C_21  and  C_23
REMARK   12  A    between atoms: C_24  and  C_25
REMARK   13  A    between atoms: C_25  and  O_27
REMARK   14  A    between atoms: C_25  and  C_28
REMARK   15  A    between atoms: C_28  and  C_29
REMARK   16  A    between atoms: C_29  and  C_30
REMARK                            x       y       z     vdW  Elec       q    Type
REMARK                         _______ _______ _______ _____ _____    ______ ____
ROOT
ATOM      1  C   UNL     1       8.573  -3.354  24.631  0.00  0.00    +0.031 C 
ATOM      2  C   UNL     1       8.413  -3.215  26.168  0.00  0.00    +0.046 C 
ATOM      3  C   UNL     1       7.897  -4.586  26.653  0.00  0.00    +0.124 C 
ATOM      4  C   UNL     1       7.537  -5.379  25.397  0.00  0.00    +0.063 C 
ATOM      5  C   UNL     1       8.542  -4.870  24.365  0.00  0.00    +0.121 C 
ENDROOT
BRANCH   2   6
ATOM      6  C   UNL     1       7.475  -2.084  26.529  0.00  0.00    -0.022 C 
ATOM      7  C   UNL     1       7.885  -0.814  26.683  0.00  0.00    -0.000 C 
BRANCH   7   8
ATOM      8  C   UNL     1       6.987   0.338  27.027  0.00  0.00    +0.137 C 
BRANCH   8   9
ATOM      9  O   UNL     1       7.733   1.222  27.858  0.00  0.00    -0.388 OA
ATOM     10  H   UNL     1       7.659   2.111  27.469  0.00  0.00    +0.210 HD
ENDBRANCH   8   9
BRANCH   8  11
ATOM     11  C   UNL     1       6.526   1.113  25.791  0.00  0.00    +0.040 C 
BRANCH  11  12
ATOM     12  C   UNL     1       7.397   2.339  25.502  0.00  0.00    +0.038 C 
BRANCH  12  13
ATOM     13  C   UNL     1       8.296   2.109  24.314  0.00  0.00    -0.047 A 
ATOM     14  C   UNL     1       7.825   2.334  23.013  0.00  0.00    +0.003 A 
ATOM     15  C   UNL     1       8.668   2.151  21.918  0.00  0.00    +0.000 A 
ATOM     16  C   UNL     1       9.987   1.745  22.110  0.00  0.00    +0.000 A 
ATOM     17  C   UNL     1      10.465   1.520  23.400  0.00  0.00    +0.000 A 
ATOM     18  C   UNL     1       9.623   1.701  24.498  0.00  0.00    +0.003 A 
ENDBRANCH  12  13
ENDBRANCH  11  12
ENDBRANCH   8  11
ENDBRANCH   7   8
ENDBRANCH   2   6
BRANCH   3  19
ATOM     19  O   UNL     1       8.945  -5.252  27.363  0.00  0.00    -0.391 OA
ATOM     20  H   UNL     1       8.507  -5.819  28.033  0.00  0.00    +0.210 HD
ENDBRANCH   3  19
BRANCH   5  21
ATOM     21  O   UNL     1       9.772  -5.534  24.620  0.00  0.00    -0.391 OA
ATOM     22  H   UNL     1      10.347  -4.911  25.096  0.00  0.00    +0.210 HD
ENDBRANCH   5  21
BRANCH   1  23
ATOM     23  C   UNL     1       9.767  -2.567  24.061  0.00  0.00    +0.033 C 
BRANCH  23  25
ATOM     24  C   UNL     1       8.418  -1.471  22.201  0.00  0.00    -0.031 C 
ATOM     25  C   UNL     1       9.560  -1.978  22.690  0.00  0.00    -0.031 C 
BRANCH  24  26
ATOM     26  C   UNL     1       7.113  -1.358  22.933  0.00  0.00    +0.027 C 
BRANCH  26  27
ATOM     27  C   UNL     1       6.097  -2.367  22.409  0.00  0.00    +0.013 C 
BRANCH  27  28
ATOM     28  C   UNL     1       5.265  -2.997  23.525  0.00  0.00    +0.096 C 
BRANCH  28  31
ATOM     29  N   UNL     1       3.575  -4.680  23.869  0.00  0.00    -0.316 N 
ATOM     30  H   UNL     1       3.245  -4.056  24.595  0.00  0.00    +0.149 HD
ATOM     31  C   UNL     1       4.635  -4.295  23.075  0.00  0.00    +0.213 C 
ATOM     32  O   UNL     1       5.024  -4.937  22.103  0.00  0.00    -0.276 OA
BRANCH  29  34
ATOM     33  C   UNL     1       1.464  -5.564  23.004  0.00  0.00    +0.024 C 
ATOM     34  C   UNL     1       2.831  -5.882  23.580  0.00  0.00    +0.101 C 
ENDBRANCH  29  34
ENDBRANCH  28  31
ENDBRANCH  27  28
ENDBRANCH  26  27
ENDBRANCH  24  26
ENDBRANCH  23  25
ENDBRANCH   1  23
TORSDOF 15
ENDMDL
MODEL 4
REMARK VINA RESULT:      -6.3      2.976      8.054
REMARK  Name = 
REMARK  16 active torsions:
REMARK  status: ('A' for Active; 'I' for Inactive)
REMARK    1  A    between atoms: C_1  and  C_2
REMARK    2  A    between atoms: C_2  and  N_3
REMARK    3  A    between atoms: C_4  and  C_6
REMARK    4  A    between atoms: C_6  and  C_7
REMARK    5  A    between atoms: C_7  and  C_8
REMARK    6  A    between atoms: C_8  and  C_9
REMARK    7  A    between atoms: C_10  and  C_11
REMARK    8  A    between atoms: C_11  and  C_12
REMARK    9  A    between atoms: C_14  and  O_16
REMARK   10  A    between atoms: C_18  and  O_20
REMARK   11  A    between atoms: C_21  and  C_23
REMARK   12  A    between atoms: C_24  and  C_25
REMARK   13  A    between atoms: C_25  and  O_27
REMARK   14  A    between atoms: C_25  and  C_28
REMARK   15  A    between atoms: C_28  and  C_29
REMARK   16  A    between atoms: C_29  and  C_30
REMARK                            x       y       z     vdW  Elec       q    Type
REMARK                         _______ _______ _______ _____ _____    ______ ____
ROOT
ATOM      1  C   UNL     1       9.209   3.103  24.103  0.00  0.00    +0.031 C 
ATOM      2  C   UNL     1       7.994   2.898  23.159  0.00  0.00    +0.046 C 
ATOM      3  C   UNL     1       7.313   4.280  23.062  0.00  0.00    +0.124 C 
ATOM      4  C   UNL     1       7.976   5.162  24.119  0.00  0.00    +0.063 C 
ATOM      5  C   UNL     1       9.406   4.628  24.170  0.00  0.00    +0.121 C 
ENDROOT
BRANCH   2   6
ATOM      6  C   UNL     1       7.060   1.828  23.680  0.00  0.00    -0.022 C 
ATOM      7  C   UNL     1       6.722   1.719  24.975  0.00  0.00    -0.000 C 
BRANCH   7   8
ATOM      8  C   UNL     1       5.790   0.682  25.531  0.00  0.00    +0.137 C 
BRANCH   8   9
ATOM      9  O   UNL     1       5.416  -0.171  24.453  0.00  0.00    -0.388 OA
ATOM     10  H   UNL     1       5.037  -0.977  24.845  0.00  0.00    +0.210 HD
ENDBRANCH   8   9
BRANCH   8  11
ATOM     11  C   UNL     1       6.443  -0.173  26.618  0.00  0.00    +0.040 C 
BRANCH  11  12
ATOM     12  C   UNL     1       7.701  -0.895  26.127  0.00  0.00    +0.038 C 
BRANCH  12  13
ATOM     13  C   UNL     1       7.629  -2.376  26.401  0.00  0.00    -0.047 A 
ATOM     14  C   UNL     1       6.417  -2.970  26.777  0.00  0.00    +0.003 A 
ATOM     15  C   UNL     1       6.346  -4.345  26.999  0.00  0.00    +0.000 A 
ATOM     16  C   UNL     1       7.481  -5.138  26.847  0.00  0.00    +0.000 A 
ATOM     17  C   UNL     1       8.691  -4.556  26.473  0.00  0.00    +0.000 A 
ATOM     18  C   UNL     1       8.765  -3.181  26.250  0.00  0.00    +0.003 A 
ENDBRANCH  12  13
ENDBRANCH  11  12
ENDBRANCH   8  11
ENDBRANCH   7   8
ENDBRANCH   2   6
BRANCH   3  19
ATOM     19  O   UNL     1       7.550   4.824  21.760  0.00  0.00    -0.391 OA
ATOM     20  H   UNL     1       6.699   5.213  21.466  0.00  0.00    +0.210 HD
ENDBRANCH   3  19
BRANCH   5  21
ATOM     21  O   UNL     1      10.095   5.178  23.056  0.00  0.00    -0.391 OA
ATOM     22  H   UNL     1      10.662   4.479  22.690  0.00  0.00    +0.210 HD
ENDBRANCH   5  21
BRANCH   1  23
ATOM     23  C   UNL     1      10.435   2.253  23.724  0.00  0.00    +0.033 C 
BRANCH  23  25
ATOM     24  C   UNL     1      10.502  -0.259  24.122  0.00  0.00    -0.031 C 
ATOM     25  C   UNL     1      10.640   1.008  24.544  0.00  0.00    -0.031 C 
BRANCH  24  26
ATOM     26  C   UNL     1      10.143  -0.697  22.732  0.00  0.00    +0.027 C 
BRANCH  26  27
ATOM     27  C   UNL     1       9.303  -1.969  22.754  0.00  0.00    +0.013 C 
BRANCH  27  28
ATOM     28  C   UNL     1       7.821  -1.699  22.504  0.00  0.00    +0.096 C 
BRANCH  28  31
ATOM     29  N   UNL     1       7.677  -4.084  22.820  0.00  0.00    -0.316 N 
ATOM     30  H   UNL     1       8.676  -4.065  22.655  0.00  0.00    +0.149 HD
ATOM     31  C   UNL     1       6.975  -2.897  22.866  0.00  0.00    +0.213 C 
ATOM     32  O   UNL     1       5.787  -2.822  23.172  0.00  0.00    -0.276 OA
BRANCH  29  34
ATOM     33  C   UNL     1       6.658  -6.117  21.917  0.00  0.00    +0.024 C 
ATOM     34  C   UNL     1       7.042  -5.335  23.159  0.00  0.00    +0.101 C 
ENDBRANCH  29  34
ENDBRANCH  28  31
ENDBRANCH  27  28
ENDBRANCH  26  27
ENDBRANCH  24  26
ENDBRANCH  23  25
ENDBRANCH   1  23
TORSDOF 15
ENDMDL
MODEL 5
REMARK VINA RESULT:      -6.2      2.233      5.017
REMARK  Name = 
REMARK  16 active torsions:
REMARK  status: ('A' for Active; 'I' for Inactive)
REMARK    1  A    between atoms: C_1  and  C_2
REMARK    2  A    between atoms: C_2  and  N_3
REMARK    3  A    between atoms: C_4  and  C_6
REMARK    4  A    between atoms: C_6  and  C_7
REMARK    5  A    between atoms: C_7  and  C_8
REMARK    6  A    between atoms: C_8  and  C_9
REMARK    7  A    between atoms: C_10  and  C_11
REMARK    8  A    between atoms: C_11  and  C_12
REMARK    9  A    between atoms: C_14  and  O_16
REMARK   10  A    between atoms: C_18  and  O_20
REMARK   11  A    between atoms: C_21  and  C_23
REMARK   12  A    between atoms: C_24  and  C_25
REMARK   13  A    between atoms: C_25  and  O_27
REMARK   14  A    between atoms: C_25  and  C_28
REMARK   15  A    between atoms: C_28  and  C_29
REMARK   16  A    between atoms: C_29  and  C_30
REMARK                            x       y       z     vdW  Elec       q    Type
REMARK                         _______ _______ _______ _____ _____    ______ ____
ROOT
ATOM      1  C   UNL     1       7.281  -3.929  25.701  0.00  0.00    +0.031 C 
ATOM      2  C   UNL     1       8.196  -4.178  24.473  0.00  0.00    +0.046 C 
ATOM      3  C   UNL     1       9.539  -4.668  25.055  0.00  0.00    +0.124 C 
ATOM      4  C   UNL     1       9.458  -4.452  26.566  0.00  0.00    +0.063 C 
ATOM      5  C   UNL     1       7.974  -4.657  26.866  0.00  0.00    +0.121 C 
ENDROOT
BRANCH   2   6
ATOM      6  C   UNL     1       8.352  -2.929  23.633  0.00  0.00    -0.022 C 
ATOM      7  C   UNL     1       9.521  -2.284  23.490  0.00  0.00    -0.000 C 
BRANCH   7   8
ATOM      8  C   UNL     1       9.721  -1.052  22.657  0.00  0.00    +0.137 C 
BRANCH   8   9
ATOM      9  O   UNL     1      10.156  -1.477  21.370  0.00  0.00    -0.388 OA
ATOM     10  H   UNL     1       9.362  -1.573  20.817  0.00  0.00    +0.210 HD
ENDBRANCH   8   9
BRANCH   8  11
ATOM     11  C   UNL     1       8.434  -0.243  22.487  0.00  0.00    +0.040 C 
BRANCH  11  12
ATOM     12  C   UNL     1       8.272   0.846  23.551  0.00  0.00    +0.038 C 
BRANCH  12  13
ATOM     13  C   UNL     1       7.527   0.332  24.757  0.00  0.00    -0.047 A 
ATOM     14  C   UNL     1       6.159   0.038  24.674  0.00  0.00    +0.003 A 
ATOM     15  C   UNL     1       5.479  -0.468  25.781  0.00  0.00    +0.000 A 
ATOM     16  C   UNL     1       6.157  -0.687  26.979  0.00  0.00    +0.000 A 
ATOM     17  C   UNL     1       7.518  -0.399  27.071  0.00  0.00    +0.000 A 
ATOM     18  C   UNL     1       8.200   0.108  25.964  0.00  0.00    +0.003 A 
ENDBRANCH  12  13
ENDBRANCH  11  12
ENDBRANCH   8  11
ENDBRANCH   7   8
ENDBRANCH   2   6
BRANCH   3  19
ATOM     19  O   UNL     1       9.686  -6.063  24.772  0.00  0.00    -0.391 OA
ATOM     20  H   UNL     1       9.951  -6.488  25.615  0.00  0.00    +0.210 HD
ENDBRANCH   3  19
BRANCH   5  21
ATOM     21  O   UNL     1       7.746  -6.059  26.898  0.00  0.00    -0.391 OA
ATOM     22  H   UNL     1       8.526  -6.491  26.511  0.00  0.00    +0.210 HD
ENDBRANCH   5  21
BRANCH   1  23
ATOM     23  C   UNL     1       5.800  -4.264  25.446  0.00  0.00    +0.033 C 
BRANCH  23  25
ATOM     24  C   UNL     1       4.038  -5.051  27.104  0.00  0.00    -0.031 C 
ATOM     25  C   UNL     1       4.889  -4.125  26.636  0.00  0.00    -0.031 C 
BRANCH  24  26
ATOM     26  C   UNL     1       3.840  -6.433  26.553  0.00  0.00    +0.027 C 
BRANCH  26  27
ATOM     27  C   UNL     1       2.769  -6.445  25.467  0.00  0.00    +0.013 C 
BRANCH  27  28
ATOM     28  C   UNL     1       3.244  -7.119  24.182  0.00  0.00    +0.096 C 
BRANCH  28  31
ATOM     29  N   UNL     1       5.033  -6.466  22.705  0.00  0.00    -0.316 N 
ATOM     30  H   UNL     1       5.418  -7.375  22.935  0.00  0.00    +0.149 HD
ATOM     31  C   UNL     1       3.798  -6.108  23.204  0.00  0.00    +0.213 C 
ATOM     32  O   UNL     1       3.210  -5.078  22.886  0.00  0.00    -0.276 OA
BRANCH  29  34
ATOM     33  C   UNL     1       7.192  -5.961  21.669  0.00  0.00    +0.024 C 
ATOM     34  C   UNL     1       5.711  -5.637  21.738  0.00  0.00    +0.101 C 
ENDBRANCH  29  34
ENDBRANCH  28  31
ENDBRANCH  27  28
ENDBRANCH  26  27
ENDBRANCH  24  26
ENDBRANCH  23  25
ENDBRANCH   1  23
TORSDOF 15
ENDMDL
MODEL 6
REMARK VINA RESULT:      -6.1      1.980      3.444
REMARK  Name = 
REMARK  16 active torsions:
REMARK  status: ('A' for Active; 'I' for Inactive)
REMARK    1  A    between atoms: C_1  and  C_2
REMARK    2  A    between atoms: C_2  and  N_3
REMARK    3  A    between atoms: C_4  and  C_6
REMARK    4  A    between atoms: C_6  and  C_7
REMARK    5  A    between atoms: C_7  and  C_8
REMARK    6  A    between atoms: C_8  and  C_9
REMARK    7  A    between atoms: C_10  and  C_11
REMARK    8  A    between atoms: C_11  and  C_12
REMARK    9  A    between atoms: C_14  and  O_16
REMARK   10  A    between atoms: C_18  and  O_20
REMARK   11  A    between atoms: C_21  and  C_23
REMARK   12  A    between atoms: C_24  and  C_25
REMARK   13  A    between atoms: C_25  and  O_27
REMARK   14  A    between atoms: C_25  and  C_28
REMARK   15  A    between atoms: C_28  and  C_29
REMARK   16  A    between atoms: C_29  and  C_30
REMARK                            x       y       z     vdW  Elec       q    Type
REMARK                         _______ _______ _______ _____ _____    ______ ____
ROOT
ATOM      1  C   UNL     1       5.111  -4.398  27.215  0.00  0.00    +0.031 C 
ATOM      2  C   UNL     1       5.802  -5.748  26.888  0.00  0.00    +0.046 C 
ATOM      3  C   UNL     1       6.012  -6.442  28.250  0.00  0.00    +0.124 C 
ATOM      4  C   UNL     1       5.682  -5.401  29.319  0.00  0.00    +0.063 C 
ATOM      5  C   UNL     1       4.596  -4.556  28.657  0.00  0.00    +0.121 C 
ENDROOT
BRANCH   2   6
ATOM      6  C   UNL     1       7.100  -5.541  26.139  0.00  0.00    -0.022 C 
ATOM      7  C   UNL     1       8.172  -4.944  26.684  0.00  0.00    -0.000 C 
BRANCH   7   8
ATOM      8  C   UNL     1       9.482  -4.730  25.982  0.00  0.00    +0.137 C 
BRANCH   8   9
ATOM      9  O   UNL     1       9.927  -6.002  25.522  0.00  0.00    -0.388 OA
ATOM     10  H   UNL     1      10.897  -6.010  25.597  0.00  0.00    +0.210 HD
ENDBRANCH   8   9
BRANCH   8  11
ATOM     11  C   UNL     1       9.355  -3.800  24.774  0.00  0.00    +0.040 C 
BRANCH  11  12
ATOM     12  C   UNL     1       9.100  -2.344  25.172  0.00  0.00    +0.038 C 
BRANCH  12  13
ATOM     13  C   UNL     1       9.338  -1.407  24.015  0.00  0.00    -0.047 A 
ATOM     14  C   UNL     1       9.797  -0.102  24.240  0.00  0.00    +0.003 A 
ATOM     15  C   UNL     1      10.046   0.752  23.166  0.00  0.00    +0.000 A 
ATOM     16  C   UNL     1       9.842   0.312  21.860  0.00  0.00    +0.000 A 
ATOM     17  C   UNL     1       9.386  -0.984  21.626  0.00  0.00    +0.000 A 
ATOM     18  C   UNL     1       9.136  -1.841  22.698  0.00  0.00    +0.003 A 
ENDBRANCH  12  13
ENDBRANCH  11  12
ENDBRANCH   8  11
ENDBRANCH   7   8
ENDBRANCH   2   6
BRANCH   3  19
ATOM     19  O   UNL     1       5.106  -7.546  28.353  0.00  0.00    -0.391 OA
ATOM     20  H   UNL     1       5.239  -7.928  29.247  0.00  0.00    +0.210 HD
ENDBRANCH   3  19
BRANCH   5  21
ATOM     21  O   UNL     1       3.380  -5.281  28.767  0.00  0.00    -0.391 OA
ATOM     22  H   UNL     1       3.608  -6.215  28.907  0.00  0.00    +0.210 HD
ENDBRANCH   5  21
BRANCH   1  23
ATOM     23  C   UNL     1       4.091  -3.952  26.151  0.00  0.00    +0.033 C 
BRANCH  23  25
ATOM     24  C   UNL     1       5.163  -2.309  24.530  0.00  0.00    -0.031 C 
ATOM     25  C   UNL     1       4.335  -2.595  25.547  0.00  0.00    -0.031 C 
BRANCH  24  26
ATOM     26  C   UNL     1       5.998  -3.293  23.763  0.00  0.00    +0.027 C 
BRANCH  26  27
ATOM     27  C   UNL     1       5.217  -3.885  22.594  0.00  0.00    +0.013 C 
BRANCH  27  28
ATOM     28  C   UNL     1       5.166  -5.410  22.635  0.00  0.00    +0.096 C 
BRANCH  28  31
ATOM     29  N   UNL     1       3.909  -7.083  23.831  0.00  0.00    -0.316 N 
ATOM     30  H   UNL     1       4.820  -7.467  24.051  0.00  0.00    +0.149 HD
ATOM     31  C   UNL     1       3.823  -5.903  23.123  0.00  0.00    +0.213 C 
ATOM     32  O   UNL     1       2.766  -5.312  22.913  0.00  0.00    -0.276 OA
BRANCH  29  34
ATOM     33  C   UNL     1       2.550  -7.306  25.853  0.00  0.00    +0.024 C 
ATOM     34  C   UNL     1       2.731  -7.695  24.398  0.00  0.00    +0.101 C 
ENDBRANCH  29  34
ENDBRANCH  28  31
ENDBRANCH  27  28
ENDBRANCH  26  27
ENDBRANCH  24  26
ENDBRANCH  23  25
ENDBRANCH   1  23
TORSDOF 15
ENDMDL
MODEL 7
REMARK VINA RESULT:      -6.0      3.086      6.961
REMARK  Name = 
REMARK  16 active torsions:
REMARK  status: ('A' for Active; 'I' for Inactive)
REMARK    1  A    between atoms: C_1  and  C_2
REMARK    2  A    between atoms: C_2  and  N_3
REMARK    3  A    between atoms: C_4  and  C_6
REMARK    4  A    between atoms: C_6  and  C_7
REMARK    5  A    between atoms: C_7  and  C_8
REMARK    6  A    between atoms: C_8  and  C_9
REMARK    7  A    between atoms: C_10  and  C_11
REMARK    8  A    between atoms: C_11  and  C_12
REMARK    9  A    between atoms: C_14  and  O_16
REMARK   10  A    between atoms: C_18  and  O_20
REMARK   11  A    between atoms: C_21  and  C_23
REMARK   12  A    between atoms: C_24  and  C_25
REMARK   13  A    between atoms: C_25  and  O_27
REMARK   14  A    between atoms: C_25  and  C_28
REMARK   15  A    between atoms: C_28  and  C_29
REMARK   16  A    between atoms: C_29  and  C_30
REMARK                            x       y       z     vdW  Elec       q    Type
REMARK                         _______ _______ _______ _____ _____    ______ ____
ROOT
ATOM      1  C   UNL     1       7.993  -0.970  22.932  0.00  0.00    +0.031 C 
ATOM      2  C   UNL     1       8.554  -0.845  24.372  0.00  0.00    +0.046 C 
ATOM      3  C   UNL     1      10.077  -1.051  24.238  0.00  0.00    +0.124 C 
ATOM      4  C   UNL     1      10.323  -1.529  22.808  0.00  0.00    +0.063 C 
ATOM      5  C   UNL     1       9.221  -0.831  22.014  0.00  0.00    +0.121 C 
ENDROOT
BRANCH   2   6
ATOM      6  C   UNL     1       7.915  -1.849  25.307  0.00  0.00    -0.022 C 
ATOM      7  C   UNL     1       8.580  -2.896  25.821  0.00  0.00    -0.000 C 
BRANCH   7   8
ATOM      8  C   UNL     1       7.989  -3.907  26.760  0.00  0.00    +0.137 C 
BRANCH   8   9
ATOM      9  O   UNL     1       6.698  -3.433  27.133  0.00  0.00    -0.388 OA
ATOM     10  H   UNL     1       6.818  -2.550  27.521  0.00  0.00    +0.210 HD
ENDBRANCH   8   9
BRANCH   8  11
ATOM     11  C   UNL     1       7.827  -5.285  26.114  0.00  0.00    +0.040 C 
BRANCH  11  12
ATOM     12  C   UNL     1       6.435  -5.499  25.516  0.00  0.00    +0.038 C 
BRANCH  12  13
ATOM     13  C   UNL     1       6.333  -4.908  24.132  0.00  0.00    -0.047 A 
ATOM     14  C   UNL     1       7.206  -5.322  23.117  0.00  0.00    +0.003 A 
ATOM     15  C   UNL     1       7.090  -4.797  21.831  0.00  0.00    +0.000 A 
ATOM     16  C   UNL     1       6.100  -3.859  21.545  0.00  0.00    +0.000 A 
ATOM     17  C   UNL     1       5.226  -3.442  22.547  0.00  0.00    +0.000 A 
ATOM     18  C   UNL     1       5.341  -3.965  23.836  0.00  0.00    +0.003 A 
ENDBRANCH  12  13
ENDBRANCH  11  12
ENDBRANCH   8  11
ENDBRANCH   7   8
ENDBRANCH   2   6
BRANCH   3  19
ATOM     19  O   UNL     1      10.736   0.202  24.450  0.00  0.00    -0.391 OA
ATOM     20  H   UNL     1      10.123   0.894  24.120  0.00  0.00    +0.210 HD
ENDBRANCH   3  19
BRANCH   5  21
ATOM     21  O   UNL     1       9.645   0.508  21.804  0.00  0.00    -0.391 OA
ATOM     22  H   UNL     1      10.132   0.532  20.963  0.00  0.00    +0.210 HD
ENDBRANCH   5  21
BRANCH   1  23
ATOM     23  C   UNL     1       6.799  -0.039  22.651  0.00  0.00    +0.033 C 
BRANCH  23  25
ATOM     24  C   UNL     1       6.384   2.295  23.576  0.00  0.00    -0.031 C 
ATOM     25  C   UNL     1       6.492   0.966  23.729  0.00  0.00    -0.031 C 
BRANCH  24  26
ATOM     26  C   UNL     1       6.518   3.054  22.288  0.00  0.00    +0.027 C 
BRANCH  26  27
ATOM     27  C   UNL     1       7.384   4.296  22.467  0.00  0.00    +0.013 C 
BRANCH  27  28
ATOM     28  C   UNL     1       8.075   4.338  23.828  0.00  0.00    +0.096 C 
BRANCH  28  31
ATOM     29  N   UNL     1      10.381   4.888  23.392  0.00  0.00    -0.316 N 
ATOM     30  H   UNL     1      10.038   5.839  23.333  0.00  0.00    +0.149 HD
ATOM     31  C   UNL     1       9.510   3.874  23.731  0.00  0.00    +0.213 C 
ATOM     32  O   UNL     1       9.864   2.715  23.935  0.00  0.00    -0.276 OA
BRANCH  29  34
ATOM     33  C   UNL     1      12.610   5.778  23.867  0.00  0.00    +0.024 C 
ATOM     34  C   UNL     1      11.798   4.641  23.276  0.00  0.00    +0.101 C 
ENDBRANCH  29  34
ENDBRANCH  28  31
ENDBRANCH  27  28
ENDBRANCH  26  27
ENDBRANCH  24  26
ENDBRANCH  23  25
ENDBRANCH   1  23
TORSDOF 15
ENDMDL
MODEL 8
REMARK VINA RESULT:      -6.0      2.150      3.463
REMARK  Name = 
REMARK  16 active torsions:
REMARK  status: ('A' for Active; 'I' for Inactive)
REMARK    1  A    between atoms: C_1  and  C_2
REMARK    2  A    between atoms: C_2  and  N_3
REMARK    3  A    between atoms: C_4  and  C_6
REMARK    4  A    between atoms: C_6  and  C_7
REMARK    5  A    between atoms: C_7  and  C_8
REMARK    6  A    between atoms: C_8  and  C_9
REMARK    7  A    between atoms: C_10  and  C_11
REMARK    8  A    between atoms: C_11  and  C_12
REMARK    9  A    between atoms: C_14  and  O_16
REMARK   10  A    between atoms: C_18  and  O_20
REMARK   11  A    between atoms: C_21  and  C_23
REMARK   12  A    between atoms: C_24  and  C_25
REMARK   13  A    between atoms: C_25  and  O_27
REMARK   14  A    between atoms: C_25  and  C_28
REMARK   15  A    between atoms: C_28  and  C_29
REMARK   16  A    between atoms: C_29  and  C_30
REMARK                            x       y       z     vdW  Elec       q    Type
REMARK                         _______ _______ _______ _____ _____    ______ ____
ROOT
ATOM      1  C   UNL     1       4.903  -4.608  23.850  0.00  0.00    +0.031 C 
ATOM      2  C   UNL     1       5.453  -5.988  24.296  0.00  0.00    +0.046 C 
ATOM      3  C   UNL     1       4.260  -6.710  24.958  0.00  0.00    +0.124 C 
ATOM      4  C   UNL     1       3.153  -5.666  25.105  0.00  0.00    +0.063 C 
ATOM      5  C   UNL     1       3.372  -4.756  23.899  0.00  0.00    +0.121 C 
ENDROOT
BRANCH   2   6
ATOM      6  C   UNL     1       6.632  -5.841  25.233  0.00  0.00    -0.022 C 
ATOM      7  C   UNL     1       7.784  -5.254  24.872  0.00  0.00    -0.000 C 
BRANCH   7   8
ATOM      8  C   UNL     1       8.971  -5.076  25.773  0.00  0.00    +0.137 C 
BRANCH   8   9
ATOM      9  O   UNL     1      10.138  -5.241  24.972  0.00  0.00    -0.388 OA
ATOM     10  H   UNL     1      10.538  -4.361  24.865  0.00  0.00    +0.210 HD
ENDBRANCH   8   9
BRANCH   8  11
ATOM     11  C   UNL     1       9.020  -3.687  26.413  0.00  0.00    +0.040 C 
BRANCH  11  12
ATOM     12  C   UNL     1       7.631  -3.152  26.773  0.00  0.00    +0.038 C 
BRANCH  12  13
ATOM     13  C   UNL     1       7.433  -1.748  26.263  0.00  0.00    -0.047 A 
ATOM     14  C   UNL     1       8.532  -0.898  26.077  0.00  0.00    +0.003 A 
ATOM     15  C   UNL     1       8.349   0.390  25.575  0.00  0.00    +0.000 A 
ATOM     16  C   UNL     1       7.070   0.841  25.252  0.00  0.00    +0.000 A 
ATOM     17  C   UNL     1       5.971   0.002  25.432  0.00  0.00    +0.000 A 
ATOM     18  C   UNL     1       6.151  -1.287  25.935  0.00  0.00    +0.003 A 
ENDBRANCH  12  13
ENDBRANCH  11  12
ENDBRANCH   8  11
ENDBRANCH   7   8
ENDBRANCH   2   6
BRANCH   3  19
ATOM     19  O   UNL     1       3.819  -7.765  24.097  0.00  0.00    -0.391 OA
ATOM     20  H   UNL     1       3.244  -7.346  23.422  0.00  0.00    +0.210 HD
ENDBRANCH   3  19
BRANCH   5  21
ATOM     21  O   UNL     1       2.812  -5.416  22.773  0.00  0.00    -0.391 OA
ATOM     22  H   UNL     1       2.390  -6.231  23.092  0.00  0.00    +0.210 HD
ENDBRANCH   5  21
BRANCH   1  23
ATOM     23  C   UNL     1       5.516  -4.095  22.534  0.00  0.00    +0.033 C 
BRANCH  23  25
ATOM     24  C   UNL     1       7.015  -2.039  22.556  0.00  0.00    -0.031 C 
ATOM     25  C   UNL     1       5.807  -2.619  22.485  0.00  0.00    -0.031 C 
BRANCH  24  26
ATOM     26  C   UNL     1       8.334  -2.747  22.669  0.00  0.00    +0.027 C 
BRANCH  26  27
ATOM     27  C   UNL     1       9.492  -1.755  22.700  0.00  0.00    +0.013 C 
BRANCH  27  28
ATOM     28  C   UNL     1       9.460  -0.778  21.528  0.00  0.00    +0.096 C 
BRANCH  28  31
ATOM     29  N   UNL     1       8.257   1.310  21.564  0.00  0.00    -0.316 N 
ATOM     30  H   UNL     1       7.545   0.793  21.062  0.00  0.00    +0.149 HD
ATOM     31  C   UNL     1       9.386   0.654  22.007  0.00  0.00    +0.213 C 
ATOM     32  O   UNL     1      10.241   1.176  22.718  0.00  0.00    -0.276 OA
BRANCH  29  34
ATOM     33  C   UNL     1       6.544   2.889  22.314  0.00  0.00    +0.024 C 
ATOM     34  C   UNL     1       8.000   2.680  21.941  0.00  0.00    +0.101 C 
ENDBRANCH  29  34
ENDBRANCH  28  31
ENDBRANCH  27  28
ENDBRANCH  26  27
ENDBRANCH  24  26
ENDBRANCH  23  25
ENDBRANCH   1  23
TORSDOF 15
ENDMDL
MODEL 9
REMARK VINA RESULT:      -6.0      4.211      6.832
REMARK  Name = 
REMARK  16 active torsions:
REMARK  status: ('A' for Active; 'I' for Inactive)
REMARK    1  A    between atoms: C_1  and  C_2
REMARK    2  A    between atoms: C_2  and  N_3
REMARK    3  A    between atoms: C_4  and  C_6
REMARK    4  A    between atoms: C_6  and  C_7
REMARK    5  A    between atoms: C_7  and  C_8
REMARK    6  A    between atoms: C_8  and  C_9
REMARK    7  A    between atoms: C_10  and  C_11
REMARK    8  A    between atoms: C_11  and  C_12
REMARK    9  A    between atoms: C_14  and  O_16
REMARK   10  A    between atoms: C_18  and  O_20
REMARK   11  A    between atoms: C_21  and  C_23
REMARK   12  A    between atoms: C_24  and  C_25
REMARK   13  A    between atoms: C_25  and  O_27
REMARK   14  A    between atoms: C_25  and  C_28
REMARK   15  A    between atoms: C_28  and  C_29
REMARK   16  A    between atoms: C_29  and  C_30
REMARK                            x       y       z     vdW  Elec       q    Type
REMARK                         _______ _______ _______ _____ _____    ______ ____
ROOT
ATOM      1  C   UNL     1       6.934   1.179  25.758  0.00  0.00    +0.031 C 
ATOM      2  C   UNL     1       6.020   0.005  25.318  0.00  0.00    +0.046 C 
ATOM      3  C   UNL     1       5.164  -0.336  26.555  0.00  0.00    +0.124 C 
ATOM      4  C   UNL     1       5.761   0.451  27.721  0.00  0.00    +0.063 C 
ATOM      5  C   UNL     1       6.293   1.715  27.051  0.00  0.00    +0.121 C 
ENDROOT
BRANCH   2   6
ATOM      6  C   UNL     1       6.830  -1.178  24.832  0.00  0.00    -0.022 C 
ATOM      7  C   UNL     1       6.707  -1.691  23.598  0.00  0.00    -0.000 C 
BRANCH   7   8
ATOM      8  C   UNL     1       7.499  -2.854  23.072  0.00  0.00    +0.137 C 
BRANCH   8   9
ATOM      9  O   UNL     1       6.874  -3.280  21.865  0.00  0.00    -0.388 OA
ATOM     10  H   UNL     1       7.230  -4.160  21.655  0.00  0.00    +0.210 HD
ENDBRANCH   8   9
BRANCH   8  11
ATOM     11  C   UNL     1       8.949  -2.482  22.759  0.00  0.00    +0.040 C 
BRANCH  11  12
ATOM     12  C   UNL     1       9.062  -1.299  21.793  0.00  0.00    +0.038 C 
BRANCH  12  13
ATOM     13  C   UNL     1       9.667  -0.094  22.467  0.00  0.00    -0.047 A 
ATOM     14  C   UNL     1       9.658   1.155  21.830  0.00  0.00    +0.003 A 
ATOM     15  C   UNL     1      10.190   2.275  22.469  0.00  0.00    +0.000 A 
ATOM     16  C   UNL     1      10.732   2.160  23.747  0.00  0.00    +0.000 A 
ATOM     17  C   UNL     1      10.745   0.922  24.389  0.00  0.00    +0.000 A 
ATOM     18  C   UNL     1      10.214  -0.200  23.752  0.00  0.00    +0.003 A 
ENDBRANCH  12  13
ENDBRANCH  11  12
ENDBRANCH   8  11
ENDBRANCH   7   8
ENDBRANCH   2   6
BRANCH   3  19
ATOM     19  O   UNL     1       3.818   0.092  26.321  0.00  0.00    -0.391 OA
ATOM     20  H   UNL     1       3.822   1.070  26.401  0.00  0.00    +0.210 HD
ENDBRANCH   3  19
BRANCH   5  21
ATOM     21  O   UNL     1       5.181   2.574  26.839  0.00  0.00    -0.391 OA
ATOM     22  H   UNL     1       4.855   2.850  27.712  0.00  0.00    +0.210 HD
ENDBRANCH   5  21
BRANCH   1  23
ATOM     23  C   UNL     1       7.213   2.198  24.639  0.00  0.00    +0.033 C 
BRANCH  23  25
ATOM     24  C   UNL     1       5.951   2.970  22.569  0.00  0.00    -0.031 C 
ATOM     25  C   UNL     1       6.422   2.005  23.373  0.00  0.00    -0.031 C 
BRANCH  24  26
ATOM     26  C   UNL     1       6.145   4.448  22.750  0.00  0.00    +0.027 C 
BRANCH  26  27
ATOM     27  C   UNL     1       7.457   4.912  22.127  0.00  0.00    +0.013 C 
BRANCH  27  28
ATOM     28  C   UNL     1       8.050   6.124  22.844  0.00  0.00    +0.096 C 
BRANCH  28  31
ATOM     29  N   UNL     1      10.442   5.990  23.109  0.00  0.00    -0.316 N 
ATOM     30  H   UNL     1      10.466   6.489  22.228  0.00  0.00    +0.149 HD
ATOM     31  C   UNL     1       9.226   5.731  23.707  0.00  0.00    +0.213 C 
ATOM     32  O   UNL     1       9.111   5.234  24.825  0.00  0.00    -0.276 OA
BRANCH  29  34
ATOM     33  C   UNL     1      12.791   5.374  22.814  0.00  0.00    +0.024 C 
ATOM     34  C   UNL     1      11.680   5.705  23.793  0.00  0.00    +0.101 C 
ENDBRANCH  29  34
ENDBRANCH  28  31
ENDBRANCH  27  28
ENDBRANCH  26  27
ENDBRANCH  24  26
ENDBRANCH  23  25
ENDBRANCH   1  23
TORSDOF 15
ENDMDL
