MODEL 1
REMARK VINA RESULT:      -4.5      0.000      0.000
REMARK  Name = 
REMARK  3 active torsions:
REMARK  status: ('A' for Active; 'I' for Inactive)
REMARK    1  A    between atoms: O_1  and  C_2
REMARK    2  A    between atoms: C_2  and  C_4
REMARK    3  A    between atoms: C_4  and  N_5
REMARK                            x       y       z     vdW  Elec       q    Type
REMARK                         _______ _______ _______ _____ _____    ______ ____
ROOT
ATOM      1  C   UNL     1       8.575  -4.244  24.519  0.00  0.00    +0.202 C 
ENDROOT
BRANCH   1   2
ATOM      2  N   UNL     1       8.996  -2.883  24.798  0.00  0.00    -0.293 N 
ATOM      3  C   UNL     1       9.815  -2.138  23.970  0.00  0.00    +0.216 C 
ATOM      4  O   UNL     1      10.400  -2.531  22.976  0.00  0.00    -0.276 OA
ATOM      5  C   UNL     1       9.897  -0.743  24.541  0.00  0.00    +0.097 C 
ATOM      6  C   UNL     1       8.716  -0.693  25.506  0.00  0.00    +0.028 C 
ATOM      7  C   UNL     1       8.525  -2.135  25.934  0.00  0.00    +0.109 C 
ENDBRANCH   1   2
BRANCH   1   8
ATOM      8  C   UNL     1       9.134  -5.230  25.532  0.00  0.00    +0.198 C 
ATOM      9  N   UNL     1       8.483  -5.745  26.516  0.00  0.00    -0.270 NA
ATOM     10  H   UNL     1       9.067  -6.367  27.074  0.00  0.00    +0.190 HD
BRANCH   8  11
ATOM     11  O   UNL     1      10.439  -5.496  25.380  0.00  0.00    -0.495 OA
ATOM     12  H   UNL     1      10.854  -4.919  24.724  0.00  0.00    +0.293 HD
ENDBRANCH   8  11
ENDBRANCH   1   8
TORSDOF 3
ENDMDL
MODEL 2
REMARK VINA RESULT:      -4.4      2.911      4.424
REMARK  Name = 
REMARK  3 active torsions:
REMARK  status: ('A' for Active; 'I' for Inactive)
REMARK    1  A    between atoms: O_1  and  C_2
REMARK    2  A    between atoms: C_2  and  C_4
REMARK    3  A    between atoms: C_4  and  N_5
REMARK                            x       y       z     vdW  Elec       q    Type
REMARK                         _______ _______ _______ _____ _____    ______ ____
ROOT
ATOM      1  C   UNL     1       8.320  -4.510  24.368  0.00  0.00    +0.202 C 
ENDROOT
BRANCH   1   2
ATOM      2  N   UNL     1       7.266  -5.197  23.643  0.00  0.00    -0.293 N 
ATOM      3  C   UNL     1       5.951  -5.263  24.061  0.00  0.00    +0.216 C 
ATOM      4  O   UNL     1       5.504  -4.882  25.129  0.00  0.00    -0.276 OA
ATOM      5  C   UNL     1       5.156  -5.938  22.970  0.00  0.00    +0.097 C 
ATOM      6  C   UNL     1       6.080  -5.844  21.760  0.00  0.00    +0.028 C 
ATOM      7  C   UNL     1       7.473  -5.810  22.358  0.00  0.00    +0.109 C 
ENDBRANCH   1   2
BRANCH   1   8
ATOM      8  C   UNL     1       8.913  -5.376  25.466  0.00  0.00    +0.198 C 
ATOM      9  N   UNL     1       8.315  -5.727  26.551  0.00  0.00    -0.270 NA
ATOM     10  H   UNL     1       8.914  -6.296  27.148  0.00  0.00    +0.190 HD
BRANCH   8  11
ATOM     11  O   UNL     1      10.193  -5.719  25.267  0.00  0.00    -0.495 OA
ATOM     12  H   UNL     1      10.556  -6.219  26.012  0.00  0.00    +0.293 HD
ENDBRANCH   8  11
ENDBRANCH   1   8
TORSDOF 3
ENDMDL
MODEL 3
REMARK VINA RESULT:      -4.3      1.799      2.217
REMARK  Name = 
REMARK  3 active torsions:
REMARK  status: ('A' for Active; 'I' for Inactive)
REMARK    1  A    between atoms: O_1  and  C_2
REMARK    2  A    between atoms: C_2  and  C_4
REMARK    3  A    between atoms: C_4  and  N_5
REMARK                            x       y       z     vdW  Elec       q    Type
REMARK                         _______ _______ _______ _____ _____    ______ ____
ROOT
ATOM      1  C   UNL     1       8.693  -3.606  26.055  0.00  0.00    +0.202 C 
ENDROOT
BRANCH   1   2
ATOM      2  N   UNL     1       8.207  -3.157  24.763  0.00  0.00    -0.293 N 
ATOM      3  C   UNL     1       9.021  -2.860  23.687  0.00  0.00    +0.216 C 
ATOM      4  O   UNL     1      10.239  -2.802  23.686  0.00  0.00    -0.276 OA
ATOM      5  C   UNL     1       8.130  -2.571  22.504  0.00  0.00    +0.097 C 
ATOM      6  C   UNL     1       6.786  -3.153  22.931  0.00  0.00    +0.028 C 
ATOM      7  C   UNL     1       6.807  -3.061  24.444  0.00  0.00    +0.109 C 
ENDBRANCH   1   2
BRANCH   1   8
ATOM      8  C   UNL     1       9.117  -5.065  26.027  0.00  0.00    +0.198 C 
ATOM      9  N   UNL     1      10.144  -5.536  25.410  0.00  0.00    -0.270 NA
ATOM     10  H   UNL     1      10.221  -6.547  25.517  0.00  0.00    +0.190 HD
BRANCH   8  11
ATOM     11  O   UNL     1       8.275  -5.896  26.657  0.00  0.00    -0.495 OA
ATOM     12  H   UNL     1       7.439  -5.465  26.884  0.00  0.00    +0.293 HD
ENDBRANCH   8  11
ENDBRANCH   1   8
TORSDOF 3
ENDMDL
MODEL 4
REMARK VINA RESULT:      -4.3      2.882      5.023
REMARK  Name = 
REMARK  3 active torsions:
REMARK  status: ('A' for Active; 'I' for Inactive)
REMARK    1  A    between atoms: O_1  and  C_2
REMARK    2  A    between atoms: C_2  and  C_4
REMARK    3  A    between atoms: C_4  and  N_5
REMARK                            x       y       z     vdW  Elec       q    Type
REMARK                         _______ _______ _______ _____ _____    ______ ____
ROOT
ATOM      1  C   UNL     1      10.374   0.789  23.382  0.00  0.00    +0.202 C 
ENDROOT
BRANCH   1   2
ATOM      2  N   UNL     1       9.697  -0.439  23.758  0.00  0.00    -0.293 N 
ATOM      3  C   UNL     1      10.002  -1.685  23.243  0.00  0.00    +0.216 C 
ATOM      4  O   UNL     1      10.771  -1.929  22.329  0.00  0.00    -0.276 OA
ATOM      5  C   UNL     1       9.176  -2.704  23.988  0.00  0.00    +0.097 C 
ATOM      6  C   UNL     1       8.721  -1.942  25.229  0.00  0.00    +0.028 C 
ATOM      7  C   UNL     1       8.688  -0.493  24.783  0.00  0.00    +0.109 C 
ENDBRANCH   1   2
BRANCH   1   8
ATOM      8  C   UNL     1       9.898   1.311  22.037  0.00  0.00    +0.198 C 
ATOM      9  N   UNL     1       9.118   0.688  21.223  0.00  0.00    -0.270 NA
ATOM     10  H   UNL     1       8.948   1.225  20.374  0.00  0.00    +0.190 HD
BRANCH   8  11
ATOM     11  O   UNL     1      10.419   2.496  21.689  0.00  0.00    -0.495 OA
ATOM     12  H   UNL     1       9.938   3.236  22.086  0.00  0.00    +0.293 HD
ENDBRANCH   8  11
ENDBRANCH   1   8
TORSDOF 3
ENDMDL
MODEL 5
REMARK VINA RESULT:      -4.2      3.190      4.211
REMARK  Name = 
REMARK  3 active torsions:
REMARK  status: ('A' for Active; 'I' for Inactive)
REMARK    1  A    between atoms: O_1  and  C_2
REMARK    2  A    between atoms: C_2  and  C_4
REMARK    3  A    between atoms: C_4  and  N_5
REMARK                            x       y       z     vdW  Elec       q    Type
REMARK                         _______ _______ _______ _____ _____    ______ ____
ROOT
ATOM      1  C   UNL     1       6.488  -4.418  25.641  0.00  0.00    +0.202 C 
ENDROOT
BRANCH   1   2
ATOM      2  N   UNL     1       6.568  -4.841  24.254  0.00  0.00    -0.293 N 
ATOM      3  C   UNL     1       7.735  -5.237  23.628  0.00  0.00    +0.216 C 
ATOM      4  O   UNL     1       8.864  -5.173  24.082  0.00  0.00    -0.276 OA
ATOM      5  C   UNL     1       7.371  -5.728  22.249  0.00  0.00    +0.097 C 
ATOM      6  C   UNL     1       5.866  -5.957  22.348  0.00  0.00    +0.028 C 
ATOM      7  C   UNL     1       5.410  -4.976  23.410  0.00  0.00    +0.109 C 
ENDBRANCH   1   2
BRANCH   1   8
ATOM      8  C   UNL     1       6.841  -5.543  26.599  0.00  0.00    +0.198 C 
ATOM      9  N   UNL     1       7.957  -5.671  27.228  0.00  0.00    -0.270 NA
ATOM     10  H   UNL     1       7.975  -6.512  27.803  0.00  0.00    +0.190 HD
BRANCH   8  11
ATOM     11  O   UNL     1       5.900  -6.491  26.707  0.00  0.00    -0.495 OA
ATOM     12  H   UNL     1       6.265  -7.334  27.012  0.00  0.00    +0.293 HD
ENDBRANCH   8  11
ENDBRANCH   1   8
TORSDOF 3
ENDMDL
MODEL 6
REMARK VINA RESULT:      -4.2      2.072      2.534
REMARK  Name = 
REMARK  3 active torsions:
REMARK  status: ('A' for Active; 'I' for Inactive)
REMARK    1  A    between atoms: O_1  and  C_2
REMARK    2  A    between atoms: C_2  and  C_4
REMARK    3  A    between atoms: C_4  and  N_5
REMARK                            x       y       z     vdW  Elec       q    Type
REMARK                         _______ _______ _______ _____ _____    ______ ____
ROOT
ATOM      1  C   UNL     1       8.760  -3.620  25.814  0.00  0.00    +0.202 C 
ENDROOT
BRANCH   1   2
ATOM      2  N   UNL     1       8.732  -3.184  24.429  0.00  0.00    -0.293 N 
ATOM      3  C   UNL     1       7.652  -3.351  23.583  0.00  0.00    +0.216 C 
ATOM      4  O   UNL     1       6.635  -3.983  23.813  0.00  0.00    -0.276 OA
ATOM      5  C   UNL     1       7.970  -2.644  22.289  0.00  0.00    +0.097 C 
ATOM      6  C   UNL     1       9.129  -1.728  22.669  0.00  0.00    +0.028 C 
ATOM      7  C   UNL     1       9.807  -2.447  23.819  0.00  0.00    +0.109 C 
ENDBRANCH   1   2
BRANCH   1   8
ATOM      8  C   UNL     1       9.190  -5.071  25.944  0.00  0.00    +0.198 C 
ATOM      9  N   UNL     1      10.227  -5.599  25.393  0.00  0.00    -0.270 NA
ATOM     10  H   UNL     1      10.307  -6.593  25.607  0.00  0.00    +0.190 HD
BRANCH   8  11
ATOM     11  O   UNL     1       8.343  -5.837  26.646  0.00  0.00    -0.495 OA
ATOM     12  H   UNL     1       8.706  -6.717  26.819  0.00  0.00    +0.293 HD
ENDBRANCH   8  11
ENDBRANCH   1   8
TORSDOF 3
ENDMDL
MODEL 7
REMARK VINA RESULT:      -4.2      1.520      1.959
REMARK  Name = 
REMARK  3 active torsions:
REMARK  status: ('A' for Active; 'I' for Inactive)
REMARK    1  A    between atoms: O_1  and  C_2
REMARK    2  A    between atoms: C_2  and  C_4
REMARK    3  A    between atoms: C_4  and  N_5
REMARK                            x       y       z     vdW  Elec       q    Type
REMARK                         _______ _______ _______ _____ _____    ______ ____
ROOT
ATOM      1  C   UNL     1       8.522  -4.061  24.693  0.00  0.00    +0.202 C 
ENDROOT
BRANCH   1   2
ATOM      2  N   UNL     1       8.853  -2.650  24.619  0.00  0.00    -0.293 N 
ATOM      3  C   UNL     1       8.596  -1.737  25.624  0.00  0.00    +0.216 C 
ATOM      4  O   UNL     1       7.955  -1.933  26.643  0.00  0.00    -0.276 OA
ATOM      5  C   UNL     1       9.214  -0.422  25.218  0.00  0.00    +0.097 C 
ATOM      6  C   UNL     1      10.185  -0.821  24.112  0.00  0.00    +0.028 C 
ATOM      7  C   UNL     1       9.571  -2.072  23.514  0.00  0.00    +0.109 C 
ENDBRANCH   1   2
BRANCH   1   8
ATOM      8  C   UNL     1       9.435  -4.809  25.651  0.00  0.00    +0.198 C 
ATOM      9  N   UNL     1       9.284  -4.883  26.927  0.00  0.00    -0.270 NA
ATOM     10  H   UNL     1      10.028  -5.424  27.367  0.00  0.00    +0.190 HD
BRANCH   8  11
ATOM     11  O   UNL     1      10.509  -5.361  25.071  0.00  0.00    -0.495 OA
ATOM     12  H   UNL     1      10.586  -5.115  24.138  0.00  0.00    +0.293 HD
ENDBRANCH   8  11
ENDBRANCH   1   8
TORSDOF 3
ENDMDL
MODEL 8
REMARK VINA RESULT:      -4.2      2.537      3.758
REMARK  Name = 
REMARK  3 active torsions:
REMARK  status: ('A' for Active; 'I' for Inactive)
REMARK    1  A    between atoms: O_1  and  C_2
REMARK    2  A    between atoms: C_2  and  C_4
REMARK    3  A    between atoms: C_4  and  N_5
REMARK                            x       y       z     vdW  Elec       q    Type
REMARK                         _______ _______ _______ _____ _____    ______ ____
ROOT
ATOM      1  C   UNL     1       7.874  -4.115  24.925  0.00  0.00    +0.202 C 
ENDROOT
BRANCH   1   2
ATOM      2  N   UNL     1       7.100  -4.511  23.762  0.00  0.00    -0.293 N 
ATOM      3  C   UNL     1       7.213  -3.921  22.517  0.00  0.00    +0.216 C 
ATOM      4  O   UNL     1       7.858  -2.926  22.235  0.00  0.00    -0.276 OA
ATOM      5  C   UNL     1       6.350  -4.706  21.559  0.00  0.00    +0.097 C 
ATOM      6  C   UNL     1       6.104  -6.013  22.305  0.00  0.00    +0.028 C 
ATOM      7  C   UNL     1       6.193  -5.628  23.769  0.00  0.00    +0.109 C 
ENDBRANCH   1   2
BRANCH   1   8
ATOM      8  C   UNL     1       9.326  -4.551  24.816  0.00  0.00    +0.198 C 
ATOM      9  N   UNL     1       9.817  -5.649  25.274  0.00  0.00    -0.270 NA
ATOM     10  H   UNL     1      10.818  -5.720  25.099  0.00  0.00    +0.190 HD
BRANCH   8  11
ATOM     11  O   UNL     1      10.132  -3.644  24.246  0.00  0.00    -0.495 OA
ATOM     12  H   UNL     1       9.721  -3.224  23.477  0.00  0.00    +0.293 HD
ENDBRANCH   8  11
ENDBRANCH   1   8
TORSDOF 3
ENDMDL
MODEL 9
REMARK VINA RESULT:      -4.1      2.659      3.834
REMARK  Name = 
REMARK  3 active torsions:
REMARK  status: ('A' for Active; 'I' for Inactive)
REMARK    1  A    between atoms: O_1  and  C_2
REMARK    2  A    between atoms: C_2  and  C_4
REMARK    3  A    between atoms: C_4  and  N_5
REMARK                            x       y       z     vdW  Elec       q    Type
REMARK                         _______ _______ _______ _____ _____    ______ ____
ROOT
ATOM      1  C   UNL     1       9.051  -0.949  23.755  0.00  0.00    +0.202 C 
ENDROOT
BRANCH   1   2
ATOM      2  N   UNL     1       9.707   0.295  23.396  0.00  0.00    -0.293 N 
ATOM      3  C   UNL     1       9.639   0.877  22.145  0.00  0.00    +0.216 C 
ATOM      4  O   UNL     1       9.145   0.394  21.140  0.00  0.00    -0.276 OA
ATOM      5  C   UNL     1      10.331   2.216  22.224  0.00  0.00    +0.097 C 
ATOM      6  C   UNL     1      10.400   2.483  23.724  0.00  0.00    +0.028 C 
ATOM      7  C   UNL     1      10.429   1.100  24.346  0.00  0.00    +0.109 C 
ENDBRANCH   1   2
BRANCH   1   8
ATOM      8  C   UNL     1       9.915  -2.158  23.440  0.00  0.00    +0.198 C 
ATOM      9  N   UNL     1       9.940  -3.258  24.109  0.00  0.00    -0.270 NA
ATOM     10  H   UNL     1      10.609  -3.923  23.722  0.00  0.00    +0.190 HD
BRANCH   8  11
ATOM     11  O   UNL     1      10.754  -1.983  22.409  0.00  0.00    -0.495 OA
ATOM     12  H   UNL     1      10.396  -2.340  21.584  0.00  0.00    +0.293 HD
ENDBRANCH   8  11
ENDBRANCH   1   8
TORSDOF 3
ENDMDL
