MODEL 1
REMARK VINA RESULT:      -6.2      0.000      0.000
REMARK  Name = 
REMARK  5 active torsions:
REMARK  status: ('A' for Active; 'I' for Inactive)
REMARK    1  A    between atoms: O_1  and  C_2
REMARK    2  A    between atoms: C_2  and  C_4
REMARK    3  A    between atoms: C_4  and  C_5
REMARK    4  A    between atoms: C_5  and  O_6
REMARK    5  A    between atoms: O_6  and  N_7
REMARK                            x       y       z     vdW  Elec       q    Type
REMARK                         _______ _______ _______ _____ _____    ______ ____
ROOT
ATOM      1  N   UNL     1       8.658  -3.598  25.427  0.00  0.00    -0.084 NA
ATOM      2  C   UNL     1       7.677  -4.393  25.140  0.00  0.00    +0.118 C 
ATOM      3  C   UNL     1       7.117  -4.804  23.825  0.00  0.00    +0.012 A 
ATOM      4  C   UNL     1       7.477  -4.463  22.529  0.00  0.00    +0.011 A 
ATOM      5  C   UNL     1       6.727  -4.994  21.479  0.00  0.00    +0.001 A 
ATOM      6  C   UNL     1       5.643  -5.849  21.733  0.00  0.00    +0.001 A 
ATOM      7  C   UNL     1       5.289  -6.188  23.042  0.00  0.00    +0.009 A 
ATOM      8  C   UNL     1       6.029  -5.659  24.087  0.00  0.00    -0.008 A 
ATOM      9  C   UNL     1       5.878  -5.827  25.516  0.00  0.00    -0.008 A 
ATOM     10  C   UNL     1       4.971  -6.575  26.247  0.00  0.00    +0.009 A 
ATOM     11  C   UNL     1       5.063  -6.556  27.645  0.00  0.00    +0.001 A 
ATOM     12  C   UNL     1       6.053  -5.792  28.292  0.00  0.00    +0.001 A 
ATOM     13  C   UNL     1       6.968  -5.032  27.556  0.00  0.00    +0.011 A 
ATOM     14  C   UNL     1       6.858  -5.070  26.176  0.00  0.00    +0.012 A 
ENDROOT
BRANCH   1  15
ATOM     15  O   UNL     1       9.320  -3.121  24.294  0.00  0.00    -0.393 OA
BRANCH  15  16
ATOM     16  C   UNL     1       9.436  -1.698  24.373  0.00  0.00    +0.274 C 
BRANCH  16  17
ATOM     17  C   UNL     1       8.631  -1.087  23.244  0.00  0.00    +0.164 C 
BRANCH  17  18
ATOM     18  C   UNL     1       9.460  -0.877  22.004  0.00  0.00    +0.308 C 
ATOM     19  O   UNL     1       9.298   0.067  21.241  0.00  0.00    -0.251 OA
BRANCH  18  20
ATOM     20  O   UNL     1      10.462  -1.762  21.850  0.00  0.00    -0.481 OA
ATOM     21  H   UNL     1      11.257  -1.514  22.369  0.00  0.00    +0.295 HD
ENDBRANCH  18  20
ENDBRANCH  17  18
ENDBRANCH  16  17
ENDBRANCH  15  16
ENDBRANCH   1  15
TORSDOF 5
ENDMDL
MODEL 2
REMARK VINA RESULT:      -6.0      2.902      5.706
REMARK  Name = 
REMARK  5 active torsions:
REMARK  status: ('A' for Active; 'I' for Inactive)
REMARK    1  A    between atoms: O_1  and  C_2
REMARK    2  A    between atoms: C_2  and  C_4
REMARK    3  A    between atoms: C_4  and  C_5
REMARK    4  A    between atoms: C_5  and  O_6
REMARK    5  A    between atoms: O_6  and  N_7
REMARK                            x       y       z     vdW  Elec       q    Type
REMARK                         _______ _______ _______ _____ _____    ______ ____
ROOT
ATOM      1  N   UNL     1       6.855  -3.662  26.561  0.00  0.00    -0.084 NA
ATOM      2  C   UNL     1       7.143  -3.645  25.297  0.00  0.00    +0.118 C 
ATOM      3  C   UNL     1       6.654  -4.500  24.182  0.00  0.00    +0.012 A 
ATOM      4  C   UNL     1       5.755  -5.556  24.165  0.00  0.00    +0.011 A 
ATOM      5  C   UNL     1       5.520  -6.195  22.947  0.00  0.00    +0.001 A 
ATOM      6  C   UNL     1       6.175  -5.776  21.778  0.00  0.00    +0.001 A 
ATOM      7  C   UNL     1       7.079  -4.711  21.807  0.00  0.00    +0.009 A 
ATOM      8  C   UNL     1       7.318  -4.075  23.015  0.00  0.00    -0.008 A 
ATOM      9  C   UNL     1       8.199  -2.973  23.332  0.00  0.00    -0.008 A 
ATOM     10  C   UNL     1       9.037  -2.224  22.522  0.00  0.00    +0.009 A 
ATOM     11  C   UNL     1       9.784  -1.194  23.107  0.00  0.00    +0.001 A 
ATOM     12  C   UNL     1       9.688  -0.927  24.486  0.00  0.00    +0.001 A 
ATOM     13  C   UNL     1       8.846  -1.685  25.307  0.00  0.00    +0.011 A 
ATOM     14  C   UNL     1       8.116  -2.695  24.704  0.00  0.00    +0.012 A 
ENDROOT
BRANCH   1  15
ATOM     15  O   UNL     1       5.874  -4.601  26.882  0.00  0.00    -0.393 OA
BRANCH  15  16
ATOM     16  C   UNL     1       5.190  -4.190  28.069  0.00  0.00    +0.274 C 
BRANCH  16  17
ATOM     17  C   UNL     1       5.549  -5.149  29.186  0.00  0.00    +0.164 C 
BRANCH  17  18
ATOM     18  C   UNL     1       6.160  -6.424  28.667  0.00  0.00    +0.308 C 
ATOM     19  O   UNL     1       5.536  -7.472  28.561  0.00  0.00    -0.251 OA
BRANCH  18  20
ATOM     20  O   UNL     1       7.429  -6.296  28.236  0.00  0.00    -0.481 OA
ATOM     21  H   UNL     1       7.823  -7.159  27.987  0.00  0.00    +0.295 HD
ENDBRANCH  18  20
ENDBRANCH  17  18
ENDBRANCH  16  17
ENDBRANCH  15  16
ENDBRANCH   1  15
TORSDOF 5
ENDMDL
MODEL 3
REMARK VINA RESULT:      -5.9      3.184      6.583
REMARK  Name = 
REMARK  5 active torsions:
REMARK  status: ('A' for Active; 'I' for Inactive)
REMARK    1  A    between atoms: O_1  and  C_2
REMARK    2  A    between atoms: C_2  and  C_4
REMARK    3  A    between atoms: C_4  and  C_5
REMARK    4  A    between atoms: C_5  and  O_6
REMARK    5  A    between atoms: O_6  and  N_7
REMARK                            x       y       z     vdW  Elec       q    Type
REMARK                         _______ _______ _______ _____ _____    ______ ____
ROOT
ATOM      1  N   UNL     1       7.568  -2.631  22.135  0.00  0.00    -0.084 NA
ATOM      2  C   UNL     1       7.453  -1.577  22.880  0.00  0.00    +0.118 C 
ATOM      3  C   UNL     1       6.554  -1.299  24.032  0.00  0.00    +0.012 A 
ATOM      4  C   UNL     1       5.583  -2.078  24.644  0.00  0.00    +0.011 A 
ATOM      5  C   UNL     1       4.867  -1.520  25.704  0.00  0.00    +0.001 A 
ATOM      6  C   UNL     1       5.127  -0.209  26.133  0.00  0.00    +0.001 A 
ATOM      7  C   UNL     1       6.108   0.568  25.510  0.00  0.00    +0.009 A 
ATOM      8  C   UNL     1       6.819   0.017  24.455  0.00  0.00    -0.008 A 
ATOM      9  C   UNL     1       7.862   0.590  23.633  0.00  0.00    -0.008 A 
ATOM     10  C   UNL     1       8.463   1.837  23.674  0.00  0.00    +0.009 A 
ATOM     11  C   UNL     1       9.469   2.124  22.743  0.00  0.00    +0.001 A 
ATOM     12  C   UNL     1       9.859   1.169  21.785  0.00  0.00    +0.001 A 
ATOM     13  C   UNL     1       9.250  -0.090  21.738  0.00  0.00    +0.011 A 
ATOM     14  C   UNL     1       8.260  -0.350  22.671  0.00  0.00    +0.012 A 
ENDROOT
BRANCH   1  15
ATOM     15  O   UNL     1       6.749  -3.682  22.551  0.00  0.00    -0.393 OA
BRANCH  15  16
ATOM     16  C   UNL     1       7.560  -4.774  22.991  0.00  0.00    +0.274 C 
BRANCH  16  17
ATOM     17  C   UNL     1       7.289  -5.965  22.095  0.00  0.00    +0.164 C 
BRANCH  17  18
ATOM     18  C   UNL     1       6.014  -5.806  21.308  0.00  0.00    +0.308 C 
ATOM     19  O   UNL     1       5.992  -5.608  20.100  0.00  0.00    -0.251 OA
BRANCH  18  20
ATOM     20  O   UNL     1       4.892  -5.996  22.026  0.00  0.00    -0.481 OA
ATOM     21  H   UNL     1       4.737  -6.945  22.226  0.00  0.00    +0.295 HD
ENDBRANCH  18  20
ENDBRANCH  17  18
ENDBRANCH  16  17
ENDBRANCH  15  16
ENDBRANCH   1  15
TORSDOF 5
ENDMDL
MODEL 4
REMARK VINA RESULT:      -5.7      2.507      4.197
REMARK  Name = 
REMARK  5 active torsions:
REMARK  status: ('A' for Active; 'I' for Inactive)
REMARK    1  A    between atoms: O_1  and  C_2
REMARK    2  A    between atoms: C_2  and  C_4
REMARK    3  A    between atoms: C_4  and  C_5
REMARK    4  A    between atoms: C_5  and  O_6
REMARK    5  A    between atoms: O_6  and  N_7
REMARK                            x       y       z     vdW  Elec       q    Type
REMARK                         _______ _______ _______ _____ _____    ______ ____
ROOT
ATOM      1  N   UNL     1       8.322  -1.966  21.999  0.00  0.00    -0.084 NA
ATOM      2  C   UNL     1       7.367  -2.359  22.781  0.00  0.00    +0.118 C 
ATOM      3  C   UNL     1       6.624  -1.631  23.844  0.00  0.00    +0.012 A 
ATOM      4  C   UNL     1       6.732  -0.329  24.307  0.00  0.00    +0.011 A 
ATOM      5  C   UNL     1       5.903   0.063  25.360  0.00  0.00    +0.001 A 
ATOM      6  C   UNL     1       4.989  -0.840  25.926  0.00  0.00    +0.001 A 
ATOM      7  C   UNL     1       4.888  -2.150  25.452  0.00  0.00    +0.009 A 
ATOM      8  C   UNL     1       5.712  -2.543  24.409  0.00  0.00    -0.008 A 
ATOM      9  C   UNL     1       5.827  -3.821  23.742  0.00  0.00    -0.008 A 
ATOM     10  C   UNL     1       5.139  -5.007  23.935  0.00  0.00    +0.009 A 
ATOM     11  C   UNL     1       5.460  -6.105  23.125  0.00  0.00    +0.001 A 
ATOM     12  C   UNL     1       6.460  -6.006  22.140  0.00  0.00    +0.001 A 
ATOM     13  C   UNL     1       7.160  -4.810  21.946  0.00  0.00    +0.011 A 
ATOM     14  C   UNL     1       6.823  -3.740  22.756  0.00  0.00    +0.012 A 
ENDROOT
BRANCH   1  15
ATOM     15  O   UNL     1       8.633  -0.615  22.159  0.00  0.00    -0.393 OA
BRANCH  15  16
ATOM     16  C   UNL     1      10.038  -0.471  22.387  0.00  0.00    +0.274 C 
BRANCH  16  17
ATOM     17  C   UNL     1      10.252   0.661  23.371  0.00  0.00    +0.164 C 
BRANCH  17  18
ATOM     18  C   UNL     1      10.209   2.010  22.703  0.00  0.00    +0.308 C 
ATOM     19  O   UNL     1      10.592   3.039  23.245  0.00  0.00    -0.251 OA
BRANCH  18  20
ATOM     20  O   UNL     1       9.802   1.982  21.420  0.00  0.00    -0.481 OA
ATOM     21  H   UNL     1       9.286   2.781  21.179  0.00  0.00    +0.295 HD
ENDBRANCH  18  20
ENDBRANCH  17  18
ENDBRANCH  16  17
ENDBRANCH  15  16
ENDBRANCH   1  15
TORSDOF 5
ENDMDL
MODEL 5
REMARK VINA RESULT:      -5.7      2.766      6.073
REMARK  Name = 
REMARK  5 active torsions:
REMARK  status: ('A' for Active; 'I' for Inactive)
REMARK    1  A    between atoms: O_1  and  C_2
REMARK    2  A    between atoms: C_2  and  C_4
REMARK    3  A    between atoms: C_4  and  C_5
REMARK    4  A    between atoms: C_5  and  O_6
REMARK    5  A    between atoms: O_6  and  N_7
REMARK                            x       y       z     vdW  Elec       q    Type
REMARK                         _______ _______ _______ _____ _____    ______ ____
ROOT
ATOM      1  N   UNL     1       8.306  -2.015  26.626  0.00  0.00    -0.084 NA
ATOM      2  C   UNL     1       8.428  -1.011  25.816  0.00  0.00    +0.118 C 
ATOM      3  C   UNL     1       9.048  -0.926  24.466  0.00  0.00    +0.012 A 
ATOM      4  C   UNL     1       9.671  -1.887  23.683  0.00  0.00    +0.011 A 
ATOM      5  C   UNL     1      10.192  -1.490  22.451  0.00  0.00    +0.001 A 
ATOM      6  C   UNL     1      10.085  -0.157  22.023  0.00  0.00    +0.001 A 
ATOM      7  C   UNL     1       9.455   0.803  22.819  0.00  0.00    +0.009 A 
ATOM      8  C   UNL     1       8.939   0.413  24.045  0.00  0.00    -0.008 A 
ATOM      9  C   UNL     1       8.261   1.187  25.061  0.00  0.00    -0.008 A 
ATOM     10  C   UNL     1       7.914   2.528  25.095  0.00  0.00    +0.009 A 
ATOM     11  C   UNL     1       7.244   3.016  26.224  0.00  0.00    +0.001 A 
ATOM     12  C   UNL     1       6.933   2.165  27.302  0.00  0.00    +0.001 A 
ATOM     13  C   UNL     1       7.286   0.811  27.272  0.00  0.00    +0.011 A 
ATOM     14  C   UNL     1       7.945   0.353  26.144  0.00  0.00    +0.012 A 
ENDROOT
BRANCH   1  15
ATOM     15  O   UNL     1       8.783  -3.210  26.086  0.00  0.00    -0.393 OA
BRANCH  15  16
ATOM     16  C   UNL     1       8.102  -4.313  26.690  0.00  0.00    +0.274 C 
BRANCH  16  17
ATOM     17  C   UNL     1       7.566  -5.207  25.591  0.00  0.00    +0.164 C 
BRANCH  17  18
ATOM     18  C   UNL     1       8.528  -5.332  24.439  0.00  0.00    +0.308 C 
ATOM     19  O   UNL     1       8.210  -5.131  23.274  0.00  0.00    -0.251 OA
BRANCH  18  20
ATOM     20  O   UNL     1       9.798  -5.591  24.803  0.00  0.00    -0.481 OA
ATOM     21  H   UNL     1       9.855  -5.952  25.714  0.00  0.00    +0.295 HD
ENDBRANCH  18  20
ENDBRANCH  17  18
ENDBRANCH  16  17
ENDBRANCH  15  16
ENDBRANCH   1  15
TORSDOF 5
ENDMDL
MODEL 6
REMARK VINA RESULT:      -5.6      5.090      8.825
REMARK  Name = 
REMARK  5 active torsions:
REMARK  status: ('A' for Active; 'I' for Inactive)
REMARK    1  A    between atoms: O_1  and  C_2
REMARK    2  A    between atoms: C_2  and  C_4
REMARK    3  A    between atoms: C_4  and  C_5
REMARK    4  A    between atoms: C_5  and  O_6
REMARK    5  A    between atoms: O_6  and  N_7
REMARK                            x       y       z     vdW  Elec       q    Type
REMARK                         _______ _______ _______ _____ _____    ______ ____
ROOT
ATOM      1  N   UNL     1       8.799   1.432  23.659  0.00  0.00    -0.084 NA
ATOM      2  C   UNL     1       8.874   2.703  23.897  0.00  0.00    +0.118 C 
ATOM      3  C   UNL     1      10.007   3.653  23.733  0.00  0.00    +0.012 A 
ATOM      4  C   UNL     1      11.304   3.463  23.281  0.00  0.00    +0.011 A 
ATOM      5  C   UNL     1      12.163   4.562  23.272  0.00  0.00    +0.001 A 
ATOM      6  C   UNL     1      11.721   5.821  23.707  0.00  0.00    +0.001 A 
ATOM      7  C   UNL     1      10.412   6.003  24.161  0.00  0.00    +0.009 A 
ATOM      8  C   UNL     1       9.556   4.912  24.174  0.00  0.00    -0.008 A 
ATOM      9  C   UNL     1       8.178   4.813  24.599  0.00  0.00    -0.008 A 
ATOM     10  C   UNL     1       7.312   5.775  25.092  0.00  0.00    +0.009 A 
ATOM     11  C   UNL     1       6.005   5.391  25.423  0.00  0.00    +0.001 A 
ATOM     12  C   UNL     1       5.583   4.058  25.262  0.00  0.00    +0.001 A 
ATOM     13  C   UNL     1       6.457   3.083  24.768  0.00  0.00    +0.011 A 
ATOM     14  C   UNL     1       7.742   3.488  24.446  0.00  0.00    +0.012 A 
ENDROOT
BRANCH   1  15
ATOM     15  O   UNL     1       9.967   0.915  23.093  0.00  0.00    -0.393 OA
BRANCH  15  16
ATOM     16  C   UNL     1      10.498  -0.105  23.943  0.00  0.00    +0.274 C 
BRANCH  16  17
ATOM     17  C   UNL     1       9.563  -1.296  23.906  0.00  0.00    +0.164 C 
BRANCH  17  18
ATOM     18  C   UNL     1       9.354  -1.811  22.506  0.00  0.00    +0.308 C 
ATOM     19  O   UNL     1       8.312  -2.334  22.132  0.00  0.00    -0.251 OA
BRANCH  18  20
ATOM     20  O   UNL     1      10.376  -1.565  21.665  0.00  0.00    -0.481 OA
ATOM     21  H   UNL     1      11.149  -1.174  22.127  0.00  0.00    +0.295 HD
ENDBRANCH  18  20
ENDBRANCH  17  18
ENDBRANCH  16  17
ENDBRANCH  15  16
ENDBRANCH   1  15
TORSDOF 5
ENDMDL
MODEL 7
REMARK VINA RESULT:      -5.5      4.291      8.223
REMARK  Name = 
REMARK  5 active torsions:
REMARK  status: ('A' for Active; 'I' for Inactive)
REMARK    1  A    between atoms: O_1  and  C_2
REMARK    2  A    between atoms: C_2  and  C_4
REMARK    3  A    between atoms: C_4  and  C_5
REMARK    4  A    between atoms: C_5  and  O_6
REMARK    5  A    between atoms: O_6  and  N_7
REMARK                            x       y       z     vdW  Elec       q    Type
REMARK                         _______ _______ _______ _____ _____    ______ ____
ROOT
ATOM      1  N   UNL     1      10.739   0.810  23.522  0.00  0.00    -0.084 NA
ATOM      2  C   UNL     1       9.956   1.781  23.871  0.00  0.00    +0.118 C 
ATOM      3  C   UNL     1       8.561   1.763  24.386  0.00  0.00    +0.012 A 
ATOM      4  C   UNL     1       7.694   0.711  24.643  0.00  0.00    +0.011 A 
ATOM      5  C   UNL     1       6.411   1.016  25.099  0.00  0.00    +0.001 A 
ATOM      6  C   UNL     1       6.016   2.349  25.291  0.00  0.00    +0.001 A 
ATOM      7  C   UNL     1       6.897   3.402  25.030  0.00  0.00    +0.009 A 
ATOM      8  C   UNL     1       8.171   3.103  24.574  0.00  0.00    -0.008 A 
ATOM      9  C   UNL     1       9.264   3.980  24.216  0.00  0.00    -0.008 A 
ATOM     10  C   UNL     1       9.362   5.361  24.245  0.00  0.00    +0.009 A 
ATOM     11  C   UNL     1      10.565   5.955  23.841  0.00  0.00    +0.001 A 
ATOM     12  C   UNL     1      11.649   5.166  23.412  0.00  0.00    +0.001 A 
ATOM     13  C   UNL     1      11.551   3.771  23.377  0.00  0.00    +0.011 A 
ATOM     14  C   UNL     1      10.353   3.208  23.784  0.00  0.00    +0.012 A 
ENDROOT
BRANCH   1  15
ATOM     15  O   UNL     1      10.175  -0.448  23.741  0.00  0.00    -0.393 OA
BRANCH  15  16
ATOM     16  C   UNL     1      10.393  -1.276  22.596  0.00  0.00    +0.274 C 
BRANCH  16  17
ATOM     17  C   UNL     1       9.072  -1.461  21.878  0.00  0.00    +0.164 C 
BRANCH  17  18
ATOM     18  C   UNL     1       8.109  -2.305  22.670  0.00  0.00    +0.308 C 
ATOM     19  O   UNL     1       6.899  -2.302  22.478  0.00  0.00    -0.251 OA
BRANCH  18  20
ATOM     20  O   UNL     1       8.695  -3.142  23.547  0.00  0.00    -0.481 OA
ATOM     21  H   UNL     1       9.662  -3.218  23.396  0.00  0.00    +0.295 HD
ENDBRANCH  18  20
ENDBRANCH  17  18
ENDBRANCH  16  17
ENDBRANCH  15  16
ENDBRANCH   1  15
TORSDOF 5
ENDMDL
MODEL 8
REMARK VINA RESULT:      -5.4      3.116      5.433
REMARK  Name = 
REMARK  5 active torsions:
REMARK  status: ('A' for Active; 'I' for Inactive)
REMARK    1  A    between atoms: O_1  and  C_2
REMARK    2  A    between atoms: C_2  and  C_4
REMARK    3  A    between atoms: C_4  and  C_5
REMARK    4  A    between atoms: C_5  and  O_6
REMARK    5  A    between atoms: O_6  and  N_7
REMARK                            x       y       z     vdW  Elec       q    Type
REMARK                         _______ _______ _______ _____ _____    ______ ____
ROOT
ATOM      1  N   UNL     1       6.570  -3.304  24.178  0.00  0.00    -0.084 NA
ATOM      2  C   UNL     1       7.152  -2.234  24.620  0.00  0.00    +0.118 C 
ATOM      3  C   UNL     1       8.386  -1.542  24.160  0.00  0.00    +0.012 A 
ATOM      4  C   UNL     1       9.269  -1.833  23.131  0.00  0.00    +0.011 A 
ATOM      5  C   UNL     1      10.376  -1.000  22.962  0.00  0.00    +0.001 A 
ATOM      6  C   UNL     1      10.582   0.099  23.811  0.00  0.00    +0.001 A 
ATOM      7  C   UNL     1       9.686   0.384  24.845  0.00  0.00    +0.009 A 
ATOM      8  C   UNL     1       8.587  -0.443  25.018  0.00  0.00    -0.008 A 
ATOM      9  C   UNL     1       7.526  -0.392  25.998  0.00  0.00    -0.008 A 
ATOM     10  C   UNL     1       7.289   0.503  27.028  0.00  0.00    +0.009 A 
ATOM     11  C   UNL     1       6.159   0.310  27.834  0.00  0.00    +0.001 A 
ATOM     12  C   UNL     1       5.286  -0.770  27.604  0.00  0.00    +0.001 A 
ATOM     13  C   UNL     1       5.526  -1.679  26.568  0.00  0.00    +0.011 A 
ATOM     14  C   UNL     1       6.647  -1.464  25.784  0.00  0.00    +0.012 A 
ENDROOT
BRANCH   1  15
ATOM     15  O   UNL     1       7.189  -3.828  23.042  0.00  0.00    -0.393 OA
BRANCH  15  16
ATOM     16  C   UNL     1       7.574  -5.183  23.289  0.00  0.00    +0.274 C 
BRANCH  16  17
ATOM     17  C   UNL     1       7.304  -5.994  22.038  0.00  0.00    +0.164 C 
BRANCH  17  18
ATOM     18  C   UNL     1       6.065  -5.533  21.318  0.00  0.00    +0.308 C 
ATOM     19  O   UNL     1       5.964  -5.520  20.098  0.00  0.00    -0.251 OA
BRANCH  18  20
ATOM     20  O   UNL     1       5.034  -5.225  22.127  0.00  0.00    -0.481 OA
ATOM     21  H   UNL     1       4.399  -5.969  22.215  0.00  0.00    +0.295 HD
ENDBRANCH  18  20
ENDBRANCH  17  18
ENDBRANCH  16  17
ENDBRANCH  15  16
ENDBRANCH   1  15
TORSDOF 5
ENDMDL
MODEL 9
REMARK VINA RESULT:      -5.4      2.701      6.452
REMARK  Name = 
REMARK  5 active torsions:
REMARK  status: ('A' for Active; 'I' for Inactive)
REMARK    1  A    between atoms: O_1  and  C_2
REMARK    2  A    between atoms: C_2  and  C_4
REMARK    3  A    between atoms: C_4  and  C_5
REMARK    4  A    between atoms: C_5  and  O_6
REMARK    5  A    between atoms: O_6  and  N_7
REMARK                            x       y       z     vdW  Elec       q    Type
REMARK                         _______ _______ _______ _____ _____    ______ ____
ROOT
ATOM      1  N   UNL     1       7.748  -3.143  22.823  0.00  0.00    -0.084 NA
ATOM      2  C   UNL     1       7.477  -1.964  23.288  0.00  0.00    +0.118 C 
ATOM      3  C   UNL     1       6.526  -1.537  24.348  0.00  0.00    +0.012 A 
ATOM      4  C   UNL     1       5.656  -2.265  25.146  0.00  0.00    +0.011 A 
ATOM      5  C   UNL     1       4.850  -1.566  26.045  0.00  0.00    +0.001 A 
ATOM      6  C   UNL     1       4.924  -0.167  26.135  0.00  0.00    +0.001 A 
ATOM      7  C   UNL     1       5.803   0.558  25.328  0.00  0.00    +0.009 A 
ATOM      8  C   UNL     1       6.603  -0.133  24.431  0.00  0.00    -0.008 A 
ATOM      9  C   UNL     1       7.576   0.356  23.479  0.00  0.00    -0.008 A 
ATOM     10  C   UNL     1       8.004   1.645  23.205  0.00  0.00    +0.009 A 
ATOM     11  C   UNL     1       8.981   1.828  22.218  0.00  0.00    +0.001 A 
ATOM     12  C   UNL     1       9.515   0.729  21.519  0.00  0.00    +0.001 A 
ATOM     13  C   UNL     1       9.081  -0.573  21.791  0.00  0.00    +0.011 A 
ATOM     14  C   UNL     1       8.117  -0.728  22.773  0.00  0.00    +0.012 A 
ENDROOT
BRANCH   1  15
ATOM     15  O   UNL     1       7.069  -4.161  23.495  0.00  0.00    -0.393 OA
BRANCH  15  16
ATOM     16  C   UNL     1       7.916  -5.307  23.607  0.00  0.00    +0.274 C 
BRANCH  16  17
ATOM     17  C   UNL     1       8.776  -5.150  24.845  0.00  0.00    +0.164 C 
BRANCH  17  18
ATOM     18  C   UNL     1       7.956  -5.141  26.108  0.00  0.00    +0.308 C 
ATOM     19  O   UNL     1       8.242  -4.465  27.089  0.00  0.00    -0.251 OA
BRANCH  18  20
ATOM     20  O   UNL     1       6.824  -5.866  26.041  0.00  0.00    -0.481 OA
ATOM     21  H   UNL     1       6.610  -6.298  26.896  0.00  0.00    +0.295 HD
ENDBRANCH  18  20
ENDBRANCH  17  18
ENDBRANCH  16  17
ENDBRANCH  15  16
ENDBRANCH   1  15
TORSDOF 5
ENDMDL
