MODEL 1
REMARK VINA RESULT:      -7.0      0.000      0.000
REMARK  Name = 
REMARK  9 active torsions:
REMARK  status: ('A' for Active; 'I' for Inactive)
REMARK    1  A    between atoms: C_1  and  C_2
REMARK    2  A    between atoms: C_3  and  C_7
REMARK    3  A    between atoms: C_7  and  C_21
REMARK    4  A    between atoms: C_8  and  C_9
REMARK    5  A    between atoms: C_9  and  C_10
REMARK    6  A    between atoms: C_10  and  N_11
REMARK    7  A    between atoms: C_15  and  C_18
REMARK    8  A    between atoms: C_18  and  O_19
REMARK    9  A    between atoms: C_22  and  C_23
REMARK                            x       y       z     vdW  Elec       q    Type
REMARK                         _______ _______ _______ _____ _____    ______ ____
ROOT
ATOM      1  C   UNL     1       7.188  -4.761  24.960  0.00  0.00    -0.001 C 
ATOM      2  C   UNL     1       8.457  -4.460  25.331  0.00  0.00    -0.016 C 
ENDROOT
BRANCH   1   8
ATOM      3  C   UNL     1       7.362  -6.194  21.987  0.00  0.00    +0.045 C 
ATOM      4  C   UNL     1       6.747  -4.892  22.387  0.00  0.00    -0.036 A 
ATOM      5  C   UNL     1       6.051  -4.097  21.413  0.00  0.00    +0.011 A 
ATOM      6  C   UNL     1       5.507  -2.955  21.944  0.00  0.00    +0.046 A 
ATOM      7  S   UNL     1       5.825  -2.815  23.612  0.00  0.00    -0.096 S 
ATOM      8  C   UNL     1       6.705  -4.310  23.664  0.00  0.00    +0.023 A 
ENDBRANCH   1   8
BRANCH   1   9
ATOM      9  C   UNL     1       6.331  -5.470  25.914  0.00  0.00    +0.023 A 
ATOM     10  S   UNL     1       6.687  -5.305  27.615  0.00  0.00    -0.096 S 
ATOM     11  C   UNL     1       5.438  -6.352  28.088  0.00  0.00    +0.046 A 
ATOM     12  C   UNL     1       4.739  -6.827  27.012  0.00  0.00    +0.011 A 
ATOM     13  C   UNL     1       5.241  -6.344  25.751  0.00  0.00    -0.036 A 
ATOM     14  C   UNL     1       4.590  -6.818  24.485  0.00  0.00    +0.045 C 
ENDBRANCH   1   9
BRANCH   2  15
ATOM     15  C   UNL     1       9.448  -3.582  24.592  0.00  0.00    +0.043 C 
BRANCH  15  16
ATOM     16  C   UNL     1       9.260  -2.046  24.803  0.00  0.00    +0.088 C 
BRANCH  16  17
ATOM     17  N   UNL     1      10.195  -1.256  23.985  0.00  0.00    -0.301 NA
ATOM     18  C   UNL     1      10.517   0.094  24.465  0.00  0.00    +0.099 C 
ATOM     19  C   UNL     1      10.343   1.317  23.527  0.00  0.00    +0.112 C 
ATOM     20  C   UNL     1       9.960   1.023  22.075  0.00  0.00    +0.017 C 
ATOM     21  C   UNL     1       9.225  -0.296  21.924  0.00  0.00    +0.016 C 
ATOM     22  C   UNL     1      10.056  -1.409  22.546  0.00  0.00    +0.084 C 
BRANCH  19  23
ATOM     23  C   UNL     1       9.510   2.387  24.215  0.00  0.00    +0.309 C 
ATOM     24  O   UNL     1       9.523   3.559  23.858  0.00  0.00    -0.251 OA
BRANCH  23  25
ATOM     25  O   UNL     1       8.776   1.992  25.274  0.00  0.00    -0.480 OA
ATOM     26  H   UNL     1       8.269   1.170  25.157  0.00  0.00    +0.295 HD
ENDBRANCH  23  25
ENDBRANCH  19  23
ENDBRANCH  16  17
ENDBRANCH  15  16
ENDBRANCH   2  15
TORSDOF 7
ENDMDL
MODEL 2
REMARK VINA RESULT:      -6.7      2.314      3.664
REMARK  Name = 
REMARK  9 active torsions:
REMARK  status: ('A' for Active; 'I' for Inactive)
REMARK    1  A    between atoms: C_1  and  C_2
REMARK    2  A    between atoms: C_3  and  C_7
REMARK    3  A    between atoms: C_7  and  C_21
REMARK    4  A    between atoms: C_8  and  C_9
REMARK    5  A    between atoms: C_9  and  C_10
REMARK    6  A    between atoms: C_10  and  N_11
REMARK    7  A    between atoms: C_15  and  C_18
REMARK    8  A    between atoms: C_18  and  O_19
REMARK    9  A    between atoms: C_22  and  C_23
REMARK                            x       y       z     vdW  Elec       q    Type
REMARK                         _______ _______ _______ _____ _____    ______ ____
ROOT
ATOM      1  C   UNL     1       5.424  -3.501  24.830  0.00  0.00    -0.001 C 
ATOM      2  C   UNL     1       5.031  -2.237  25.124  0.00  0.00    -0.016 C 
ENDROOT
BRANCH   1   8
ATOM      3  C   UNL     1       8.155  -3.006  23.036  0.00  0.00    +0.045 C 
ATOM      4  C   UNL     1       7.988  -3.686  24.356  0.00  0.00    -0.036 A 
ATOM      5  C   UNL     1       9.138  -4.183  25.060  0.00  0.00    +0.011 A 
ATOM      6  C   UNL     1       8.824  -4.740  26.273  0.00  0.00    +0.046 A 
ATOM      7  S   UNL     1       7.151  -4.682  26.585  0.00  0.00    -0.096 S 
ATOM      8  C   UNL     1       6.803  -3.888  25.082  0.00  0.00    +0.023 A 
ENDBRANCH   1   8
BRANCH   1   9
ATOM      9  C   UNL     1       4.457  -4.405  24.202  0.00  0.00    +0.023 A 
ATOM     10  S   UNL     1       2.811  -4.374  24.782  0.00  0.00    -0.096 S 
ATOM     11  C   UNL     1       2.304  -5.609  23.734  0.00  0.00    +0.046 A 
ATOM     12  C   UNL     1       3.327  -6.052  22.940  0.00  0.00    +0.011 A 
ATOM     13  C   UNL     1       4.576  -5.383  23.199  0.00  0.00    -0.036 A 
ATOM     14  C   UNL     1       5.793  -5.799  22.424  0.00  0.00    +0.045 C 
ENDBRANCH   1   9
BRANCH   2  15
ATOM     15  C   UNL     1       5.902  -1.089  25.598  0.00  0.00    +0.043 C 
BRANCH  15  16
ATOM     16  C   UNL     1       6.321  -0.073  24.489  0.00  0.00    +0.088 C 
BRANCH  16  17
ATOM     17  N   UNL     1       7.449   0.774  24.912  0.00  0.00    -0.301 NA
ATOM     18  C   UNL     1       8.098   1.581  23.871  0.00  0.00    +0.099 C 
ATOM     19  C   UNL     1       9.632   1.497  23.661  0.00  0.00    +0.112 C 
ATOM     20  C   UNL     1      10.419   0.652  24.666  0.00  0.00    +0.017 C 
ATOM     21  C   UNL     1       9.570  -0.432  25.303  0.00  0.00    +0.016 C 
ATOM     22  C   UNL     1       8.327   0.196  25.916  0.00  0.00    +0.084 C 
BRANCH  19  23
ATOM     23  C   UNL     1       9.944   1.225  22.199  0.00  0.00    +0.309 C 
ATOM     24  O   UNL     1       9.989   0.090  21.737  0.00  0.00    -0.251 OA
BRANCH  23  25
ATOM     25  O   UNL     1      10.213   2.297  21.429  0.00  0.00    -0.480 OA
ATOM     26  H   UNL     1      10.716   2.120  20.615  0.00  0.00    +0.295 HD
ENDBRANCH  23  25
ENDBRANCH  19  23
ENDBRANCH  16  17
ENDBRANCH  15  16
ENDBRANCH   2  15
TORSDOF 7
ENDMDL
MODEL 3
REMARK VINA RESULT:      -6.7      3.493      7.045
REMARK  Name = 
REMARK  9 active torsions:
REMARK  status: ('A' for Active; 'I' for Inactive)
REMARK    1  A    between atoms: C_1  and  C_2
REMARK    2  A    between atoms: C_3  and  C_7
REMARK    3  A    between atoms: C_7  and  C_21
REMARK    4  A    between atoms: C_8  and  C_9
REMARK    5  A    between atoms: C_9  and  C_10
REMARK    6  A    between atoms: C_10  and  N_11
REMARK    7  A    between atoms: C_15  and  C_18
REMARK    8  A    between atoms: C_18  and  O_19
REMARK    9  A    between atoms: C_22  and  C_23
REMARK                            x       y       z     vdW  Elec       q    Type
REMARK                         _______ _______ _______ _____ _____    ______ ____
ROOT
ATOM      1  C   UNL     1       7.306  -1.850  23.658  0.00  0.00    -0.001 C 
ATOM      2  C   UNL     1       6.712  -1.595  24.850  0.00  0.00    -0.016 C 
ENDROOT
BRANCH   1   8
ATOM      3  C   UNL     1       8.921  -4.611  24.488  0.00  0.00    +0.045 C 
ATOM      4  C   UNL     1       7.885  -4.389  23.434  0.00  0.00    -0.036 A 
ATOM      5  C   UNL     1       7.410  -5.494  22.648  0.00  0.00    +0.011 A 
ATOM      6  C   UNL     1       6.432  -5.136  21.756  0.00  0.00    +0.046 A 
ATOM      7  S   UNL     1       6.071  -3.473  21.842  0.00  0.00    -0.096 S 
ATOM      8  C   UNL     1       7.229  -3.192  23.103  0.00  0.00    +0.023 A 
ENDBRANCH   1   8
BRANCH   1   9
ATOM      9  C   UNL     1       8.062  -0.774  23.012  0.00  0.00    +0.023 A 
ATOM     10  S   UNL     1       7.215   0.699  22.613  0.00  0.00    -0.096 S 
ATOM     11  C   UNL     1       8.576   1.417  21.899  0.00  0.00    +0.046 A 
ATOM     12  C   UNL     1       9.669   0.596  21.952  0.00  0.00    +0.011 A 
ATOM     13  C   UNL     1       9.395  -0.673  22.576  0.00  0.00    -0.036 A 
ATOM     14  C   UNL     1      10.499  -1.687  22.665  0.00  0.00    +0.045 C 
ENDBRANCH   1   9
BRANCH   2  15
ATOM     15  C   UNL     1       6.044  -2.593  25.777  0.00  0.00    +0.043 C 
BRANCH  15  16
ATOM     16  C   UNL     1       4.486  -2.648  25.680  0.00  0.00    +0.088 C 
BRANCH  16  17
ATOM     17  N   UNL     1       3.947  -3.929  26.165  0.00  0.00    -0.301 NA
ATOM     18  C   UNL     1       4.449  -4.412  27.458  0.00  0.00    +0.099 C 
ATOM     19  C   UNL     1       5.040  -5.841  27.581  0.00  0.00    +0.112 C 
ATOM     20  C   UNL     1       4.943  -6.735  26.342  0.00  0.00    +0.017 C 
ATOM     21  C   UNL     1       4.865  -5.937  25.054  0.00  0.00    +0.016 C 
ATOM     22  C   UNL     1       3.718  -4.942  25.147  0.00  0.00    +0.084 C 
BRANCH  19  23
ATOM     23  C   UNL     1       6.411  -5.783  28.234  0.00  0.00    +0.309 C 
ATOM     24  O   UNL     1       7.447  -5.726  27.582  0.00  0.00    -0.251 OA
BRANCH  23  25
ATOM     25  O   UNL     1       6.442  -5.839  29.580  0.00  0.00    -0.480 OA
ATOM     26  H   UNL     1       6.529  -4.985  30.039  0.00  0.00    +0.295 HD
ENDBRANCH  23  25
ENDBRANCH  19  23
ENDBRANCH  16  17
ENDBRANCH  15  16
ENDBRANCH   2  15
TORSDOF 7
ENDMDL
MODEL 4
REMARK VINA RESULT:      -6.6      3.947      8.264
REMARK  Name = 
REMARK  9 active torsions:
REMARK  status: ('A' for Active; 'I' for Inactive)
REMARK    1  A    between atoms: C_1  and  C_2
REMARK    2  A    between atoms: C_3  and  C_7
REMARK    3  A    between atoms: C_7  and  C_21
REMARK    4  A    between atoms: C_8  and  C_9
REMARK    5  A    between atoms: C_9  and  C_10
REMARK    6  A    between atoms: C_10  and  N_11
REMARK    7  A    between atoms: C_15  and  C_18
REMARK    8  A    between atoms: C_18  and  O_19
REMARK    9  A    between atoms: C_22  and  C_23
REMARK                            x       y       z     vdW  Elec       q    Type
REMARK                         _______ _______ _______ _____ _____    ______ ____
ROOT
ATOM      1  C   UNL     1       9.591   2.739  23.734  0.00  0.00    -0.001 C 
ATOM      2  C   UNL     1      10.438   1.686  23.631  0.00  0.00    -0.016 C 
ENDROOT
BRANCH   1   8
ATOM      3  C   UNL     1       7.400   1.722  25.990  0.00  0.00    +0.045 C 
ATOM      4  C   UNL     1       7.196   2.090  24.556  0.00  0.00    -0.036 A 
ATOM      5  C   UNL     1       5.873   2.089  23.995  0.00  0.00    +0.011 A 
ATOM      6  C   UNL     1       5.847   2.491  22.684  0.00  0.00    +0.046 A 
ATOM      7  S   UNL     1       7.403   2.869  22.104  0.00  0.00    -0.096 S 
ATOM      8  C   UNL     1       8.159   2.506  23.623  0.00  0.00    +0.023 A 
ENDBRANCH   1   8
BRANCH   1   9
ATOM      9  C   UNL     1      10.159   4.081  23.883  0.00  0.00    +0.023 A 
ATOM     10  S   UNL     1      11.785   4.351  23.307  0.00  0.00    -0.096 S 
ATOM     11  C   UNL     1      11.812   5.970  23.813  0.00  0.00    +0.046 A 
ATOM     12  C   UNL     1      10.631   6.337  24.399  0.00  0.00    +0.011 A 
ATOM     13  C   UNL     1       9.671   5.266  24.461  0.00  0.00    -0.036 A 
ATOM     14  C   UNL     1       8.344   5.521  25.116  0.00  0.00    +0.045 C 
ENDBRANCH   1   9
BRANCH   2  15
ATOM     15  C   UNL     1      10.086   0.250  23.289  0.00  0.00    +0.043 C 
BRANCH  15  16
ATOM     16  C   UNL     1      10.001  -0.721  24.510  0.00  0.00    +0.088 C 
BRANCH  16  17
ATOM     17  N   UNL     1       8.680  -1.363  24.615  0.00  0.00    -0.301 NA
ATOM     18  C   UNL     1       8.560  -2.479  25.561  0.00  0.00    +0.099 C 
ATOM     19  C   UNL     1       7.997  -3.845  25.089  0.00  0.00    +0.112 C 
ATOM     20  C   UNL     1       7.463  -3.911  23.656  0.00  0.00    +0.017 C 
ATOM     21  C   UNL     1       8.104  -2.877  22.749  0.00  0.00    +0.016 C 
ATOM     22  C   UNL     1       7.945  -1.497  23.368  0.00  0.00    +0.084 C 
BRANCH  19  23
ATOM     23  C   UNL     1       8.949  -4.964  25.479  0.00  0.00    +0.309 C 
ATOM     24  O   UNL     1      10.059  -5.088  24.974  0.00  0.00    -0.251 OA
BRANCH  23  25
ATOM     25  O   UNL     1       8.498  -5.851  26.388  0.00  0.00    -0.480 OA
ATOM     26  H   UNL     1       7.545  -6.049  26.352  0.00  0.00    +0.295 HD
ENDBRANCH  23  25
ENDBRANCH  19  23
ENDBRANCH  16  17
ENDBRANCH  15  16
ENDBRANCH   2  15
TORSDOF 7
ENDMDL
MODEL 5
REMARK VINA RESULT:      -6.6      3.534      7.177
REMARK  Name = 
REMARK  9 active torsions:
REMARK  status: ('A' for Active; 'I' for Inactive)
REMARK    1  A    between atoms: C_1  and  C_2
REMARK    2  A    between atoms: C_3  and  C_7
REMARK    3  A    between atoms: C_7  and  C_21
REMARK    4  A    between atoms: C_8  and  C_9
REMARK    5  A    between atoms: C_9  and  C_10
REMARK    6  A    between atoms: C_10  and  N_11
REMARK    7  A    between atoms: C_15  and  C_18
REMARK    8  A    between atoms: C_18  and  O_19
REMARK    9  A    between atoms: C_22  and  C_23
REMARK                            x       y       z     vdW  Elec       q    Type
REMARK                         _______ _______ _______ _____ _____    ______ ____
ROOT
ATOM      1  C   UNL     1       7.087  -1.863  23.631  0.00  0.00    -0.001 C 
ATOM      2  C   UNL     1       6.429  -1.654  24.797  0.00  0.00    -0.016 C 
ENDROOT
BRANCH   1   8
ATOM      3  C   UNL     1       8.840  -4.562  24.382  0.00  0.00    +0.045 C 
ATOM      4  C   UNL     1       7.789  -4.364  23.338  0.00  0.00    -0.036 A 
ATOM      5  C   UNL     1       7.365  -5.471  22.526  0.00  0.00    +0.011 A 
ATOM      6  C   UNL     1       6.366  -5.139  21.647  0.00  0.00    +0.046 A 
ATOM      7  S   UNL     1       5.925  -3.498  21.777  0.00  0.00    -0.096 S 
ATOM      8  C   UNL     1       7.074  -3.193  23.041  0.00  0.00    +0.023 A 
ENDBRANCH   1   8
BRANCH   1   9
ATOM      9  C   UNL     1       7.845  -0.753  23.048  0.00  0.00    +0.023 A 
ATOM     10  S   UNL     1       7.008   0.752  22.765  0.00  0.00    -0.096 S 
ATOM     11  C   UNL     1       8.366   1.505  22.081  0.00  0.00    +0.046 A 
ATOM     12  C   UNL     1       9.451   0.671  22.060  0.00  0.00    +0.011 A 
ATOM     13  C   UNL     1       9.173  -0.635  22.599  0.00  0.00    -0.036 A 
ATOM     14  C   UNL     1      10.266  -1.664  22.601  0.00  0.00    +0.045 C 
ENDBRANCH   1   9
BRANCH   2  15
ATOM     15  C   UNL     1       5.743  -2.691  25.666  0.00  0.00    +0.043 C 
BRANCH  15  16
ATOM     16  C   UNL     1       6.555  -3.148  26.919  0.00  0.00    +0.088 C 
BRANCH  16  17
ATOM     17  N   UNL     1       6.179  -4.501  27.360  0.00  0.00    -0.301 NA
ATOM     18  C   UNL     1       6.122  -5.542  26.326  0.00  0.00    +0.099 C 
ATOM     19  C   UNL     1       4.843  -6.403  26.155  0.00  0.00    +0.112 C 
ATOM     20  C   UNL     1       3.733  -6.198  27.189  0.00  0.00    +0.017 C 
ATOM     21  C   UNL     1       3.771  -4.818  27.818  0.00  0.00    +0.016 C 
ATOM     22  C   UNL     1       5.157  -4.566  28.392  0.00  0.00    +0.084 C 
BRANCH  19  23
ATOM     23  C   UNL     1       4.390  -6.382  24.704  0.00  0.00    +0.309 C 
ATOM     24  O   UNL     1       3.904  -5.385  24.182  0.00  0.00    -0.251 OA
BRANCH  23  25
ATOM     25  O   UNL     1       4.510  -7.535  24.017  0.00  0.00    -0.480 OA
ATOM     26  H   UNL     1       4.478  -7.458  23.048  0.00  0.00    +0.295 HD
ENDBRANCH  23  25
ENDBRANCH  19  23
ENDBRANCH  16  17
ENDBRANCH  15  16
ENDBRANCH   2  15
TORSDOF 7
ENDMDL
MODEL 6
REMARK VINA RESULT:      -6.6      1.828      2.492
REMARK  Name = 
REMARK  9 active torsions:
REMARK  status: ('A' for Active; 'I' for Inactive)
REMARK    1  A    between atoms: C_1  and  C_2
REMARK    2  A    between atoms: C_3  and  C_7
REMARK    3  A    between atoms: C_7  and  C_21
REMARK    4  A    between atoms: C_8  and  C_9
REMARK    5  A    between atoms: C_9  and  C_10
REMARK    6  A    between atoms: C_10  and  N_11
REMARK    7  A    between atoms: C_15  and  C_18
REMARK    8  A    between atoms: C_18  and  O_19
REMARK    9  A    between atoms: C_22  and  C_23
REMARK                            x       y       z     vdW  Elec       q    Type
REMARK                         _______ _______ _______ _____ _____    ______ ____
ROOT
ATOM      1  C   UNL     1       6.611  -2.790  25.949  0.00  0.00    -0.001 C 
ATOM      2  C   UNL     1       7.218  -1.594  26.145  0.00  0.00    -0.016 C 
ENDROOT
BRANCH   1   8
ATOM      3  C   UNL     1       8.989  -4.816  24.871  0.00  0.00    +0.045 C 
ATOM      4  C   UNL     1       7.754  -4.337  24.178  0.00  0.00    -0.036 A 
ATOM      5  C   UNL     1       7.434  -4.819  22.863  0.00  0.00    +0.011 A 
ATOM      6  C   UNL     1       6.250  -4.319  22.383  0.00  0.00    +0.046 A 
ATOM      7  S   UNL     1       5.508  -3.263  23.495  0.00  0.00    -0.096 S 
ATOM      8  C   UNL     1       6.771  -3.462  24.668  0.00  0.00    +0.023 A 
ENDBRANCH   1   8
BRANCH   1   9
ATOM      9  C   UNL     1       5.759  -3.324  27.014  0.00  0.00    +0.023 A 
ATOM     10  S   UNL     1       4.424  -2.343  27.565  0.00  0.00    -0.096 S 
ATOM     11  C   UNL     1       3.948  -3.462  28.748  0.00  0.00    +0.046 A 
ATOM     12  C   UNL     1       4.750  -4.571  28.748  0.00  0.00    +0.011 A 
ATOM     13  C   UNL     1       5.804  -4.509  27.769  0.00  0.00    -0.036 A 
ATOM     14  C   UNL     1       6.783  -5.644  27.689  0.00  0.00    +0.045 C 
ENDBRANCH   1   9
BRANCH   2  15
ATOM     15  C   UNL     1       7.984  -0.771  25.125  0.00  0.00    +0.043 C 
BRANCH  15  16
ATOM     16  C   UNL     1       9.539  -0.842  25.250  0.00  0.00    +0.088 C 
BRANCH  16  17
ATOM     17  N   UNL     1      10.207  -0.639  23.954  0.00  0.00    -0.301 NA
ATOM     18  C   UNL     1      10.189   0.723  23.405  0.00  0.00    +0.099 C 
ATOM     19  C   UNL     1       9.671   0.976  21.965  0.00  0.00    +0.112 C 
ATOM     20  C   UNL     1       9.322  -0.260  21.132  0.00  0.00    +0.017 C 
ATOM     21  C   UNL     1       8.947  -1.453  21.990  0.00  0.00    +0.016 C 
ATOM     22  C   UNL     1      10.059  -1.720  22.994  0.00  0.00    +0.084 C 
BRANCH  19  23
ATOM     23  C   UNL     1       8.616   2.070  21.975  0.00  0.00    +0.309 C 
ATOM     24  O   UNL     1       7.475   1.886  21.569  0.00  0.00    -0.251 OA
BRANCH  23  25
ATOM     25  O   UNL     1       9.007   3.281  22.418  0.00  0.00    -0.480 OA
ATOM     26  H   UNL     1       9.381   3.305  23.316  0.00  0.00    +0.295 HD
ENDBRANCH  23  25
ENDBRANCH  19  23
ENDBRANCH  16  17
ENDBRANCH  15  16
ENDBRANCH   2  15
TORSDOF 7
ENDMDL
MODEL 7
REMARK VINA RESULT:      -6.5      3.725      6.726
REMARK  Name = 
REMARK  9 active torsions:
REMARK  status: ('A' for Active; 'I' for Inactive)
REMARK    1  A    between atoms: C_1  and  C_2
REMARK    2  A    between atoms: C_3  and  C_7
REMARK    3  A    between atoms: C_7  and  C_21
REMARK    4  A    between atoms: C_8  and  C_9
REMARK    5  A    between atoms: C_9  and  C_10
REMARK    6  A    between atoms: C_10  and  N_11
REMARK    7  A    between atoms: C_15  and  C_18
REMARK    8  A    between atoms: C_18  and  O_19
REMARK    9  A    between atoms: C_22  and  C_23
REMARK                            x       y       z     vdW  Elec       q    Type
REMARK                         _______ _______ _______ _____ _____    ______ ____
ROOT
ATOM      1  C   UNL     1       7.295  -0.130  24.045  0.00  0.00    -0.001 C 
ATOM      2  C   UNL     1       7.135  -1.391  23.575  0.00  0.00    -0.016 C 
ENDROOT
BRANCH   1   8
ATOM      3  C   UNL     1       8.067   1.741  21.433  0.00  0.00    +0.045 C 
ATOM      4  C   UNL     1       8.879   1.405  22.643  0.00  0.00    -0.036 A 
ATOM      5  C   UNL     1      10.184   1.981  22.816  0.00  0.00    +0.011 A 
ATOM      6  C   UNL     1      10.781   1.610  23.993  0.00  0.00    +0.046 A 
ATOM      7  S   UNL     1       9.792   0.564  24.905  0.00  0.00    -0.096 S 
ATOM      8  C   UNL     1       8.517   0.592  23.729  0.00  0.00    +0.023 A 
ENDBRANCH   1   8
BRANCH   1   9
ATOM      9  C   UNL     1       6.255   0.428  24.914  0.00  0.00    +0.023 A 
ATOM     10  S   UNL     1       5.889  -0.413  26.399  0.00  0.00    -0.096 S 
ATOM     11  C   UNL     1       4.657   0.669  26.836  0.00  0.00    +0.046 A 
ATOM     12  C   UNL     1       4.505   1.664  25.909  0.00  0.00    +0.011 A 
ATOM     13  C   UNL     1       5.403   1.540  24.790  0.00  0.00    -0.036 A 
ATOM     14  C   UNL     1       5.316   2.545  23.678  0.00  0.00    +0.045 C 
ENDBRANCH   1   9
BRANCH   2  15
ATOM     15  C   UNL     1       8.152  -2.230  22.824  0.00  0.00    +0.043 C 
BRANCH  15  16
ATOM     16  C   UNL     1       9.069  -3.121  23.721  0.00  0.00    +0.088 C 
BRANCH  16  17
ATOM     17  N   UNL     1       8.486  -4.453  23.955  0.00  0.00    -0.301 NA
ATOM     18  C   UNL     1       7.552  -4.955  22.940  0.00  0.00    +0.099 C 
ATOM     19  C   UNL     1       6.140  -5.444  23.354  0.00  0.00    +0.112 C 
ATOM     20  C   UNL     1       5.842  -5.498  24.854  0.00  0.00    +0.017 C 
ATOM     21  C   UNL     1       6.689  -4.523  25.650  0.00  0.00    +0.016 C 
ATOM     22  C   UNL     1       8.159  -4.762  25.337  0.00  0.00    +0.084 C 
BRANCH  19  23
ATOM     23  C   UNL     1       5.081  -4.757  22.506  0.00  0.00    +0.309 C 
ATOM     24  O   UNL     1       5.366  -4.035  21.559  0.00  0.00    -0.251 OA
BRANCH  23  25
ATOM     25  O   UNL     1       3.798  -4.947  22.872  0.00  0.00    -0.480 OA
ATOM     26  H   UNL     1       3.187  -4.216  22.674  0.00  0.00    +0.295 HD
ENDBRANCH  23  25
ENDBRANCH  19  23
ENDBRANCH  16  17
ENDBRANCH  15  16
ENDBRANCH   2  15
TORSDOF 7
ENDMDL
MODEL 8
REMARK VINA RESULT:      -6.4      3.749      6.693
REMARK  Name = 
REMARK  9 active torsions:
REMARK  status: ('A' for Active; 'I' for Inactive)
REMARK    1  A    between atoms: C_1  and  C_2
REMARK    2  A    between atoms: C_3  and  C_7
REMARK    3  A    between atoms: C_7  and  C_21
REMARK    4  A    between atoms: C_8  and  C_9
REMARK    5  A    between atoms: C_9  and  C_10
REMARK    6  A    between atoms: C_10  and  N_11
REMARK    7  A    between atoms: C_15  and  C_18
REMARK    8  A    between atoms: C_18  and  O_19
REMARK    9  A    between atoms: C_22  and  C_23
REMARK                            x       y       z     vdW  Elec       q    Type
REMARK                         _______ _______ _______ _____ _____    ______ ____
ROOT
ATOM      1  C   UNL     1       7.278  -0.161  24.035  0.00  0.00    -0.001 C 
ATOM      2  C   UNL     1       7.112  -1.419  23.557  0.00  0.00    -0.016 C 
ENDROOT
BRANCH   1   8
ATOM      3  C   UNL     1       8.092   1.800  21.502  0.00  0.00    +0.045 C 
ATOM      4  C   UNL     1       8.896   1.395  22.696  0.00  0.00    -0.036 A 
ATOM      5  C   UNL     1      10.214   1.933  22.891  0.00  0.00    +0.011 A 
ATOM      6  C   UNL     1      10.803   1.499  24.051  0.00  0.00    +0.046 A 
ATOM      7  S   UNL     1       9.791   0.438  24.919  0.00  0.00    -0.096 S 
ATOM      8  C   UNL     1       8.516   0.545  23.747  0.00  0.00    +0.023 A 
ENDBRANCH   1   8
BRANCH   1   9
ATOM      9  C   UNL     1       6.227   0.408  24.882  0.00  0.00    +0.023 A 
ATOM     10  S   UNL     1       5.461   1.886  24.356  0.00  0.00    -0.096 S 
ATOM     11  C   UNL     1       4.472   1.990  25.730  0.00  0.00    +0.046 A 
ATOM     12  C   UNL     1       4.680   0.943  26.586  0.00  0.00    +0.011 A 
ATOM     13  C   UNL     1       5.692   0.027  26.125  0.00  0.00    -0.036 A 
ATOM     14  C   UNL     1       6.049  -1.149  26.988  0.00  0.00    +0.045 C 
ENDBRANCH   1   9
BRANCH   2  15
ATOM     15  C   UNL     1       8.134  -2.269  22.826  0.00  0.00    +0.043 C 
BRANCH  15  16
ATOM     16  C   UNL     1       9.036  -3.156  23.741  0.00  0.00    +0.088 C 
BRANCH  16  17
ATOM     17  N   UNL     1       8.459  -4.493  23.958  0.00  0.00    -0.301 NA
ATOM     18  C   UNL     1       7.497  -4.969  22.955  0.00  0.00    +0.099 C 
ATOM     19  C   UNL     1       6.096  -5.469  23.394  0.00  0.00    +0.112 C 
ATOM     20  C   UNL     1       5.839  -5.560  24.900  0.00  0.00    +0.017 C 
ATOM     21  C   UNL     1       6.708  -4.606  25.697  0.00  0.00    +0.016 C 
ATOM     22  C   UNL     1       8.168  -4.837  25.340  0.00  0.00    +0.084 C 
BRANCH  19  23
ATOM     23  C   UNL     1       5.016  -4.761  22.593  0.00  0.00    +0.309 C 
ATOM     24  O   UNL     1       3.824  -4.872  22.856  0.00  0.00    -0.251 OA
BRANCH  23  25
ATOM     25  O   UNL     1       5.428  -4.027  21.540  0.00  0.00    -0.480 OA
ATOM     26  H   UNL     1       4.725  -3.676  20.966  0.00  0.00    +0.295 HD
ENDBRANCH  23  25
ENDBRANCH  19  23
ENDBRANCH  16  17
ENDBRANCH  15  16
ENDBRANCH   2  15
TORSDOF 7
ENDMDL
MODEL 9
REMARK VINA RESULT:      -6.3      2.485      3.291
REMARK  Name = 
REMARK  9 active torsions:
REMARK  status: ('A' for Active; 'I' for Inactive)
REMARK    1  A    between atoms: C_1  and  C_2
REMARK    2  A    between atoms: C_3  and  C_7
REMARK    3  A    between atoms: C_7  and  C_21
REMARK    4  A    between atoms: C_8  and  C_9
REMARK    5  A    between atoms: C_9  and  C_10
REMARK    6  A    between atoms: C_10  and  N_11
REMARK    7  A    between atoms: C_15  and  C_18
REMARK    8  A    between atoms: C_18  and  O_19
REMARK    9  A    between atoms: C_22  and  C_23
REMARK                            x       y       z     vdW  Elec       q    Type
REMARK                         _______ _______ _______ _____ _____    ______ ____
ROOT
ATOM      1  C   UNL     1       5.573  -3.929  25.059  0.00  0.00    -0.001 C 
ATOM      2  C   UNL     1       5.592  -2.576  25.141  0.00  0.00    -0.016 C 
ENDROOT
BRANCH   1   8
ATOM      3  C   UNL     1       8.699  -4.828  24.474  0.00  0.00    +0.045 C 
ATOM      4  C   UNL     1       7.482  -4.984  23.619  0.00  0.00    -0.036 A 
ATOM      5  C   UNL     1       7.572  -5.667  22.358  0.00  0.00    +0.011 A 
ATOM      6  C   UNL     1       6.365  -5.765  21.715  0.00  0.00    +0.046 A 
ATOM      7  S   UNL     1       5.109  -5.037  22.606  0.00  0.00    -0.096 S 
ATOM      8  C   UNL     1       6.169  -4.574  23.900  0.00  0.00    +0.023 A 
ENDBRANCH   1   8
BRANCH   1   9
ATOM      9  C   UNL     1       4.889  -4.682  26.113  0.00  0.00    +0.023 A 
ATOM     10  S   UNL     1       3.144  -4.715  26.096  0.00  0.00    -0.096 S 
ATOM     11  C   UNL     1       3.038  -5.641  27.513  0.00  0.00    +0.046 A 
ATOM     12  C   UNL     1       4.275  -5.948  28.011  0.00  0.00    +0.011 A 
ATOM     13  C   UNL     1       5.353  -5.398  27.230  0.00  0.00    -0.036 A 
ATOM     14  C   UNL     1       6.765  -5.625  27.687  0.00  0.00    +0.045 C 
ENDBRANCH   1   9
BRANCH   2  15
ATOM     15  C   UNL     1       6.072  -1.596  24.086  0.00  0.00    +0.043 C 
BRANCH  15  16
ATOM     16  C   UNL     1       6.010  -0.092  24.502  0.00  0.00    +0.088 C 
BRANCH  16  17
ATOM     17  N   UNL     1       7.307   0.583  24.331  0.00  0.00    -0.301 NA
ATOM     18  C   UNL     1       8.033   0.316  23.082  0.00  0.00    +0.099 C 
ATOM     19  C   UNL     1       9.504  -0.173  23.124  0.00  0.00    +0.112 C 
ATOM     20  C   UNL     1      10.173  -0.227  24.500  0.00  0.00    +0.017 C 
ATOM     21  C   UNL     1       9.171  -0.394  25.627  0.00  0.00    +0.016 C 
ATOM     22  C   UNL     1       8.119   0.700  25.532  0.00  0.00    +0.084 C 
BRANCH  19  23
ATOM     23  C   UNL     1       9.660  -1.426  22.277  0.00  0.00    +0.309 C 
ATOM     24  O   UNL     1       8.717  -2.161  22.012  0.00  0.00    -0.251 OA
BRANCH  23  25
ATOM     25  O   UNL     1      10.907  -1.720  21.859  0.00  0.00    -0.480 OA
ATOM     26  H   UNL     1      11.621  -1.548  22.497  0.00  0.00    +0.295 HD
ENDBRANCH  23  25
ENDBRANCH  19  23
ENDBRANCH  16  17
ENDBRANCH  15  16
ENDBRANCH   2  15
TORSDOF 7
ENDMDL
