MODEL 1
REMARK VINA RESULT:      -5.0      0.000      0.000
REMARK  Name = 
REMARK  5 active torsions:
REMARK  status: ('A' for Active; 'I' for Inactive)
REMARK    1  A    between atoms: N_1  and  CA_2
REMARK    2  A    between atoms: CA_2  and  C_4
REMARK    3  A    between atoms: CA_2  and  C_7
REMARK    4  A    between atoms: C_4  and  O_5
REMARK    5  A    between atoms: C_10  and  O_11
REMARK                            x       y       z     vdW  Elec       q    Type
REMARK                         _______ _______ _______ _____ _____    ______ ____
ROOT
ATOM      1  CA  UNL     1       8.860  -4.569  25.378  0.00  0.00    +0.191 C 
ENDROOT
BRANCH   1   2
ATOM      2  C   UNL     1       8.020  -4.395  24.124  0.00  0.00    -0.020 A 
ATOM      3  C   UNL     1       7.502  -3.139  23.760  0.00  0.00    +0.009 A 
ATOM      4  C   UNL     1       6.722  -3.001  22.609  0.00  0.00    +0.046 A 
ATOM      5  C   UNL     1       6.454  -4.111  21.820  0.00  0.00    +0.117 A 
ATOM      6  C   UNL     1       6.950  -5.364  22.161  0.00  0.00    +0.046 A 
ATOM      7  C   UNL     1       7.730  -5.504  23.312  0.00  0.00    +0.009 A 
BRANCH   5   8
ATOM      8  O   UNL     1       5.685  -3.927  20.710  0.00  0.00    -0.507 OA
ATOM      9  H   UNL     1       6.264  -3.720  19.958  0.00  0.00    +0.292 HD
ENDBRANCH   5   8
ENDBRANCH   1   2
BRANCH   1  10
ATOM     10  N   UNL     1       9.858  -5.640  25.178  0.00  0.00    -0.315 NA
ATOM     11  H1  UNL     1      10.258  -5.508  24.243  0.00  0.00    +0.119 HD
ATOM     12  H2  UNL     1      10.645  -5.470  25.803  0.00  0.00    +0.119 HD
ENDBRANCH   1  10
BRANCH   1  13
ATOM     13  C   UNL     1       8.044  -4.831  26.667  0.00  0.00    +0.326 C 
ATOM     14  OXT UNL     1       7.385  -3.962  27.229  0.00  0.00    -0.249 OA
BRANCH  13  15
ATOM     15  O   UNL     1       8.044  -6.110  27.109  0.00  0.00    -0.479 OA
ATOM     16  H   UNL     1       8.699  -6.689  26.669  0.00  0.00    +0.295 HD
ENDBRANCH  13  15
ENDBRANCH   1  13
TORSDOF 5
ENDMDL
MODEL 2
REMARK VINA RESULT:      -4.9      2.274      4.887
REMARK  Name = 
REMARK  5 active torsions:
REMARK  status: ('A' for Active; 'I' for Inactive)
REMARK    1  A    between atoms: N_1  and  CA_2
REMARK    2  A    between atoms: CA_2  and  C_4
REMARK    3  A    between atoms: CA_2  and  C_7
REMARK    4  A    between atoms: C_4  and  O_5
REMARK    5  A    between atoms: C_10  and  O_11
REMARK                            x       y       z     vdW  Elec       q    Type
REMARK                         _______ _______ _______ _____ _____    ______ ____
ROOT
ATOM      1  CA  UNL     1       6.467  -4.440  22.190  0.00  0.00    +0.191 C 
ENDROOT
BRANCH   1   2
ATOM      2  C   UNL     1       6.843  -4.800  23.617  0.00  0.00    -0.020 A 
ATOM      3  C   UNL     1       5.859  -5.047  24.592  0.00  0.00    +0.009 A 
ATOM      4  C   UNL     1       6.225  -5.365  25.902  0.00  0.00    +0.046 A 
ATOM      5  C   UNL     1       7.568  -5.435  26.247  0.00  0.00    +0.117 A 
ATOM      6  C   UNL     1       8.559  -5.191  25.303  0.00  0.00    +0.046 A 
ATOM      7  C   UNL     1       8.195  -4.872  23.992  0.00  0.00    +0.009 A 
BRANCH   5   8
ATOM      8  O   UNL     1       7.874  -5.744  27.539  0.00  0.00    -0.507 OA
ATOM      9  H   UNL     1       8.701  -6.254  27.550  0.00  0.00    +0.292 HD
ENDBRANCH   5   8
ENDBRANCH   1   2
BRANCH   1  10
ATOM     10  N   UNL     1       5.303  -3.531  22.184  0.00  0.00    -0.315 NA
ATOM     11  H1  UNL     1       4.519  -4.047  21.773  0.00  0.00    +0.119 HD
ATOM     12  H2  UNL     1       5.010  -3.373  23.148  0.00  0.00    +0.119 HD
ENDBRANCH   1  10
BRANCH   1  13
ATOM     13  C   UNL     1       6.203  -5.655  21.269  0.00  0.00    +0.326 C 
ATOM     14  OXT UNL     1       5.960  -5.546  20.071  0.00  0.00    -0.249 OA
BRANCH  13  15
ATOM     15  O   UNL     1       6.323  -6.870  21.854  0.00  0.00    -0.479 OA
ATOM     16  H   UNL     1       6.595  -7.586  21.246  0.00  0.00    +0.295 HD
ENDBRANCH  13  15
ENDBRANCH   1  13
TORSDOF 5
ENDMDL
MODEL 3
REMARK VINA RESULT:      -4.9      7.281      8.225
REMARK  Name = 
REMARK  5 active torsions:
REMARK  status: ('A' for Active; 'I' for Inactive)
REMARK    1  A    between atoms: N_1  and  CA_2
REMARK    2  A    between atoms: CA_2  and  C_4
REMARK    3  A    between atoms: CA_2  and  C_7
REMARK    4  A    between atoms: C_4  and  O_5
REMARK    5  A    between atoms: C_10  and  O_11
REMARK                            x       y       z     vdW  Elec       q    Type
REMARK                         _______ _______ _______ _____ _____    ______ ____
ROOT
ATOM      1  CA  UNL     1       9.791   3.679  23.713  0.00  0.00    +0.191 C 
ENDROOT
BRANCH   1   2
ATOM      2  C   UNL     1       9.917   2.237  23.252  0.00  0.00    -0.020 A 
ATOM      3  C   UNL     1      10.508   1.258  24.070  0.00  0.00    +0.009 A 
ATOM      4  C   UNL     1      10.625  -0.061  23.624  0.00  0.00    +0.046 A 
ATOM      5  C   UNL     1      10.158  -0.408  22.364  0.00  0.00    +0.117 A 
ATOM      6  C   UNL     1       9.574   0.543  21.534  0.00  0.00    +0.046 A 
ATOM      7  C   UNL     1       9.457   1.863  21.979  0.00  0.00    +0.009 A 
BRANCH   5   8
ATOM      8  O   UNL     1      10.299  -1.705  21.971  0.00  0.00    -0.507 OA
ATOM      9  H   UNL     1       9.810  -2.274  22.590  0.00  0.00    +0.292 HD
ENDBRANCH   5   8
ENDBRANCH   1   2
BRANCH   1  10
ATOM     10  N   UNL     1       8.571   4.290  23.146  0.00  0.00    -0.315 NA
ATOM     11  H1  UNL     1       8.024   3.534  22.723  0.00  0.00    +0.119 HD
ATOM     12  H2  UNL     1       7.984   4.614  23.914  0.00  0.00    +0.119 HD
ENDBRANCH   1  10
BRANCH   1  13
ATOM     13  C   UNL     1      11.025   4.562  23.407  0.00  0.00    +0.326 C 
ATOM     14  OXT UNL     1      12.173   4.129  23.405  0.00  0.00    -0.249 OA
BRANCH  13  15
ATOM     15  O   UNL     1      10.757   5.845  23.070  0.00  0.00    -0.479 OA
ATOM     16  H   UNL     1      10.647   5.996  22.110  0.00  0.00    +0.295 HD
ENDBRANCH  13  15
ENDBRANCH   1  13
TORSDOF 5
ENDMDL
MODEL 4
REMARK VINA RESULT:      -4.8      5.310      6.088
REMARK  Name = 
REMARK  5 active torsions:
REMARK  status: ('A' for Active; 'I' for Inactive)
REMARK    1  A    between atoms: N_1  and  CA_2
REMARK    2  A    between atoms: CA_2  and  C_4
REMARK    3  A    between atoms: CA_2  and  C_7
REMARK    4  A    between atoms: C_4  and  O_5
REMARK    5  A    between atoms: C_10  and  O_11
REMARK                            x       y       z     vdW  Elec       q    Type
REMARK                         _______ _______ _______ _____ _____    ______ ____
ROOT
ATOM      1  CA  UNL     1      10.306  -1.314  22.813  0.00  0.00    +0.191 C 
ENDROOT
BRANCH   1   2
ATOM      2  C   UNL     1      10.025   0.176  22.902  0.00  0.00    -0.020 A 
ATOM      3  C   UNL     1      10.571   0.963  23.931  0.00  0.00    +0.009 A 
ATOM      4  C   UNL     1      10.291   2.330  24.003  0.00  0.00    +0.046 A 
ATOM      5  C   UNL     1       9.465   2.916  23.054  0.00  0.00    +0.117 A 
ATOM      6  C   UNL     1       8.908   2.159  22.029  0.00  0.00    +0.046 A 
ATOM      7  C   UNL     1       9.187   0.791  21.956  0.00  0.00    +0.009 A 
BRANCH   5   8
ATOM      8  O   UNL     1       9.217   4.251  23.168  0.00  0.00    -0.507 OA
ATOM      9  H   UNL     1       9.925   4.657  23.695  0.00  0.00    +0.292 HD
ENDBRANCH   5   8
ENDBRANCH   1   2
BRANCH   1  10
ATOM     10  N   UNL     1      10.008  -1.808  21.453  0.00  0.00    -0.315 NA
ATOM     11  H1  UNL     1       9.265  -1.213  21.072  0.00  0.00    +0.119 HD
ATOM     12  H2  UNL     1      10.809  -1.609  20.853  0.00  0.00    +0.119 HD
ENDBRANCH   1  10
BRANCH   1  13
ATOM     13  C   UNL     1       9.569  -2.172  23.869  0.00  0.00    +0.326 C 
ATOM     14  OXT UNL     1       8.534  -1.811  24.420  0.00  0.00    -0.249 OA
BRANCH  13  15
ATOM     15  O   UNL     1      10.103  -3.393  24.107  0.00  0.00    -0.479 OA
ATOM     16  H   UNL     1       9.895  -4.063  23.425  0.00  0.00    +0.295 HD
ENDBRANCH  13  15
ENDBRANCH   1  13
TORSDOF 5
ENDMDL
MODEL 5
REMARK VINA RESULT:      -4.7      5.347      6.156
REMARK  Name = 
REMARK  5 active torsions:
REMARK  status: ('A' for Active; 'I' for Inactive)
REMARK    1  A    between atoms: N_1  and  CA_2
REMARK    2  A    between atoms: CA_2  and  C_4
REMARK    3  A    between atoms: CA_2  and  C_7
REMARK    4  A    between atoms: C_4  and  O_5
REMARK    5  A    between atoms: C_10  and  O_11
REMARK                            x       y       z     vdW  Elec       q    Type
REMARK                         _______ _______ _______ _____ _____    ______ ____
ROOT
ATOM      1  CA  UNL     1      10.309  -1.247  22.795  0.00  0.00    +0.191 C 
ENDROOT
BRANCH   1   2
ATOM      2  C   UNL     1       9.990   0.235  22.896  0.00  0.00    -0.020 A 
ATOM      3  C   UNL     1       9.179   0.874  21.942  0.00  0.00    +0.009 A 
ATOM      4  C   UNL     1       8.906   2.240  22.045  0.00  0.00    +0.046 A 
ATOM      5  C   UNL     1       9.441   2.974  23.095  0.00  0.00    +0.117 A 
ATOM      6  C   UNL     1      10.250   2.366  24.049  0.00  0.00    +0.046 A 
ATOM      7  C   UNL     1      10.524   0.999  23.947  0.00  0.00    +0.009 A 
BRANCH   5   8
ATOM      8  O   UNL     1       9.151   4.304  23.151  0.00  0.00    -0.507 OA
ATOM      9  H   UNL     1       9.974   4.798  23.307  0.00  0.00    +0.292 HD
ENDBRANCH   5   8
ENDBRANCH   1   2
BRANCH   1  10
ATOM     10  N   UNL     1       9.991  -1.745  21.441  0.00  0.00    -0.315 NA
ATOM     11  H1  UNL     1       9.482  -2.627  21.556  0.00  0.00    +0.119 HD
ATOM     12  H2  UNL     1       9.302  -1.122  21.020  0.00  0.00    +0.119 HD
ENDBRANCH   1  10
BRANCH   1  13
ATOM     13  C   UNL     1       9.622  -2.128  23.865  0.00  0.00    +0.326 C 
ATOM     14  OXT UNL     1       8.602  -1.788  24.458  0.00  0.00    -0.249 OA
BRANCH  13  15
ATOM     15  O   UNL     1      10.180  -3.344  24.068  0.00  0.00    -0.479 OA
ATOM     16  H   UNL     1       9.680  -3.920  24.680  0.00  0.00    +0.295 HD
ENDBRANCH  13  15
ENDBRANCH   1  13
TORSDOF 5
ENDMDL
MODEL 6
REMARK VINA RESULT:      -4.7      3.977      4.700
REMARK  Name = 
REMARK  5 active torsions:
REMARK  status: ('A' for Active; 'I' for Inactive)
REMARK    1  A    between atoms: N_1  and  CA_2
REMARK    2  A    between atoms: CA_2  and  C_4
REMARK    3  A    between atoms: CA_2  and  C_7
REMARK    4  A    between atoms: C_4  and  O_5
REMARK    5  A    between atoms: C_10  and  O_11
REMARK                            x       y       z     vdW  Elec       q    Type
REMARK                         _______ _______ _______ _____ _____    ______ ____
ROOT
ATOM      1  CA  UNL     1       8.973  -2.590  24.246  0.00  0.00    +0.191 C 
ENDROOT
BRANCH   1   2
ATOM      2  C   UNL     1       9.336  -1.301  23.529  0.00  0.00    -0.020 A 
ATOM      3  C   UNL     1       9.812  -0.181  24.234  0.00  0.00    +0.009 A 
ATOM      4  C   UNL     1      10.129   0.999  23.557  0.00  0.00    +0.046 A 
ATOM      5  C   UNL     1       9.971   1.070  22.180  0.00  0.00    +0.117 A 
ATOM      6  C   UNL     1       9.498  -0.022  21.461  0.00  0.00    +0.046 A 
ATOM      7  C   UNL     1       9.179  -1.204  22.136  0.00  0.00    +0.009 A 
BRANCH   5   8
ATOM      8  O   UNL     1      10.289   2.244  21.565  0.00  0.00    -0.507 OA
ATOM      9  H   UNL     1       9.531   2.848  21.633  0.00  0.00    +0.292 HD
ENDBRANCH   5   8
ENDBRANCH   1   2
BRANCH   1  10
ATOM     10  N   UNL     1      10.084  -3.559  24.145  0.00  0.00    -0.315 NA
ATOM     11  H1  UNL     1      10.302  -3.867  25.098  0.00  0.00    +0.119 HD
ATOM     12  H2  UNL     1       9.737  -4.404  23.691  0.00  0.00    +0.119 HD
ENDBRANCH   1  10
BRANCH   1  13
ATOM     13  C   UNL     1       7.651  -3.239  23.773  0.00  0.00    +0.326 C 
ATOM     14  OXT UNL     1       6.558  -2.693  23.889  0.00  0.00    -0.249 OA
BRANCH  13  15
ATOM     15  O   UNL     1       7.776  -4.435  23.152  0.00  0.00    -0.479 OA
ATOM     16  H   UNL     1       8.352  -4.421  22.361  0.00  0.00    +0.295 HD
ENDBRANCH  13  15
ENDBRANCH   1  13
TORSDOF 5
ENDMDL
MODEL 7
REMARK VINA RESULT:      -4.7      4.057      5.003
REMARK  Name = 
REMARK  5 active torsions:
REMARK  status: ('A' for Active; 'I' for Inactive)
REMARK    1  A    between atoms: N_1  and  CA_2
REMARK    2  A    between atoms: CA_2  and  C_4
REMARK    3  A    between atoms: CA_2  and  C_7
REMARK    4  A    between atoms: C_4  and  O_5
REMARK    5  A    between atoms: C_10  and  O_11
REMARK                            x       y       z     vdW  Elec       q    Type
REMARK                         _______ _______ _______ _____ _____    ______ ____
ROOT
ATOM      1  CA  UNL     1       8.934  -2.461  24.199  0.00  0.00    +0.191 C 
ENDROOT
BRANCH   1   2
ATOM      2  C   UNL     1       9.306  -1.165  23.499  0.00  0.00    -0.020 A 
ATOM      3  C   UNL     1       9.040  -0.971  22.132  0.00  0.00    +0.009 A 
ATOM      4  C   UNL     1       9.401   0.223  21.502  0.00  0.00    +0.046 A 
ATOM      5  C   UNL     1      10.029   1.224  22.230  0.00  0.00    +0.117 A 
ATOM      6  C   UNL     1      10.308   1.055  23.581  0.00  0.00    +0.046 A 
ATOM      7  C   UNL     1       9.948  -0.139  24.212  0.00  0.00    +0.009 A 
BRANCH   5   8
ATOM      8  O   UNL     1      10.366   2.369  21.571  0.00  0.00    -0.507 OA
ATOM      9  H   UNL     1       9.787   3.087  21.876  0.00  0.00    +0.292 HD
ENDBRANCH   5   8
ENDBRANCH   1   2
BRANCH   1  10
ATOM     10  N   UNL     1      10.071  -3.404  24.163  0.00  0.00    -0.315 NA
ATOM     11  H1  UNL     1       9.902  -4.050  23.385  0.00  0.00    +0.119 HD
ATOM     12  H2  UNL     1      10.906  -2.894  23.876  0.00  0.00    +0.119 HD
ENDBRANCH   1  10
BRANCH   1  13
ATOM     13  C   UNL     1       7.655  -3.141  23.656  0.00  0.00    +0.326 C 
ATOM     14  OXT UNL     1       7.677  -4.170  22.988  0.00  0.00    -0.249 OA
BRANCH  13  15
ATOM     15  O   UNL     1       6.486  -2.565  24.022  0.00  0.00    -0.479 OA
ATOM     16  H   UNL     1       5.929  -3.118  24.605  0.00  0.00    +0.295 HD
ENDBRANCH  13  15
ENDBRANCH   1  13
TORSDOF 5
ENDMDL
MODEL 8
REMARK VINA RESULT:      -4.6      2.767      5.007
REMARK  Name = 
REMARK  5 active torsions:
REMARK  status: ('A' for Active; 'I' for Inactive)
REMARK    1  A    between atoms: N_1  and  CA_2
REMARK    2  A    between atoms: CA_2  and  C_4
REMARK    3  A    between atoms: CA_2  and  C_7
REMARK    4  A    between atoms: C_4  and  O_5
REMARK    5  A    between atoms: C_10  and  O_11
REMARK                            x       y       z     vdW  Elec       q    Type
REMARK                         _______ _______ _______ _____ _____    ______ ____
ROOT
ATOM      1  CA  UNL     1       9.757  -1.873  23.837  0.00  0.00    +0.191 C 
ENDROOT
BRANCH   1   2
ATOM      2  C   UNL     1       9.252  -2.929  24.805  0.00  0.00    -0.020 A 
ATOM      3  C   UNL     1       9.721  -4.254  24.751  0.00  0.00    +0.009 A 
ATOM      4  C   UNL     1       9.236  -5.214  25.642  0.00  0.00    +0.046 A 
ATOM      5  C   UNL     1       8.281  -4.860  26.586  0.00  0.00    +0.117 A 
ATOM      6  C   UNL     1       7.798  -3.559  26.657  0.00  0.00    +0.046 A 
ATOM      7  C   UNL     1       8.282  -2.597  25.765  0.00  0.00    +0.009 A 
BRANCH   5   8
ATOM      8  O   UNL     1       7.835  -5.833  27.430  0.00  0.00    -0.507 OA
ATOM      9  H   UNL     1       7.575  -6.608  26.905  0.00  0.00    +0.292 HD
ENDBRANCH   5   8
ENDBRANCH   1   2
BRANCH   1  10
ATOM     10  N   UNL     1       9.521  -0.523  24.388  0.00  0.00    -0.315 NA
ATOM     11  H1  UNL     1       9.270   0.084  23.602  0.00  0.00    +0.119 HD
ATOM     12  H2  UNL     1       8.673  -0.548  24.955  0.00  0.00    +0.119 HD
ENDBRANCH   1  10
BRANCH   1  13
ATOM     13  C   UNL     1       9.173  -1.978  22.408  0.00  0.00    +0.326 C 
ATOM     14  OXT UNL     1       8.014  -2.314  22.182  0.00  0.00    -0.249 OA
BRANCH  13  15
ATOM     15  O   UNL     1      10.006  -1.609  21.407  0.00  0.00    -0.479 OA
ATOM     16  H   UNL     1       9.985  -0.654  21.196  0.00  0.00    +0.295 HD
ENDBRANCH  13  15
ENDBRANCH   1  13
TORSDOF 5
ENDMDL
MODEL 9
REMARK VINA RESULT:      -4.6      4.949      6.543
REMARK  Name = 
REMARK  5 active torsions:
REMARK  status: ('A' for Active; 'I' for Inactive)
REMARK    1  A    between atoms: N_1  and  CA_2
REMARK    2  A    between atoms: CA_2  and  C_4
REMARK    3  A    between atoms: CA_2  and  C_7
REMARK    4  A    between atoms: C_4  and  O_5
REMARK    5  A    between atoms: C_10  and  O_11
REMARK                            x       y       z     vdW  Elec       q    Type
REMARK                         _______ _______ _______ _____ _____    ______ ____
ROOT
ATOM      1  CA  UNL     1       8.870   1.408  21.577  0.00  0.00    +0.191 C 
ENDROOT
BRANCH   1   2
ATOM      2  C   UNL     1       9.184   0.105  22.291  0.00  0.00    -0.020 A 
ATOM      3  C   UNL     1       8.998  -1.138  21.660  0.00  0.00    +0.009 A 
ATOM      4  C   UNL     1       9.281  -2.326  22.339  0.00  0.00    +0.046 A 
ATOM      5  C   UNL     1       9.746  -2.281  23.646  0.00  0.00    +0.117 A 
ATOM      6  C   UNL     1       9.934  -1.065  24.293  0.00  0.00    +0.046 A 
ATOM      7  C   UNL     1       9.650   0.125  23.616  0.00  0.00    +0.009 A 
BRANCH   5   8
ATOM      8  O   UNL     1      10.004  -3.466  24.267  0.00  0.00    -0.507 OA
ATOM      9  H   UNL     1      10.879  -3.416  24.686  0.00  0.00    +0.292 HD
ENDBRANCH   5   8
ENDBRANCH   1   2
BRANCH   1  10
ATOM     10  N   UNL     1      10.008   2.343  21.699  0.00  0.00    -0.315 NA
ATOM     11  H1  UNL     1      10.863   1.778  21.693  0.00  0.00    +0.119 HD
ATOM     12  H2  UNL     1      10.073   2.888  20.839  0.00  0.00    +0.119 HD
ENDBRANCH   1  10
BRANCH   1  13
ATOM     13  C   UNL     1       7.561   2.094  22.035  0.00  0.00    +0.326 C 
ATOM     14  OXT UNL     1       7.425   3.313  22.082  0.00  0.00    -0.249 OA
BRANCH  13  15
ATOM     15  O   UNL     1       6.534   1.261  22.324  0.00  0.00    -0.479 OA
ATOM     16  H   UNL     1       5.907   1.609  22.989  0.00  0.00    +0.295 HD
ENDBRANCH  13  15
ENDBRANCH   1  13
TORSDOF 5
ENDMDL
