MODEL 1
REMARK VINA RESULT:      -6.1      0.000      0.000
REMARK  Name = 
REMARK  8 active torsions:
REMARK  status: ('A' for Active; 'I' for Inactive)
REMARK    1  A    between atoms: C_2  and  O_3
REMARK    2  A    between atoms: C_2  and  C_4
REMARK    3  A    between atoms: C_2  and  C_14
REMARK    4  A    between atoms: C_4  and  O_5
REMARK    5  A    between atoms: O_5  and  C_6
REMARK    6  A    between atoms: C_7  and  C_8
REMARK    7  A    between atoms: C_11  and  C_12
REMARK    8  A    between atoms: C_14  and  N_15
REMARK                            x       y       z     vdW  Elec       q    Type
REMARK                         _______ _______ _______ _____ _____    ______ ____
ROOT
ATOM      1  C   UNL     1      10.310  -1.764  23.032  0.00  0.00    +0.166 C 
ENDROOT
BRANCH   1   2
ATOM      2  O   UNL     1       9.755  -1.864  21.715  0.00  0.00    -0.387 OA
ATOM      3  H   UNL     1       9.033  -1.207  21.671  0.00  0.00    +0.210 HD
ENDBRANCH   1   2
BRANCH   1   4
ATOM      4  C   UNL     1      10.471  -0.254  23.380  0.00  0.00    +0.119 C 
BRANCH   4   5
ATOM      5  N   UNL     1       9.478   0.651  22.763  0.00  0.00    -0.295 NA
ATOM      6  C   UNL     1      10.108   1.872  22.210  0.00  0.00    +0.112 C 
ATOM      7  C   UNL     1      10.519   2.904  23.275  0.00  0.00    +0.175 C 
ATOM      8  O   UNL     1       9.411   3.262  24.109  0.00  0.00    -0.377 OA
ATOM      9  C   UNL     1       8.854   2.101  24.737  0.00  0.00    +0.175 C 
ATOM     10  C   UNL     1       8.405   1.067  23.692  0.00  0.00    +0.112 C 
ENDBRANCH   4   5
ENDBRANCH   1   4
BRANCH   1  11
ATOM     11  C   UNL     1       9.377  -2.416  24.059  0.00  0.00    +0.261 C 
BRANCH  11  12
ATOM     12  O   UNL     1       9.414  -3.837  24.094  0.00  0.00    -0.489 OA
BRANCH  12  13
ATOM     13  C   UNL     1       8.183  -4.468  24.149  0.00  0.00    +0.124 A 
ATOM     14  C   UNL     1       7.722  -4.815  22.857  0.00  0.00    +0.049 A 
ATOM     15  C   UNL     1       6.504  -5.489  22.649  0.00  0.00    -0.047 A 
ATOM     16  C   UNL     1       6.028  -5.845  21.272  0.00  0.00    +0.044 C 
ATOM     17  C   UNL     1       5.713  -5.787  23.749  0.00  0.00    +0.004 A 
ATOM     18  C   UNL     1       6.145  -5.450  25.024  0.00  0.00    +0.007 A 
ATOM     19  C   UNL     1       7.376  -4.793  25.262  0.00  0.00    -0.009 A 
ATOM     20  C   UNL     1       7.594  -4.539  26.732  0.00  0.00    +0.047 C 
ENDBRANCH  12  13
ENDBRANCH  11  12
ENDBRANCH   1  11
TORSDOF 6
ENDMDL
MODEL 2
REMARK VINA RESULT:      -6.0      1.384      1.809
REMARK  Name = 
REMARK  8 active torsions:
REMARK  status: ('A' for Active; 'I' for Inactive)
REMARK    1  A    between atoms: C_2  and  O_3
REMARK    2  A    between atoms: C_2  and  C_4
REMARK    3  A    between atoms: C_2  and  C_14
REMARK    4  A    between atoms: C_4  and  O_5
REMARK    5  A    between atoms: O_5  and  C_6
REMARK    6  A    between atoms: C_7  and  C_8
REMARK    7  A    between atoms: C_11  and  C_12
REMARK    8  A    between atoms: C_14  and  N_15
REMARK                            x       y       z     vdW  Elec       q    Type
REMARK                         _______ _______ _______ _____ _____    ______ ____
ROOT
ATOM      1  C   UNL     1       8.534  -2.041  24.764  0.00  0.00    +0.166 C 
ENDROOT
BRANCH   1   2
ATOM      2  O   UNL     1       8.802  -1.862  26.160  0.00  0.00    -0.387 OA
ATOM      3  H   UNL     1       8.583  -0.933  26.365  0.00  0.00    +0.210 HD
ENDBRANCH   1   2
BRANCH   1   4
ATOM      4  C   UNL     1       8.717  -0.667  24.053  0.00  0.00    +0.119 C 
BRANCH   4   5
ATOM      5  N   UNL     1      10.045  -0.437  23.445  0.00  0.00    -0.295 NA
ATOM      6  C   UNL     1      10.831   0.569  24.195  0.00  0.00    +0.112 C 
ATOM      7  C   UNL     1      10.376   2.021  23.966  0.00  0.00    +0.175 C 
ATOM      8  O   UNL     1      10.366   2.350  22.572  0.00  0.00    -0.377 OA
ATOM      9  C   UNL     1       9.524   1.448  21.844  0.00  0.00    +0.175 C 
ATOM     10  C   UNL     1       9.979  -0.008  22.032  0.00  0.00    +0.112 C 
ENDBRANCH   4   5
ENDBRANCH   1   4
BRANCH   1  11
ATOM     11  C   UNL     1       9.512  -3.053  24.156  0.00  0.00    +0.261 C 
BRANCH  11  12
ATOM     12  O   UNL     1       9.324  -4.400  24.568  0.00  0.00    -0.489 OA
BRANCH  12  13
ATOM     13  C   UNL     1       8.033  -4.888  24.454  0.00  0.00    +0.124 A 
ATOM     14  C   UNL     1       7.682  -5.112  23.102  0.00  0.00    +0.049 A 
ATOM     15  C   UNL     1       6.428  -5.629  22.727  0.00  0.00    -0.047 A 
ATOM     16  C   UNL     1       6.070  -5.856  21.288  0.00  0.00    +0.044 C 
ATOM     17  C   UNL     1       5.493  -5.891  23.718  0.00  0.00    +0.004 A 
ATOM     18  C   UNL     1       5.817  -5.674  25.050  0.00  0.00    +0.007 A 
ATOM     19  C   UNL     1       7.078  -5.175  25.455  0.00  0.00    -0.009 A 
ATOM     20  C   UNL     1       7.159  -5.025  26.953  0.00  0.00    +0.047 C 
ENDBRANCH  12  13
ENDBRANCH  11  12
ENDBRANCH   1  11
TORSDOF 6
ENDMDL
MODEL 3
REMARK VINA RESULT:      -5.9      0.614      2.224
REMARK  Name = 
REMARK  8 active torsions:
REMARK  status: ('A' for Active; 'I' for Inactive)
REMARK    1  A    between atoms: C_2  and  O_3
REMARK    2  A    between atoms: C_2  and  C_4
REMARK    3  A    between atoms: C_2  and  C_14
REMARK    4  A    between atoms: C_4  and  O_5
REMARK    5  A    between atoms: O_5  and  C_6
REMARK    6  A    between atoms: C_7  and  C_8
REMARK    7  A    between atoms: C_11  and  C_12
REMARK    8  A    between atoms: C_14  and  N_15
REMARK                            x       y       z     vdW  Elec       q    Type
REMARK                         _______ _______ _______ _____ _____    ______ ____
ROOT
ATOM      1  C   UNL     1      10.234  -1.736  22.969  0.00  0.00    +0.166 C 
ENDROOT
BRANCH   1   2
ATOM      2  O   UNL     1      10.140  -1.685  21.540  0.00  0.00    -0.387 OA
ATOM      3  H   UNL     1      11.010  -1.378  21.218  0.00  0.00    +0.210 HD
ENDBRANCH   1   2
BRANCH   1   4
ATOM      4  C   UNL     1      10.299  -0.274  23.505  0.00  0.00    +0.119 C 
BRANCH   4   5
ATOM      5  N   UNL     1       9.396   0.689  22.841  0.00  0.00    -0.295 NA
ATOM      6  C   UNL     1      10.133   1.842  22.275  0.00  0.00    +0.112 C 
ATOM      7  C   UNL     1      10.598   2.867  23.325  0.00  0.00    +0.175 C 
ATOM      8  O   UNL     1       9.502   3.332  24.121  0.00  0.00    -0.377 OA
ATOM      9  C   UNL     1       8.839   2.235  24.761  0.00  0.00    +0.175 C 
ATOM     10  C   UNL     1       8.337   1.212  23.730  0.00  0.00    +0.112 C 
ENDBRANCH   4   5
ENDBRANCH   1   4
BRANCH   1  11
ATOM     11  C   UNL     1       9.003  -2.431  23.563  0.00  0.00    +0.261 C 
BRANCH  11  12
ATOM     12  O   UNL     1       9.141  -3.830  23.773  0.00  0.00    -0.489 OA
BRANCH  12  13
ATOM     13  C   UNL     1       7.979  -4.504  24.107  0.00  0.00    +0.124 A 
ATOM     14  C   UNL     1       7.775  -4.522  25.508  0.00  0.00    +0.049 A 
ATOM     15  C   UNL     1       6.649  -5.127  26.096  0.00  0.00    -0.047 A 
ATOM     16  C   UNL     1       6.452  -5.141  27.582  0.00  0.00    +0.044 C 
ATOM     17  C   UNL     1       5.728  -5.761  25.273  0.00  0.00    +0.004 A 
ATOM     18  C   UNL     1       5.913  -5.758  23.898  0.00  0.00    +0.007 A 
ATOM     19  C   UNL     1       7.025  -5.138  23.280  0.00  0.00    -0.009 A 
ATOM     20  C   UNL     1       6.983  -5.293  21.781  0.00  0.00    +0.047 C 
ENDBRANCH  12  13
ENDBRANCH  11  12
ENDBRANCH   1  11
TORSDOF 6
ENDMDL
MODEL 4
REMARK VINA RESULT:      -5.9      2.206      7.896
REMARK  Name = 
REMARK  8 active torsions:
REMARK  status: ('A' for Active; 'I' for Inactive)
REMARK    1  A    between atoms: C_2  and  O_3
REMARK    2  A    between atoms: C_2  and  C_4
REMARK    3  A    between atoms: C_2  and  C_14
REMARK    4  A    between atoms: C_4  and  O_5
REMARK    5  A    between atoms: O_5  and  C_6
REMARK    6  A    between atoms: C_7  and  C_8
REMARK    7  A    between atoms: C_11  and  C_12
REMARK    8  A    between atoms: C_14  and  N_15
REMARK                            x       y       z     vdW  Elec       q    Type
REMARK                         _______ _______ _______ _____ _____    ______ ____
ROOT
ATOM      1  C   UNL     1       9.600  -0.011  25.156  0.00  0.00    +0.166 C 
ENDROOT
BRANCH   1   2
ATOM      2  O   UNL     1       8.783   0.665  26.120  0.00  0.00    -0.387 OA
ATOM      3  H   UNL     1       8.107   0.021  26.407  0.00  0.00    +0.210 HD
ENDBRANCH   1   2
BRANCH   1   4
ATOM      4  C   UNL     1       8.670  -0.575  24.040  0.00  0.00    +0.119 C 
BRANCH   4   5
ATOM      5  N   UNL     1       9.285  -1.580  23.147  0.00  0.00    -0.295 NA
ATOM      6  C   UNL     1       8.293  -2.190  22.232  0.00  0.00    +0.112 C 
ATOM      7  C   UNL     1       7.369  -3.222  22.904  0.00  0.00    +0.175 C 
ATOM      8  O   UNL     1       8.124  -4.248  23.559  0.00  0.00    -0.377 OA
ATOM      9  C   UNL     1       9.017  -3.681  24.527  0.00  0.00    +0.175 C 
ATOM     10  C   UNL     1       9.972  -2.670  23.873  0.00  0.00    +0.112 C 
ENDBRANCH   4   5
ENDBRANCH   1   4
BRANCH   1  11
ATOM     11  C   UNL     1      10.602   0.963  24.525  0.00  0.00    +0.261 C 
BRANCH  11  12
ATOM     12  O   UNL     1      10.077   1.789  23.494  0.00  0.00    -0.489 OA
BRANCH  12  13
ATOM     13  C   UNL     1      10.189   3.153  23.702  0.00  0.00    +0.124 A 
ATOM     14  C   UNL     1      11.446   3.641  23.272  0.00  0.00    +0.049 A 
ATOM     15  C   UNL     1      11.792   5.002  23.356  0.00  0.00    -0.047 A 
ATOM     16  C   UNL     1      13.130   5.502  22.898  0.00  0.00    +0.044 C 
ATOM     17  C   UNL     1      10.883   5.887  23.917  0.00  0.00    +0.004 A 
ATOM     18  C   UNL     1       9.647   5.427  24.350  0.00  0.00    +0.007 A 
ATOM     19  C   UNL     1       9.265   4.067  24.257  0.00  0.00    -0.009 A 
ATOM     20  C   UNL     1       7.881   3.841  24.807  0.00  0.00    +0.047 C 
ENDBRANCH  12  13
ENDBRANCH  11  12
ENDBRANCH   1  11
TORSDOF 6
ENDMDL
MODEL 5
REMARK VINA RESULT:      -5.7      2.845      6.939
REMARK  Name = 
REMARK  8 active torsions:
REMARK  status: ('A' for Active; 'I' for Inactive)
REMARK    1  A    between atoms: C_2  and  O_3
REMARK    2  A    between atoms: C_2  and  C_4
REMARK    3  A    between atoms: C_2  and  C_14
REMARK    4  A    between atoms: C_4  and  O_5
REMARK    5  A    between atoms: O_5  and  C_6
REMARK    6  A    between atoms: C_7  and  C_8
REMARK    7  A    between atoms: C_11  and  C_12
REMARK    8  A    between atoms: C_14  and  N_15
REMARK                            x       y       z     vdW  Elec       q    Type
REMARK                         _______ _______ _______ _____ _____    ______ ____
ROOT
ATOM      1  C   UNL     1       5.232  -3.205  23.428  0.00  0.00    +0.166 C 
ENDROOT
BRANCH   1   2
ATOM      2  O   UNL     1       4.926  -4.386  22.676  0.00  0.00    -0.387 OA
ATOM      3  H   UNL     1       4.605  -4.081  21.805  0.00  0.00    +0.210 HD
ENDBRANCH   1   2
BRANCH   1   4
ATOM      4  C   UNL     1       5.870  -3.641  24.781  0.00  0.00    +0.119 C 
BRANCH   4   5
ATOM      5  N   UNL     1       6.441  -5.004  24.806  0.00  0.00    -0.295 NA
ATOM      6  C   UNL     1       5.772  -5.867  25.806  0.00  0.00    +0.112 C 
ATOM      7  C   UNL     1       6.178  -5.575  27.261  0.00  0.00    +0.175 C 
ATOM      8  O   UNL     1       7.598  -5.644  27.430  0.00  0.00    -0.377 OA
ATOM      9  C   UNL     1       8.259  -4.736  26.541  0.00  0.00    +0.175 C 
ATOM     10  C   UNL     1       7.895  -5.028  25.077  0.00  0.00    +0.112 C 
ENDBRANCH   4   5
ENDBRANCH   1   4
BRANCH   1  11
ATOM     11  C   UNL     1       6.232  -2.327  22.665  0.00  0.00    +0.261 C 
BRANCH  11  12
ATOM     12  O   UNL     1       7.216  -1.691  23.469  0.00  0.00    -0.489 OA
BRANCH  12  13
ATOM     13  C   UNL     1       7.869  -0.620  22.883  0.00  0.00    +0.124 A 
ATOM     14  C   UNL     1       7.024   0.511  22.783  0.00  0.00    +0.049 A 
ATOM     15  C   UNL     1       7.465   1.733  22.244  0.00  0.00    -0.047 A 
ATOM     16  C   UNL     1       6.555   2.921  22.141  0.00  0.00    +0.044 C 
ATOM     17  C   UNL     1       8.763   1.817  21.758  0.00  0.00    +0.004 A 
ATOM     18  C   UNL     1       9.605   0.717  21.842  0.00  0.00    +0.007 A 
ATOM     19  C   UNL     1       9.193  -0.517  22.400  0.00  0.00    -0.009 A 
ATOM     20  C   UNL     1      10.299  -1.540  22.358  0.00  0.00    +0.047 C 
ENDBRANCH  12  13
ENDBRANCH  11  12
ENDBRANCH   1  11
TORSDOF 6
ENDMDL
MODEL 6
REMARK VINA RESULT:      -5.7      2.528      6.786
REMARK  Name = 
REMARK  8 active torsions:
REMARK  status: ('A' for Active; 'I' for Inactive)
REMARK    1  A    between atoms: C_2  and  O_3
REMARK    2  A    between atoms: C_2  and  C_4
REMARK    3  A    between atoms: C_2  and  C_14
REMARK    4  A    between atoms: C_4  and  O_5
REMARK    5  A    between atoms: O_5  and  C_6
REMARK    6  A    between atoms: C_7  and  C_8
REMARK    7  A    between atoms: C_11  and  C_12
REMARK    8  A    between atoms: C_14  and  N_15
REMARK                            x       y       z     vdW  Elec       q    Type
REMARK                         _______ _______ _______ _____ _____    ______ ____
ROOT
ATOM      1  C   UNL     1       7.241  -1.534  26.697  0.00  0.00    +0.166 C 
ENDROOT
BRANCH   1   2
ATOM      2  O   UNL     1       6.026  -1.070  27.296  0.00  0.00    -0.387 OA
ATOM      3  H   UNL     1       5.373  -0.998  26.573  0.00  0.00    +0.210 HD
ENDBRANCH   1   2
BRANCH   1   4
ATOM      4  C   UNL     1       6.881  -2.634  25.653  0.00  0.00    +0.119 C 
BRANCH   4   5
ATOM      5  N   UNL     1       7.143  -4.025  26.078  0.00  0.00    -0.295 NA
ATOM      6  C   UNL     1       8.577  -4.256  26.367  0.00  0.00    +0.112 C 
ATOM      7  C   UNL     1       9.459  -4.379  25.111  0.00  0.00    +0.175 C 
ATOM      8  O   UNL     1       8.970  -5.395  24.228  0.00  0.00    -0.377 OA
ATOM      9  C   UNL     1       7.612  -5.130  23.853  0.00  0.00    +0.175 C 
ATOM     10  C   UNL     1       6.704  -5.034  25.090  0.00  0.00    +0.112 C 
ENDBRANCH   4   5
ENDBRANCH   1   4
BRANCH   1  11
ATOM     11  C   UNL     1       7.961  -0.384  25.982  0.00  0.00    +0.261 C 
BRANCH  11  12
ATOM     12  O   UNL     1       9.172  -0.741  25.329  0.00  0.00    -0.489 OA
BRANCH  12  13
ATOM     13  C   UNL     1       9.415  -0.103  24.124  0.00  0.00    +0.124 A 
ATOM     14  C   UNL     1       9.914   1.206  24.324  0.00  0.00    +0.049 A 
ATOM     15  C   UNL     1      10.261   2.049  23.252  0.00  0.00    -0.047 A 
ATOM     16  C   UNL     1      10.784   3.436  23.481  0.00  0.00    +0.044 C 
ATOM     17  C   UNL     1      10.068   1.593  21.956  0.00  0.00    +0.004 A 
ATOM     18  C   UNL     1       9.574   0.314  21.740  0.00  0.00    +0.007 A 
ATOM     19  C   UNL     1       9.239  -0.563  22.800  0.00  0.00    -0.009 A 
ATOM     20  C   UNL     1       8.719  -1.881  22.286  0.00  0.00    +0.047 C 
ENDBRANCH  12  13
ENDBRANCH  11  12
ENDBRANCH   1  11
TORSDOF 6
ENDMDL
MODEL 7
REMARK VINA RESULT:      -5.5      1.343      2.735
REMARK  Name = 
REMARK  8 active torsions:
REMARK  status: ('A' for Active; 'I' for Inactive)
REMARK    1  A    between atoms: C_2  and  O_3
REMARK    2  A    between atoms: C_2  and  C_4
REMARK    3  A    between atoms: C_2  and  C_14
REMARK    4  A    between atoms: C_4  and  O_5
REMARK    5  A    between atoms: O_5  and  C_6
REMARK    6  A    between atoms: C_7  and  C_8
REMARK    7  A    between atoms: C_11  and  C_12
REMARK    8  A    between atoms: C_14  and  N_15
REMARK                            x       y       z     vdW  Elec       q    Type
REMARK                         _______ _______ _______ _____ _____    ______ ____
ROOT
ATOM      1  C   UNL     1       8.917  -2.269  23.644  0.00  0.00    +0.166 C 
ENDROOT
BRANCH   1   2
ATOM      2  O   UNL     1      10.240  -2.804  23.767  0.00  0.00    -0.387 OA
ATOM      3  H   UNL     1      10.718  -2.544  22.956  0.00  0.00    +0.210 HD
ENDBRANCH   1   2
BRANCH   1   4
ATOM      4  C   UNL     1       8.978  -1.030  22.701  0.00  0.00    +0.119 C 
BRANCH   4   5
ATOM      5  N   UNL     1       8.510   0.242  23.291  0.00  0.00    -0.295 NA
ATOM      6  C   UNL     1       8.647   1.374  22.346  0.00  0.00    +0.112 C 
ATOM      7  C   UNL     1      10.091   1.880  22.176  0.00  0.00    +0.175 C 
ATOM      8  O   UNL     1      10.674   2.225  23.438  0.00  0.00    -0.377 OA
ATOM      9  C   UNL     1      10.645   1.106  24.333  0.00  0.00    +0.175 C 
ATOM     10  C   UNL     1       9.209   0.601  24.544  0.00  0.00    +0.112 C 
ENDBRANCH   4   5
ENDBRANCH   1   4
BRANCH   1  11
ATOM     11  C   UNL     1       7.971  -3.312  23.037  0.00  0.00    +0.261 C 
BRANCH  11  12
ATOM     12  O   UNL     1       8.139  -4.638  23.524  0.00  0.00    -0.489 OA
BRANCH  12  13
ATOM     13  C   UNL     1       7.039  -5.186  24.162  0.00  0.00    +0.124 A 
ATOM     14  C   UNL     1       7.204  -5.189  25.567  0.00  0.00    +0.049 A 
ATOM     15  C   UNL     1       6.212  -5.674  26.439  0.00  0.00    -0.047 A 
ATOM     16  C   UNL     1       6.405  -5.673  27.927  0.00  0.00    +0.044 C 
ATOM     17  C   UNL     1       5.049  -6.203  25.897  0.00  0.00    +0.004 A 
ATOM     18  C   UNL     1       4.871  -6.214  24.520  0.00  0.00    +0.007 A 
ATOM     19  C   UNL     1       5.843  -5.712  23.622  0.00  0.00    -0.009 A 
ATOM     20  C   UNL     1       5.400  -5.854  22.189  0.00  0.00    +0.047 C 
ENDBRANCH  12  13
ENDBRANCH  11  12
ENDBRANCH   1  11
TORSDOF 6
ENDMDL
MODEL 8
REMARK VINA RESULT:      -5.5      1.734      2.994
REMARK  Name = 
REMARK  8 active torsions:
REMARK  status: ('A' for Active; 'I' for Inactive)
REMARK    1  A    between atoms: C_2  and  O_3
REMARK    2  A    between atoms: C_2  and  C_4
REMARK    3  A    between atoms: C_2  and  C_14
REMARK    4  A    between atoms: C_4  and  O_5
REMARK    5  A    between atoms: O_5  and  C_6
REMARK    6  A    between atoms: C_7  and  C_8
REMARK    7  A    between atoms: C_11  and  C_12
REMARK    8  A    between atoms: C_14  and  N_15
REMARK                            x       y       z     vdW  Elec       q    Type
REMARK                         _______ _______ _______ _____ _____    ______ ____
ROOT
ATOM      1  C   UNL     1       7.996  -2.055  24.370  0.00  0.00    +0.166 C 
ENDROOT
BRANCH   1   2
ATOM      2  O   UNL     1       6.609  -1.728  24.521  0.00  0.00    -0.387 OA
ATOM      3  H   UNL     1       6.123  -2.575  24.494  0.00  0.00    +0.210 HD
ENDBRANCH   1   2
BRANCH   1   4
ATOM      4  C   UNL     1       8.835  -0.786  24.706  0.00  0.00    +0.119 C 
BRANCH   4   5
ATOM      5  N   UNL     1      10.161  -0.709  24.057  0.00  0.00    -0.295 NA
ATOM      6  C   UNL     1      10.780   0.627  24.216  0.00  0.00    +0.112 C 
ATOM      7  C   UNL     1      10.173   1.713  23.310  0.00  0.00    +0.175 C 
ATOM      8  O   UNL     1      10.208   1.321  21.933  0.00  0.00    -0.377 OA
ATOM      9  C   UNL     1       9.520   0.078  21.742  0.00  0.00    +0.175 C 
ATOM     10  C   UNL     1      10.128  -1.031  22.614  0.00  0.00    +0.112 C 
ENDBRANCH   4   5
ENDBRANCH   1   4
BRANCH   1  11
ATOM     11  C   UNL     1       8.390  -3.183  25.330  0.00  0.00    +0.261 C 
BRANCH  11  12
ATOM     12  O   UNL     1       8.486  -4.474  24.741  0.00  0.00    -0.489 OA
BRANCH  12  13
ATOM     13  C   UNL     1       7.283  -5.121  24.515  0.00  0.00    +0.124 A 
ATOM     14  C   UNL     1       6.660  -5.496  25.729  0.00  0.00    +0.049 A 
ATOM     15  C   UNL     1       5.413  -6.147  25.763  0.00  0.00    -0.047 A 
ATOM     16  C   UNL     1       4.769  -6.541  27.059  0.00  0.00    +0.044 C 
ATOM     17  C   UNL     1       4.795  -6.466  24.563  0.00  0.00    +0.004 A 
ATOM     18  C   UNL     1       5.393  -6.112  23.362  0.00  0.00    +0.007 A 
ATOM     19  C   UNL     1       6.635  -5.436  23.299  0.00  0.00    -0.009 A 
ATOM     20  C   UNL     1       7.057  -5.183  21.875  0.00  0.00    +0.047 C 
ENDBRANCH  12  13
ENDBRANCH  11  12
ENDBRANCH   1  11
TORSDOF 6
ENDMDL
MODEL 9
REMARK VINA RESULT:      -5.4      2.311      6.823
REMARK  Name = 
REMARK  8 active torsions:
REMARK  status: ('A' for Active; 'I' for Inactive)
REMARK    1  A    between atoms: C_2  and  O_3
REMARK    2  A    between atoms: C_2  and  C_4
REMARK    3  A    between atoms: C_2  and  C_14
REMARK    4  A    between atoms: C_4  and  O_5
REMARK    5  A    between atoms: O_5  and  C_6
REMARK    6  A    between atoms: C_7  and  C_8
REMARK    7  A    between atoms: C_11  and  C_12
REMARK    8  A    between atoms: C_14  and  N_15
REMARK                            x       y       z     vdW  Elec       q    Type
REMARK                         _______ _______ _______ _____ _____    ______ ____
ROOT
ATOM      1  C   UNL     1       8.942  -3.280  25.074  0.00  0.00    +0.166 C 
ENDROOT
BRANCH   1   2
ATOM      2  O   UNL     1       8.093  -3.678  26.157  0.00  0.00    -0.387 OA
ATOM      3  H   UNL     1       7.222  -3.880  25.763  0.00  0.00    +0.210 HD
ENDBRANCH   1   2
BRANCH   1   4
ATOM      4  C   UNL     1       8.224  -3.635  23.736  0.00  0.00    +0.119 C 
BRANCH   4   5
ATOM      5  N   UNL     1       6.879  -4.232  23.875  0.00  0.00    -0.295 NA
ATOM      6  C   UNL     1       6.747  -5.485  23.097  0.00  0.00    +0.112 C 
ATOM      7  C   UNL     1       6.593  -5.271  21.580  0.00  0.00    +0.175 C 
ATOM      8  O   UNL     1       5.498  -4.396  21.286  0.00  0.00    -0.377 OA
ATOM      9  C   UNL     1       5.663  -3.136  21.948  0.00  0.00    +0.175 C 
ATOM     10  C   UNL     1       5.787  -3.321  23.469  0.00  0.00    +0.112 C 
ENDBRANCH   4   5
ENDBRANCH   1   4
BRANCH   1  11
ATOM     11  C   UNL     1       9.197  -1.769  25.118  0.00  0.00    +0.261 C 
BRANCH  11  12
ATOM     12  O   UNL     1       8.240  -0.973  24.431  0.00  0.00    -0.489 OA
BRANCH  12  13
ATOM     13  C   UNL     1       8.749   0.110  23.735  0.00  0.00    +0.124 A 
ATOM     14  C   UNL     1       8.559   1.318  24.446  0.00  0.00    +0.049 A 
ATOM     15  C   UNL     1       9.013   2.557  23.957  0.00  0.00    -0.047 A 
ATOM     16  C   UNL     1       8.799   3.830  24.721  0.00  0.00    +0.044 C 
ATOM     17  C   UNL     1       9.633   2.596  22.716  0.00  0.00    +0.004 A 
ATOM     18  C   UNL     1       9.823   1.422  22.001  0.00  0.00    +0.007 A 
ATOM     19  C   UNL     1       9.397   0.161  22.480  0.00  0.00    -0.009 A 
ATOM     20  C   UNL     1       9.720  -0.941  21.504  0.00  0.00    +0.047 C 
ENDBRANCH  12  13
ENDBRANCH  11  12
ENDBRANCH   1  11
TORSDOF 6
ENDMDL
