MODEL 1
REMARK VINA RESULT:      -7.3      0.000      0.000
REMARK  Name = 
REMARK  3 active torsions:
REMARK  status: ('A' for Active; 'I' for Inactive)
REMARK    1  A    between atoms: C_1  and  C_2
REMARK    2  A    between atoms: C_5  and  S_6
REMARK    3  A    between atoms: S_6  and  C_7
REMARK                            x       y       z     vdW  Elec       q    Type
REMARK                         _______ _______ _______ _____ _____    ______ ____
ROOT
ATOM      1  C   UNL     1       7.397  -4.338  23.983  0.00  0.00    +0.025 A 
ATOM      2  C   UNL     1       6.485  -5.288  24.549  0.00  0.00    +0.054 A 
ATOM      3  C   UNL     1       5.441  -5.992  23.915  0.00  0.00    +0.130 A 
ATOM      4  N   UNL     1       4.527  -6.722  24.573  0.00  0.00    -0.199 NA
ATOM      5  C   UNL     1       4.670  -6.804  25.892  0.00  0.00    +0.215 A 
ATOM      6  N   UNL     1       5.708  -6.332  26.574  0.00  0.00    -0.215 NA
ATOM      7  N   UNL     1       3.687  -7.461  26.600  0.00  0.00    -0.327 N 
ATOM      8  H   UNL     1       4.059  -7.816  27.469  0.00  0.00    +0.145 HD
ATOM      9  H   UNL     1       3.196  -8.107  25.999  0.00  0.00    +0.145 HD
ATOM     10  N   UNL     1       5.358  -6.106  22.528  0.00  0.00    -0.342 N 
ATOM     11  H   UNL     1       4.506  -6.597  22.280  0.00  0.00    +0.144 HD
ATOM     12  H   UNL     1       5.498  -5.232  22.035  0.00  0.00    +0.144 HD
ATOM     13  C   UNL     1       6.603  -5.600  25.908  0.00  0.00    +0.079 A 
ATOM     14  C   UNL     1       7.706  -5.139  26.617  0.00  0.00    +0.028 A 
ATOM     15  C   UNL     1       8.676  -4.330  26.030  0.00  0.00    +0.003 A 
ATOM     16  C   UNL     1       8.503  -3.903  24.722  0.00  0.00    +0.016 A 
ENDROOT
BRANCH   1  17
ATOM     17  S   UNL     1       7.201  -3.601  22.360  0.00  0.00    -0.089 S 
BRANCH  17  22
ATOM     18  C   UNL     1       9.690   1.961  22.027  0.00  0.00    +0.044 C 
ATOM     19  C   UNL     1       9.142   0.586  22.282  0.00  0.00    -0.050 A 
ATOM     20  C   UNL     1       7.898   0.423  22.900  0.00  0.00    +0.004 A 
ATOM     21  C   UNL     1       7.313  -0.849  23.010  0.00  0.00    +0.015 A 
ATOM     22  C   UNL     1       7.961  -1.980  22.501  0.00  0.00    +0.013 A 
ATOM     23  C   UNL     1       9.233  -1.816  21.936  0.00  0.00    +0.015 A 
ATOM     24  C   UNL     1       9.818  -0.548  21.824  0.00  0.00    +0.004 A 
ENDBRANCH  17  22
ENDBRANCH   1  17
TORSDOF 2
ENDMDL
MODEL 2
REMARK VINA RESULT:      -7.2      1.846      2.872
REMARK  Name = 
REMARK  3 active torsions:
REMARK  status: ('A' for Active; 'I' for Inactive)
REMARK    1  A    between atoms: C_1  and  C_2
REMARK    2  A    between atoms: C_5  and  S_6
REMARK    3  A    between atoms: S_6  and  C_7
REMARK                            x       y       z     vdW  Elec       q    Type
REMARK                         _______ _______ _______ _____ _____    ______ ____
ROOT
ATOM      1  C   UNL     1       7.691  -3.341  23.920  0.00  0.00    +0.025 A 
ATOM      2  C   UNL     1       7.021  -4.217  24.836  0.00  0.00    +0.054 A 
ATOM      3  C   UNL     1       7.513  -4.785  26.028  0.00  0.00    +0.130 A 
ATOM      4  N   UNL     1       6.869  -5.739  26.721  0.00  0.00    -0.199 NA
ATOM      5  C   UNL     1       5.682  -6.112  26.255  0.00  0.00    +0.215 A 
ATOM      6  N   UNL     1       5.043  -5.526  25.247  0.00  0.00    -0.215 NA
ATOM      7  N   UNL     1       5.049  -7.159  26.887  0.00  0.00    -0.327 N 
ATOM      8  H   UNL     1       4.049  -7.100  26.749  0.00  0.00    +0.145 HD
ATOM      9  H   UNL     1       5.388  -7.252  27.833  0.00  0.00    +0.145 HD
ATOM     10  N   UNL     1       8.650  -4.297  26.670  0.00  0.00    -0.342 N 
ATOM     11  H   UNL     1       8.864  -4.882  27.471  0.00  0.00    +0.144 HD
ATOM     12  H   UNL     1       9.434  -4.133  26.049  0.00  0.00    +0.144 HD
ATOM     13  C   UNL     1       5.700  -4.587  24.562  0.00  0.00    +0.079 A 
ATOM     14  C   UNL     1       5.017  -3.951  23.533  0.00  0.00    +0.028 A 
ATOM     15  C   UNL     1       5.621  -2.990  22.728  0.00  0.00    +0.003 A 
ATOM     16  C   UNL     1       6.968  -2.710  22.900  0.00  0.00    +0.016 A 
ENDROOT
BRANCH   1  17
ATOM     17  S   UNL     1       9.453  -3.014  23.949  0.00  0.00    -0.089 S 
BRANCH  17  22
ATOM     18  C   UNL     1      10.671   2.936  23.348  0.00  0.00    +0.044 C 
ATOM     19  C   UNL     1      10.196   1.515  23.453  0.00  0.00    -0.050 A 
ATOM     20  C   UNL     1      10.122   0.708  22.312  0.00  0.00    +0.004 A 
ATOM     21  C   UNL     1       9.822  -0.660  22.421  0.00  0.00    +0.015 A 
ATOM     22  C   UNL     1       9.593  -1.244  23.672  0.00  0.00    +0.013 A 
ATOM     23  C   UNL     1       9.611  -0.417  24.803  0.00  0.00    +0.015 A 
ATOM     24  C   UNL     1       9.912   0.947  24.698  0.00  0.00    +0.004 A 
ENDBRANCH  17  22
ENDBRANCH   1  17
TORSDOF 2
ENDMDL
MODEL 3
REMARK VINA RESULT:      -7.1      1.978      3.204
REMARK  Name = 
REMARK  3 active torsions:
REMARK  status: ('A' for Active; 'I' for Inactive)
REMARK    1  A    between atoms: C_1  and  C_2
REMARK    2  A    between atoms: C_5  and  S_6
REMARK    3  A    between atoms: S_6  and  C_7
REMARK                            x       y       z     vdW  Elec       q    Type
REMARK                         _______ _______ _______ _____ _____    ______ ____
ROOT
ATOM      1  C   UNL     1       8.169  -3.306  23.463  0.00  0.00    +0.025 A 
ATOM      2  C   UNL     1       7.749  -3.885  24.705  0.00  0.00    +0.054 A 
ATOM      3  C   UNL     1       8.082  -3.492  26.017  0.00  0.00    +0.130 A 
ATOM      4  N   UNL     1       7.783  -4.213  27.110  0.00  0.00    -0.199 NA
ATOM      5  C   UNL     1       7.093  -5.331  26.913  0.00  0.00    +0.215 A 
ATOM      6  N   UNL     1       6.576  -5.710  25.749  0.00  0.00    -0.215 NA
ATOM      7  N   UNL     1       6.864  -6.140  28.005  0.00  0.00    -0.327 N 
ATOM      8  H   UNL     1       6.038  -6.703  27.858  0.00  0.00    +0.145 HD
ATOM      9  H   UNL     1       6.920  -5.600  28.857  0.00  0.00    +0.145 HD
ATOM     10  N   UNL     1       8.626  -2.241  26.301  0.00  0.00    -0.342 N 
ATOM     11  H   UNL     1       8.846  -2.184  27.290  0.00  0.00    +0.144 HD
ATOM     12  H   UNL     1       9.387  -1.974  25.687  0.00  0.00    +0.144 HD
ATOM     13  C   UNL     1       6.890  -4.990  24.670  0.00  0.00    +0.079 A 
ATOM     14  C   UNL     1       6.319  -5.367  23.461  0.00  0.00    +0.028 A 
ATOM     15  C   UNL     1       6.613  -4.712  22.268  0.00  0.00    +0.003 A 
ATOM     16  C   UNL     1       7.565  -3.703  22.265  0.00  0.00    +0.016 A 
ENDROOT
BRANCH   1  17
ATOM     17  S   UNL     1       9.489  -2.101  23.312  0.00  0.00    -0.089 S 
BRANCH  17  22
ATOM     18  C   UNL     1       6.931   3.275  21.972  0.00  0.00    +0.044 C 
ATOM     19  C   UNL     1       7.477   1.887  22.150  0.00  0.00    -0.050 A 
ATOM     20  C   UNL     1       8.650   1.499  21.494  0.00  0.00    +0.004 A 
ATOM     21  C   UNL     1       9.247   0.258  21.767  0.00  0.00    +0.015 A 
ATOM     22  C   UNL     1       8.683  -0.616  22.703  0.00  0.00    +0.013 A 
ATOM     23  C   UNL     1       7.477  -0.245  23.313  0.00  0.00    +0.015 A 
ATOM     24  C   UNL     1       6.880   0.993  23.043  0.00  0.00    +0.004 A 
ENDBRANCH  17  22
ENDBRANCH   1  17
TORSDOF 2
ENDMDL
MODEL 4
REMARK VINA RESULT:      -7.0      0.592      1.224
REMARK  Name = 
REMARK  3 active torsions:
REMARK  status: ('A' for Active; 'I' for Inactive)
REMARK    1  A    between atoms: C_1  and  C_2
REMARK    2  A    between atoms: C_5  and  S_6
REMARK    3  A    between atoms: S_6  and  C_7
REMARK                            x       y       z     vdW  Elec       q    Type
REMARK                         _______ _______ _______ _____ _____    ______ ____
ROOT
ATOM      1  C   UNL     1       7.514  -4.325  24.051  0.00  0.00    +0.025 A 
ATOM      2  C   UNL     1       6.574  -5.269  24.582  0.00  0.00    +0.054 A 
ATOM      3  C   UNL     1       5.524  -5.933  23.917  0.00  0.00    +0.130 A 
ATOM      4  N   UNL     1       4.586  -6.660  24.545  0.00  0.00    -0.199 NA
ATOM      5  C   UNL     1       4.709  -6.778  25.863  0.00  0.00    +0.215 A 
ATOM      6  N   UNL     1       5.748  -6.346  26.570  0.00  0.00    -0.215 NA
ATOM      7  N   UNL     1       3.703  -7.431  26.542  0.00  0.00    -0.327 N 
ATOM      8  H   UNL     1       4.057  -7.816  27.407  0.00  0.00    +0.145 HD
ATOM      9  H   UNL     1       3.206  -8.050  25.919  0.00  0.00    +0.145 HD
ATOM     10  N   UNL     1       5.456  -6.011  22.527  0.00  0.00    -0.342 N 
ATOM     11  H   UNL     1       4.597  -6.476  22.256  0.00  0.00    +0.144 HD
ATOM     12  H   UNL     1       5.621  -5.128  22.058  0.00  0.00    +0.144 HD
ATOM     13  C   UNL     1       6.668  -5.617  25.934  0.00  0.00    +0.079 A 
ATOM     14  C   UNL     1       7.771  -5.198  26.668  0.00  0.00    +0.028 A 
ATOM     15  C   UNL     1       8.766  -4.397  26.114  0.00  0.00    +0.003 A 
ATOM     16  C   UNL     1       8.619  -3.933  24.815  0.00  0.00    +0.016 A 
ENDROOT
BRANCH   1  17
ATOM     17  S   UNL     1       7.355  -3.544  22.446  0.00  0.00    -0.089 S 
BRANCH  17  22
ATOM     18  C   UNL     1      10.219   1.656  23.859  0.00  0.00    +0.044 C 
ATOM     19  C   UNL     1       9.471   0.457  23.350  0.00  0.00    -0.050 A 
ATOM     20  C   UNL     1      10.113  -0.485  22.539  0.00  0.00    +0.004 A 
ATOM     21  C   UNL     1       9.468  -1.680  22.181  0.00  0.00    +0.015 A 
ATOM     22  C   UNL     1       8.171  -1.954  22.630  0.00  0.00    +0.013 A 
ATOM     23  C   UNL     1       7.514  -0.980  23.392  0.00  0.00    +0.015 A 
ATOM     24  C   UNL     1       8.155   0.213  23.752  0.00  0.00    +0.004 A 
ENDBRANCH  17  22
ENDBRANCH   1  17
TORSDOF 2
ENDMDL
MODEL 5
REMARK VINA RESULT:      -6.9      2.358      2.845
REMARK  Name = 
REMARK  3 active torsions:
REMARK  status: ('A' for Active; 'I' for Inactive)
REMARK    1  A    between atoms: C_1  and  C_2
REMARK    2  A    between atoms: C_5  and  S_6
REMARK    3  A    between atoms: S_6  and  C_7
REMARK                            x       y       z     vdW  Elec       q    Type
REMARK                         _______ _______ _______ _____ _____    ______ ____
ROOT
ATOM      1  C   UNL     1       7.072  -3.402  24.917  0.00  0.00    +0.025 A 
ATOM      2  C   UNL     1       6.872  -4.096  26.156  0.00  0.00    +0.054 A 
ATOM      3  C   UNL     1       7.705  -5.048  26.775  0.00  0.00    +0.130 A 
ATOM      4  N   UNL     1       7.341  -5.775  27.844  0.00  0.00    -0.199 NA
ATOM      5  C   UNL     1       6.138  -5.525  28.351  0.00  0.00    +0.215 A 
ATOM      6  N   UNL     1       5.341  -4.535  27.961  0.00  0.00    -0.215 NA
ATOM      7  N   UNL     1       5.700  -6.327  29.381  0.00  0.00    -0.327 N 
ATOM      8  H   UNL     1       5.016  -5.838  29.941  0.00  0.00    +0.145 HD
ATOM      9  H   UNL     1       6.487  -6.744  29.858  0.00  0.00    +0.145 HD
ATOM     10  N   UNL     1       9.042  -5.212  26.415  0.00  0.00    -0.342 N 
ATOM     11  H   UNL     1       9.441  -5.984  26.937  0.00  0.00    +0.144 HD
ATOM     12  H   UNL     1       9.194  -5.259  25.414  0.00  0.00    +0.144 HD
ATOM     13  C   UNL     1       5.712  -3.827  26.892  0.00  0.00    +0.079 A 
ATOM     14  C   UNL     1       4.895  -2.771  26.510  0.00  0.00    +0.028 A 
ATOM     15  C   UNL     1       5.165  -1.997  25.384  0.00  0.00    +0.003 A 
ATOM     16  C   UNL     1       6.235  -2.335  24.569  0.00  0.00    +0.016 A 
ENDROOT
BRANCH   1  17
ATOM     17  S   UNL     1       8.327  -3.838  23.713  0.00  0.00    -0.089 S 
BRANCH  17  22
ATOM     18  C   UNL     1      10.160   1.766  22.142  0.00  0.00    +0.044 C 
ATOM     19  C   UNL     1       9.883   0.333  22.496  0.00  0.00    -0.050 A 
ATOM     20  C   UNL     1      10.139  -0.139  23.788  0.00  0.00    +0.004 A 
ATOM     21  C   UNL     1       9.747  -1.433  24.168  0.00  0.00    +0.015 A 
ATOM     22  C   UNL     1       9.091  -2.275  23.264  0.00  0.00    +0.013 A 
ATOM     23  C   UNL     1       8.891  -1.816  21.956  0.00  0.00    +0.015 A 
ATOM     24  C   UNL     1       9.279  -0.526  21.574  0.00  0.00    +0.004 A 
ENDBRANCH  17  22
ENDBRANCH   1  17
TORSDOF 2
ENDMDL
MODEL 6
REMARK VINA RESULT:      -6.8      3.375      4.511
REMARK  Name = 
REMARK  3 active torsions:
REMARK  status: ('A' for Active; 'I' for Inactive)
REMARK    1  A    between atoms: C_1  and  C_2
REMARK    2  A    between atoms: C_5  and  S_6
REMARK    3  A    between atoms: S_6  and  C_7
REMARK                            x       y       z     vdW  Elec       q    Type
REMARK                         _______ _______ _______ _____ _____    ______ ____
ROOT
ATOM      1  C   UNL     1       7.842  -0.687  24.418  0.00  0.00    +0.025 A 
ATOM      2  C   UNL     1       8.505  -1.925  24.705  0.00  0.00    +0.054 A 
ATOM      3  C   UNL     1       9.565  -2.538  24.008  0.00  0.00    +0.130 A 
ATOM      4  N   UNL     1       9.994  -3.787  24.251  0.00  0.00    -0.199 NA
ATOM      5  C   UNL     1       9.396  -4.438  25.243  0.00  0.00    +0.215 A 
ATOM      6  N   UNL     1       8.511  -3.903  26.078  0.00  0.00    -0.215 NA
ATOM      7  N   UNL     1       9.746  -5.755  25.444  0.00  0.00    -0.327 N 
ATOM      8  H   UNL     1       9.572  -6.022  26.403  0.00  0.00    +0.145 HD
ATOM      9  H   UNL     1      10.665  -5.934  25.065  0.00  0.00    +0.145 HD
ATOM     10  N   UNL     1      10.358  -1.839  23.099  0.00  0.00    -0.342 N 
ATOM     11  H   UNL     1      11.019  -2.476  22.668  0.00  0.00    +0.144 HD
ATOM     12  H   UNL     1       9.831  -1.274  22.443  0.00  0.00    +0.144 HD
ATOM     13  C   UNL     1       8.087  -2.664  25.818  0.00  0.00    +0.079 A 
ATOM     14  C   UNL     1       7.190  -2.095  26.713  0.00  0.00    +0.028 A 
ATOM     15  C   UNL     1       6.650  -0.827  26.513  0.00  0.00    +0.003 A 
ATOM     16  C   UNL     1       6.951  -0.137  25.348  0.00  0.00    +0.016 A 
ENDROOT
BRANCH   1  17
ATOM     17  S   UNL     1       8.035   0.224  22.886  0.00  0.00    -0.089 S 
BRANCH  17  22
ATOM     18  C   UNL     1      10.771   5.611  23.744  0.00  0.00    +0.044 C 
ATOM     19  C   UNL     1      10.104   4.266  23.717  0.00  0.00    -0.050 A 
ATOM     20  C   UNL     1       8.720   4.158  23.899  0.00  0.00    +0.004 A 
ATOM     21  C   UNL     1       8.069   2.926  23.729  0.00  0.00    +0.015 A 
ATOM     22  C   UNL     1       8.790   1.780  23.373  0.00  0.00    +0.013 A 
ATOM     23  C   UNL     1      10.181   1.884  23.250  0.00  0.00    +0.015 A 
ATOM     24  C   UNL     1      10.834   3.112  23.417  0.00  0.00    +0.004 A 
ENDBRANCH  17  22
ENDBRANCH   1  17
TORSDOF 2
ENDMDL
MODEL 7
REMARK VINA RESULT:      -6.7      2.498      3.323
REMARK  Name = 
REMARK  3 active torsions:
REMARK  status: ('A' for Active; 'I' for Inactive)
REMARK    1  A    between atoms: C_1  and  C_2
REMARK    2  A    between atoms: C_5  and  S_6
REMARK    3  A    between atoms: S_6  and  C_7
REMARK                            x       y       z     vdW  Elec       q    Type
REMARK                         _______ _______ _______ _____ _____    ______ ____
ROOT
ATOM      1  C   UNL     1       6.900  -3.125  25.366  0.00  0.00    +0.025 A 
ATOM      2  C   UNL     1       6.698  -4.053  24.292  0.00  0.00    +0.054 A 
ATOM      3  C   UNL     1       7.610  -4.976  23.742  0.00  0.00    +0.130 A 
ATOM      4  N   UNL     1       7.379  -5.673  22.618  0.00  0.00    -0.199 NA
ATOM      5  C   UNL     1       6.196  -5.495  22.041  0.00  0.00    +0.215 A 
ATOM      6  N   UNL     1       5.196  -4.790  22.560  0.00  0.00    -0.215 NA
ATOM      7  N   UNL     1       5.975  -6.118  20.832  0.00  0.00    -0.327 N 
ATOM      8  H   UNL     1       4.986  -6.264  20.688  0.00  0.00    +0.145 HD
ATOM      9  H   UNL     1       6.587  -6.915  20.733  0.00  0.00    +0.145 HD
ATOM     10  N   UNL     1       8.777  -5.351  24.405  0.00  0.00    -0.342 N 
ATOM     11  H   UNL     1       9.317  -5.973  23.814  0.00  0.00    +0.144 HD
ATOM     12  H   UNL     1       9.302  -4.572  24.785  0.00  0.00    +0.144 HD
ATOM     13  C   UNL     1       5.443  -4.095  23.673  0.00  0.00    +0.079 A 
ATOM     14  C   UNL     1       4.386  -3.388  24.233  0.00  0.00    +0.028 A 
ATOM     15  C   UNL     1       4.545  -2.596  25.367  0.00  0.00    +0.003 A 
ATOM     16  C   UNL     1       5.810  -2.438  25.912  0.00  0.00    +0.016 A 
ENDROOT
BRANCH   1  17
ATOM     17  S   UNL     1       8.505  -2.725  26.058  0.00  0.00    -0.089 S 
BRANCH  17  22
ATOM     18  C   UNL     1      10.028   1.574  22.003  0.00  0.00    +0.044 C 
ATOM     19  C   UNL     1       9.820   0.543  23.076  0.00  0.00    -0.050 A 
ATOM     20  C   UNL     1       9.354   0.922  24.340  0.00  0.00    +0.004 A 
ATOM     21  C   UNL     1       9.017  -0.047  25.299  0.00  0.00    +0.015 A 
ATOM     22  C   UNL     1       9.139  -1.411  25.010  0.00  0.00    +0.013 A 
ATOM     23  C   UNL     1       9.661  -1.780  23.763  0.00  0.00    +0.015 A 
ATOM     24  C   UNL     1       9.997  -0.816  22.804  0.00  0.00    +0.004 A 
ENDBRANCH  17  22
ENDBRANCH   1  17
TORSDOF 2
ENDMDL
MODEL 8
REMARK VINA RESULT:      -6.7      4.352      7.460
REMARK  Name = 
REMARK  3 active torsions:
REMARK  status: ('A' for Active; 'I' for Inactive)
REMARK    1  A    between atoms: C_1  and  C_2
REMARK    2  A    between atoms: C_5  and  S_6
REMARK    3  A    between atoms: S_6  and  C_7
REMARK                            x       y       z     vdW  Elec       q    Type
REMARK                         _______ _______ _______ _____ _____    ______ ____
ROOT
ATOM      1  C   UNL     1       9.311  -0.324  23.347  0.00  0.00    +0.025 A 
ATOM      2  C   UNL     1       8.632   0.913  23.092  0.00  0.00    +0.054 A 
ATOM      3  C   UNL     1       7.328   1.115  22.598  0.00  0.00    +0.130 A 
ATOM      4  N   UNL     1       6.851   2.312  22.221  0.00  0.00    -0.199 NA
ATOM      5  C   UNL     1       7.662   3.352  22.380  0.00  0.00    +0.215 A 
ATOM      6  N   UNL     1       8.840   3.310  22.995  0.00  0.00    -0.215 NA
ATOM      7  N   UNL     1       7.235   4.573  21.906  0.00  0.00    -0.327 N 
ATOM      8  H   UNL     1       7.690   5.323  22.408  0.00  0.00    +0.145 HD
ATOM      9  H   UNL     1       6.228   4.591  21.845  0.00  0.00    +0.145 HD
ATOM     10  N   UNL     1       6.370   0.103  22.595  0.00  0.00    -0.342 N 
ATOM     11  H   UNL     1       5.525   0.438  22.145  0.00  0.00    +0.144 HD
ATOM     12  H   UNL     1       6.710  -0.784  22.242  0.00  0.00    +0.144 HD
ATOM     13  C   UNL     1       9.306   2.111  23.354  0.00  0.00    +0.079 A 
ATOM     14  C   UNL     1      10.520   2.074  24.029  0.00  0.00    +0.028 A 
ATOM     15  C   UNL     1      11.117   0.875  24.410  0.00  0.00    +0.003 A 
ATOM     16  C   UNL     1      10.529  -0.324  24.038  0.00  0.00    +0.016 A 
ENDROOT
BRANCH   1  17
ATOM     17  S   UNL     1       8.726  -1.924  22.790  0.00  0.00    -0.089 S 
BRANCH  17  22
ATOM     18  C   UNL     1       7.104  -5.435  27.511  0.00  0.00    +0.044 C 
ATOM     19  C   UNL     1       7.608  -4.477  26.470  0.00  0.00    -0.050 A 
ATOM     20  C   UNL     1       8.824  -4.715  25.819  0.00  0.00    +0.004 A 
ATOM     21  C   UNL     1       9.231  -3.909  24.744  0.00  0.00    +0.015 A 
ATOM     22  C   UNL     1       8.429  -2.852  24.300  0.00  0.00    +0.013 A 
ATOM     23  C   UNL     1       7.242  -2.584  24.994  0.00  0.00    +0.015 A 
ATOM     24  C   UNL     1       6.832  -3.388  26.066  0.00  0.00    +0.004 A 
ENDBRANCH  17  22
ENDBRANCH   1  17
TORSDOF 2
ENDMDL
MODEL 9
REMARK VINA RESULT:      -6.7      2.924      3.330
REMARK  Name = 
REMARK  3 active torsions:
REMARK  status: ('A' for Active; 'I' for Inactive)
REMARK    1  A    between atoms: C_1  and  C_2
REMARK    2  A    between atoms: C_5  and  S_6
REMARK    3  A    between atoms: S_6  and  C_7
REMARK                            x       y       z     vdW  Elec       q    Type
REMARK                         _______ _______ _______ _____ _____    ______ ____
ROOT
ATOM      1  C   UNL     1       8.473  -2.917  24.059  0.00  0.00    +0.025 A 
ATOM      2  C   UNL     1       7.276  -2.525  24.745  0.00  0.00    +0.054 A 
ATOM      3  C   UNL     1       6.179  -1.793  24.250  0.00  0.00    +0.130 A 
ATOM      4  N   UNL     1       5.188  -1.319  25.024  0.00  0.00    -0.199 NA
ATOM      5  C   UNL     1       5.252  -1.615  26.318  0.00  0.00    +0.215 A 
ATOM      6  N   UNL     1       6.139  -2.440  26.865  0.00  0.00    -0.215 NA
ATOM      7  N   UNL     1       4.306  -1.055  27.148  0.00  0.00    -0.327 N 
ATOM      8  H   UNL     1       4.183  -1.624  27.973  0.00  0.00    +0.145 HD
ATOM      9  H   UNL     1       3.482  -0.806  26.620  0.00  0.00    +0.145 HD
ATOM     10  N   UNL     1       5.954  -1.623  22.885  0.00  0.00    -0.342 N 
ATOM     11  H   UNL     1       5.151  -1.018  22.747  0.00  0.00    +0.144 HD
ATOM     12  H   UNL     1       6.779  -1.350  22.364  0.00  0.00    +0.144 HD
ATOM     13  C   UNL     1       7.123  -2.895  26.086  0.00  0.00    +0.079 A 
ATOM     14  C   UNL     1       8.027  -3.785  26.652  0.00  0.00    +0.028 A 
ATOM     15  C   UNL     1       9.115  -4.285  25.942  0.00  0.00    +0.003 A 
ATOM     16  C   UNL     1       9.356  -3.824  24.656  0.00  0.00    +0.016 A 
ENDROOT
BRANCH   1  17
ATOM     17  S   UNL     1       8.968  -2.279  22.459  0.00  0.00    -0.089 S 
BRANCH  17  22
ATOM     18  C   UNL     1      10.526   3.519  23.554  0.00  0.00    +0.044 C 
ATOM     19  C   UNL     1      10.324   2.058  23.270  0.00  0.00    -0.050 A 
ATOM     20  C   UNL     1      10.377   1.122  24.309  0.00  0.00    +0.004 A 
ATOM     21  C   UNL     1      10.044  -0.223  24.079  0.00  0.00    +0.015 A 
ATOM     22  C   UNL     1       9.652  -0.655  22.807  0.00  0.00    +0.013 A 
ATOM     23  C   UNL     1       9.658   0.276  21.760  0.00  0.00    +0.015 A 
ATOM     24  C   UNL     1       9.988   1.619  21.987  0.00  0.00    +0.004 A 
ENDBRANCH  17  22
ENDBRANCH   1  17
TORSDOF 2
ENDMDL
