MODEL 1
REMARK VINA RESULT:      -7.0      0.000      0.000
REMARK  Name = 
REMARK  6 active torsions:
REMARK  status: ('A' for Active; 'I' for Inactive)
REMARK    1  A    between atoms: O_1  and  C_2
REMARK    2  A    between atoms: C_2  and  C_4
REMARK    3  A    between atoms: C_4  and  C_5
REMARK    4  A    between atoms: C_4  and  C_17
REMARK    5  A    between atoms: C_5  and  C_6
REMARK    6  A    between atoms: C_17  and  C_18
REMARK                            x       y       z     vdW  Elec       q    Type
REMARK                         _______ _______ _______ _____ _____    ______ ____
ROOT
ATOM      1  C   UNL     1       7.280  -4.824  25.477  0.00  0.00    +0.111 C 
ENDROOT
BRANCH   1   2
ATOM      2  C   UNL     1       8.100  -4.841  26.751  0.00  0.00    +0.309 C 
ATOM      3  O   UNL     1       8.991  -4.036  26.982  0.00  0.00    -0.251 OA
BRANCH   2   4
ATOM      4  O   UNL     1       7.833  -5.868  27.590  0.00  0.00    -0.480 OA
ATOM      5  H   UNL     1       8.355  -6.680  27.445  0.00  0.00    +0.295 HD
ENDBRANCH   2   4
ENDBRANCH   1   2
BRANCH   1   6
ATOM      6  C   UNL     1       6.216  -5.937  25.461  0.00  0.00    +0.050 C 
BRANCH   6   7
ATOM      7  C   UNL     1       4.920  -5.574  24.771  0.00  0.00    -0.047 A 
ATOM      8  C   UNL     1       4.165  -4.480  25.215  0.00  0.00    +0.003 A 
ATOM      9  C   UNL     1       2.937  -4.177  24.624  0.00  0.00    +0.000 A 
ATOM     10  C   UNL     1       2.451  -4.962  23.580  0.00  0.00    +0.000 A 
ATOM     11  C   UNL     1       3.197  -6.046  23.123  0.00  0.00    +0.000 A 
ATOM     12  C   UNL     1       4.424  -6.352  23.715  0.00  0.00    +0.003 A 
ENDBRANCH   6   7
ENDBRANCH   1   6
BRANCH   1  13
ATOM     13  C   UNL     1       8.247  -4.890  24.290  0.00  0.00    +0.111 C 
BRANCH  13  14
ATOM     14  C   UNL     1       7.869  -3.942  23.171  0.00  0.00    +0.216 C 
ATOM     15  N   UNL     1       8.394  -2.676  23.189  0.00  0.00    -0.301 N 
ATOM     16  C   UNL     1       9.352  -2.113  24.147  0.00  0.00    +0.111 C 
ATOM     17  C   UNL     1       9.362  -0.634  23.790  0.00  0.00    +0.011 C 
ATOM     18  C   UNL     1       9.194  -0.679  22.267  0.00  0.00    +0.011 C 
ATOM     19  C   UNL     1       8.933   0.715  21.722  0.00  0.00    +0.005 C 
ATOM     20  C   UNL     1      10.108   1.630  22.098  0.00  0.00    +0.000 C 
ATOM     21  C   UNL     1      10.423   1.610  23.602  0.00  0.00    +0.000 C 
ATOM     22  C   UNL     1      10.585   0.187  24.158  0.00  0.00    +0.005 C 
ATOM     23  C   UNL     1       8.106  -1.729  22.108  0.00  0.00    +0.111 C 
ATOM     24  O   UNL     1       7.087  -4.318  22.296  0.00  0.00    -0.276 OA
ENDBRANCH  13  14
ENDBRANCH   1  13
TORSDOF 6
ENDMDL
MODEL 2
REMARK VINA RESULT:      -6.9      2.932      8.318
REMARK  Name = 
REMARK  6 active torsions:
REMARK  status: ('A' for Active; 'I' for Inactive)
REMARK    1  A    between atoms: O_1  and  C_2
REMARK    2  A    between atoms: C_2  and  C_4
REMARK    3  A    between atoms: C_4  and  C_5
REMARK    4  A    between atoms: C_4  and  C_17
REMARK    5  A    between atoms: C_5  and  C_6
REMARK    6  A    between atoms: C_17  and  C_18
REMARK                            x       y       z     vdW  Elec       q    Type
REMARK                         _______ _______ _______ _____ _____    ______ ____
ROOT
ATOM      1  C   UNL     1       9.380   1.029  23.312  0.00  0.00    +0.111 C 
ENDROOT
BRANCH   1   2
ATOM      2  C   UNL     1       9.364   0.689  21.836  0.00  0.00    +0.309 C 
ATOM      3  O   UNL     1       9.835  -0.345  21.384  0.00  0.00    -0.251 OA
BRANCH   2   4
ATOM      4  O   UNL     1       8.861   1.654  21.031  0.00  0.00    -0.480 OA
ATOM      5  H   UNL     1       7.981   1.473  20.653  0.00  0.00    +0.295 HD
ENDBRANCH   2   4
ENDBRANCH   1   2
BRANCH   1   6
ATOM      6  C   UNL     1      10.657   1.792  23.714  0.00  0.00    +0.050 C 
BRANCH   6   7
ATOM      7  C   UNL     1      10.540   3.299  23.677  0.00  0.00    -0.047 A 
ATOM      8  C   UNL     1      11.660   4.089  23.385  0.00  0.00    +0.003 A 
ATOM      9  C   UNL     1      11.574   5.482  23.411  0.00  0.00    +0.000 A 
ATOM     10  C   UNL     1      10.367   6.102  23.727  0.00  0.00    +0.000 A 
ATOM     11  C   UNL     1       9.243   5.329  24.008  0.00  0.00    +0.000 A 
ATOM     12  C   UNL     1       9.328   3.935  23.985  0.00  0.00    +0.003 A 
ENDBRANCH   6   7
ENDBRANCH   1   6
BRANCH   1  13
ATOM     13  C   UNL     1       9.175  -0.270  24.099  0.00  0.00    +0.111 C 
BRANCH  13  14
ATOM     14  C   UNL     1       7.713  -0.612  24.296  0.00  0.00    +0.216 C 
ATOM     15  N   UNL     1       7.240  -1.775  23.744  0.00  0.00    -0.301 N 
ATOM     16  C   UNL     1       7.997  -2.797  23.014  0.00  0.00    +0.111 C 
ATOM     17  C   UNL     1       6.905  -3.700  22.460  0.00  0.00    +0.011 C 
ATOM     18  C   UNL     1       5.868  -3.665  23.588  0.00  0.00    +0.011 C 
ATOM     19  C   UNL     1       4.572  -4.315  23.136  0.00  0.00    +0.005 C 
ATOM     20  C   UNL     1       4.855  -5.767  22.723  0.00  0.00    +0.000 C 
ATOM     21  C   UNL     1       5.990  -5.884  21.693  0.00  0.00    +0.000 C 
ATOM     22  C   UNL     1       7.262  -5.136  22.120  0.00  0.00    +0.005 C 
ATOM     23  C   UNL     1       5.847  -2.186  23.942  0.00  0.00    +0.111 C 
ATOM     24  O   UNL     1       6.985   0.165  24.916  0.00  0.00    -0.276 OA
ENDBRANCH  13  14
ENDBRANCH   1  13
TORSDOF 6
ENDMDL
MODEL 3
REMARK VINA RESULT:      -6.7      2.290      3.927
REMARK  Name = 
REMARK  6 active torsions:
REMARK  status: ('A' for Active; 'I' for Inactive)
REMARK    1  A    between atoms: O_1  and  C_2
REMARK    2  A    between atoms: C_2  and  C_4
REMARK    3  A    between atoms: C_4  and  C_5
REMARK    4  A    between atoms: C_4  and  C_17
REMARK    5  A    between atoms: C_5  and  C_6
REMARK    6  A    between atoms: C_17  and  C_18
REMARK                            x       y       z     vdW  Elec       q    Type
REMARK                         _______ _______ _______ _____ _____    ______ ____
ROOT
ATOM      1  C   UNL     1       4.847  -5.348  23.613  0.00  0.00    +0.111 C 
ENDROOT
BRANCH   1   2
ATOM      2  C   UNL     1       3.559  -6.072  23.277  0.00  0.00    +0.309 C 
ATOM      3  O   UNL     1       2.568  -5.503  22.838  0.00  0.00    -0.251 OA
BRANCH   2   4
ATOM      4  O   UNL     1       3.548  -7.391  23.576  0.00  0.00    -0.480 OA
ATOM      5  H   UNL     1       4.411  -7.843  23.526  0.00  0.00    +0.295 HD
ENDBRANCH   2   4
ENDBRANCH   1   2
BRANCH   1   6
ATOM      6  C   UNL     1       5.310  -5.632  25.054  0.00  0.00    +0.050 C 
BRANCH   6   7
ATOM      7  C   UNL     1       6.773  -5.362  25.320  0.00  0.00    -0.047 A 
ATOM      8  C   UNL     1       7.191  -4.906  26.578  0.00  0.00    +0.003 A 
ATOM      9  C   UNL     1       8.532  -4.595  26.812  0.00  0.00    +0.000 A 
ATOM     10  C   UNL     1       9.471  -4.738  25.793  0.00  0.00    +0.000 A 
ATOM     11  C   UNL     1       9.071  -5.201  24.542  0.00  0.00    +0.000 A 
ATOM     12  C   UNL     1       7.730  -5.510  24.305  0.00  0.00    +0.003 A 
ENDBRANCH   6   7
ENDBRANCH   1   6
BRANCH   1  13
ATOM     13  C   UNL     1       4.641  -3.857  23.323  0.00  0.00    +0.111 C 
BRANCH  13  14
ATOM     14  C   UNL     1       5.688  -3.290  22.388  0.00  0.00    +0.216 C 
ATOM     15  N   UNL     1       6.651  -2.469  22.915  0.00  0.00    -0.301 N 
ATOM     16  C   UNL     1       6.845  -2.098  24.320  0.00  0.00    +0.111 C 
ATOM     17  C   UNL     1       7.898  -1.001  24.241  0.00  0.00    +0.011 C 
ATOM     18  C   UNL     1       8.770  -1.488  23.079  0.00  0.00    +0.011 C 
ATOM     19  C   UNL     1       9.753  -0.406  22.666  0.00  0.00    +0.005 C 
ATOM     20  C   UNL     1      10.633  -0.041  23.870  0.00  0.00    +0.000 C 
ATOM     21  C   UNL     1       9.815   0.321  25.120  0.00  0.00    +0.000 C 
ATOM     22  C   UNL     1       8.756  -0.737  25.466  0.00  0.00    +0.005 C 
ATOM     23  C   UNL     1       7.721  -1.929  22.071  0.00  0.00    +0.111 C 
ATOM     24  O   UNL     1       5.636  -3.556  21.186  0.00  0.00    -0.276 OA
ENDBRANCH  13  14
ENDBRANCH   1  13
TORSDOF 6
ENDMDL
MODEL 4
REMARK VINA RESULT:      -6.7      1.866      2.884
REMARK  Name = 
REMARK  6 active torsions:
REMARK  status: ('A' for Active; 'I' for Inactive)
REMARK    1  A    between atoms: O_1  and  C_2
REMARK    2  A    between atoms: C_2  and  C_4
REMARK    3  A    between atoms: C_4  and  C_5
REMARK    4  A    between atoms: C_4  and  C_17
REMARK    5  A    between atoms: C_5  and  C_6
REMARK    6  A    between atoms: C_17  and  C_18
REMARK                            x       y       z     vdW  Elec       q    Type
REMARK                         _______ _______ _______ _____ _____    ______ ____
ROOT
ATOM      1  C   UNL     1       6.420  -4.425  26.047  0.00  0.00    +0.111 C 
ENDROOT
BRANCH   1   2
ATOM      2  C   UNL     1       6.639  -5.726  26.792  0.00  0.00    +0.309 C 
ATOM      3  O   UNL     1       5.825  -6.639  26.793  0.00  0.00    -0.251 OA
BRANCH   2   4
ATOM      4  O   UNL     1       7.771  -5.780  27.531  0.00  0.00    -0.480 OA
ATOM      5  H   UNL     1       8.492  -5.188  27.245  0.00  0.00    +0.295 HD
ENDBRANCH   2   4
ENDBRANCH   1   2
BRANCH   1   6
ATOM      6  C   UNL     1       5.197  -4.493  25.114  0.00  0.00    +0.050 C 
BRANCH   6   7
ATOM      7  C   UNL     1       5.518  -4.697  23.651  0.00  0.00    -0.047 A 
ATOM      8  C   UNL     1       5.859  -5.970  23.172  0.00  0.00    +0.003 A 
ATOM      9  C   UNL     1       6.219  -6.154  21.835  0.00  0.00    +0.000 A 
ATOM     10  C   UNL     1       6.239  -5.069  20.961  0.00  0.00    +0.000 A 
ATOM     11  C   UNL     1       5.891  -3.801  21.421  0.00  0.00    +0.000 A 
ATOM     12  C   UNL     1       5.535  -3.614  22.759  0.00  0.00    +0.003 A 
ENDBRANCH   6   7
ENDBRANCH   1   6
BRANCH   1  13
ATOM     13  C   UNL     1       7.721  -4.072  25.318  0.00  0.00    +0.111 C 
BRANCH  13  14
ATOM     14  C   UNL     1       8.418  -2.865  25.911  0.00  0.00    +0.216 C 
ATOM     15  N   UNL     1       8.794  -1.854  25.065  0.00  0.00    -0.301 N 
ATOM     16  C   UNL     1       8.553  -1.752  23.622  0.00  0.00    +0.111 C 
ATOM     17  C   UNL     1       9.398  -0.552  23.219  0.00  0.00    +0.011 C 
ATOM     18  C   UNL     1       9.258   0.355  24.446  0.00  0.00    +0.011 C 
ATOM     19  C   UNL     1      10.230   1.519  24.357  0.00  0.00    +0.005 C 
ATOM     20  C   UNL     1       9.945   2.315  23.075  0.00  0.00    +0.000 C 
ATOM     21  C   UNL     1       9.928   1.434  21.816  0.00  0.00    +0.000 C 
ATOM     22  C   UNL     1       9.016   0.206  21.960  0.00  0.00    +0.005 C 
ATOM     23  C   UNL     1       9.427  -0.638  25.584  0.00  0.00    +0.111 C 
ATOM     24  O   UNL     1       8.652  -2.833  27.120  0.00  0.00    -0.276 OA
ENDBRANCH  13  14
ENDBRANCH   1  13
TORSDOF 6
ENDMDL
MODEL 5
REMARK VINA RESULT:      -6.7      1.776      3.503
REMARK  Name = 
REMARK  6 active torsions:
REMARK  status: ('A' for Active; 'I' for Inactive)
REMARK    1  A    between atoms: O_1  and  C_2
REMARK    2  A    between atoms: C_2  and  C_4
REMARK    3  A    between atoms: C_4  and  C_5
REMARK    4  A    between atoms: C_4  and  C_17
REMARK    5  A    between atoms: C_5  and  C_6
REMARK    6  A    between atoms: C_17  and  C_18
REMARK                            x       y       z     vdW  Elec       q    Type
REMARK                         _______ _______ _______ _____ _____    ______ ____
ROOT
ATOM      1  C   UNL     1       6.506  -5.138  23.147  0.00  0.00    +0.111 C 
ENDROOT
BRANCH   1   2
ATOM      2  C   UNL     1       5.807  -5.878  22.025  0.00  0.00    +0.309 C 
ATOM      3  O   UNL     1       6.265  -5.964  20.894  0.00  0.00    -0.251 OA
BRANCH   2   4
ATOM      4  O   UNL     1       4.587  -6.373  22.338  0.00  0.00    -0.480 OA
ATOM      5  H   UNL     1       4.492  -6.720  23.245  0.00  0.00    +0.295 HD
ENDBRANCH   2   4
ENDBRANCH   1   2
BRANCH   1   6
ATOM      6  C   UNL     1       5.506  -4.519  24.141  0.00  0.00    +0.050 C 
BRANCH   6   7
ATOM      7  C   UNL     1       5.540  -5.109  25.533  0.00  0.00    -0.047 A 
ATOM      8  C   UNL     1       4.918  -6.337  25.797  0.00  0.00    +0.003 A 
ATOM      9  C   UNL     1       4.891  -6.857  27.092  0.00  0.00    +0.000 A 
ATOM     10  C   UNL     1       5.489  -6.157  28.138  0.00  0.00    +0.000 A 
ATOM     11  C   UNL     1       6.120  -4.941  27.888  0.00  0.00    +0.000 A 
ATOM     12  C   UNL     1       6.145  -4.418  26.593  0.00  0.00    +0.003 A 
ENDBRANCH   6   7
ENDBRANCH   1   6
BRANCH   1  13
ATOM     13  C   UNL     1       7.453  -4.110  22.517  0.00  0.00    +0.111 C 
BRANCH  13  14
ATOM     14  C   UNL     1       8.436  -3.531  23.513  0.00  0.00    +0.216 C 
ATOM     15  N   UNL     1       8.903  -2.260  23.298  0.00  0.00    -0.301 N 
ATOM     16  C   UNL     1       8.521  -1.331  22.229  0.00  0.00    +0.111 C 
ATOM     17  C   UNL     1       9.532  -0.203  22.380  0.00  0.00    +0.011 C 
ATOM     18  C   UNL     1       9.715  -0.149  23.900  0.00  0.00    +0.011 C 
ATOM     19  C   UNL     1      10.879   0.758  24.261  0.00  0.00    +0.005 C 
ATOM     20  C   UNL     1      10.609   2.166  23.710  0.00  0.00    +0.000 C 
ATOM     21  C   UNL     1      10.275   2.166  22.210  0.00  0.00    +0.000 C 
ATOM     22  C   UNL     1       9.164   1.170  21.847  0.00  0.00    +0.005 C 
ATOM     23  C   UNL     1       9.817  -1.625  24.251  0.00  0.00    +0.111 C 
ATOM     24  O   UNL     1       8.810  -4.216  24.466  0.00  0.00    -0.276 OA
ENDBRANCH  13  14
ENDBRANCH   1  13
TORSDOF 6
ENDMDL
MODEL 6
REMARK VINA RESULT:      -6.6      2.966      8.428
REMARK  Name = 
REMARK  6 active torsions:
REMARK  status: ('A' for Active; 'I' for Inactive)
REMARK    1  A    between atoms: O_1  and  C_2
REMARK    2  A    between atoms: C_2  and  C_4
REMARK    3  A    between atoms: C_4  and  C_5
REMARK    4  A    between atoms: C_4  and  C_17
REMARK    5  A    between atoms: C_5  and  C_6
REMARK    6  A    between atoms: C_17  and  C_18
REMARK                            x       y       z     vdW  Elec       q    Type
REMARK                         _______ _______ _______ _____ _____    ______ ____
ROOT
ATOM      1  C   UNL     1       9.181   1.852  23.519  0.00  0.00    +0.111 C 
ENDROOT
BRANCH   1   2
ATOM      2  C   UNL     1       9.217   1.139  24.855  0.00  0.00    +0.309 C 
ATOM      3  O   UNL     1       8.230   1.003  25.565  0.00  0.00    -0.251 OA
BRANCH   2   4
ATOM      4  O   UNL     1      10.443   0.731  25.255  0.00  0.00    -0.480 OA
ATOM      5  H   UNL     1      11.179   1.338  25.049  0.00  0.00    +0.295 HD
ENDBRANCH   2   4
ENDBRANCH   1   2
BRANCH   1   6
ATOM      6  C   UNL     1       8.835   3.345  23.670  0.00  0.00    +0.050 C 
BRANCH   6   7
ATOM      7  C   UNL     1      10.026   4.275  23.733  0.00  0.00    -0.047 A 
ATOM      8  C   UNL     1      11.278   3.854  23.263  0.00  0.00    +0.003 A 
ATOM      9  C   UNL     1      12.395   4.684  23.376  0.00  0.00    +0.000 A 
ATOM     10  C   UNL     1      12.274   5.944  23.957  0.00  0.00    +0.000 A 
ATOM     11  C   UNL     1      11.033   6.379  24.418  0.00  0.00    +0.000 A 
ATOM     12  C   UNL     1       9.915   5.549  24.309  0.00  0.00    +0.003 A 
ENDBRANCH   6   7
ENDBRANCH   1   6
BRANCH   1  13
ATOM     13  C   UNL     1       8.214   1.093  22.603  0.00  0.00    +0.111 C 
BRANCH  13  14
ATOM     14  C   UNL     1       8.715  -0.288  22.236  0.00  0.00    +0.216 C 
ATOM     15  N   UNL     1       7.947  -1.369  22.584  0.00  0.00    -0.301 N 
ATOM     16  C   UNL     1       6.633  -1.366  23.234  0.00  0.00    +0.111 C 
ATOM     17  C   UNL     1       6.413  -2.835  23.565  0.00  0.00    +0.011 C 
ATOM     18  C   UNL     1       7.069  -3.528  22.366  0.00  0.00    +0.011 C 
ATOM     19  C   UNL     1       7.178  -5.023  22.612  0.00  0.00    +0.005 C 
ATOM     20  C   UNL     1       5.774  -5.596  22.851  0.00  0.00    +0.000 C 
ATOM     21  C   UNL     1       5.003  -4.850  23.951  0.00  0.00    +0.000 C 
ATOM     22  C   UNL     1       4.987  -3.328  23.740  0.00  0.00    +0.005 C 
ATOM     23  C   UNL     1       8.353  -2.728  22.213  0.00  0.00    +0.111 C 
ATOM     24  O   UNL     1       9.800  -0.408  21.664  0.00  0.00    -0.276 OA
ENDBRANCH  13  14
ENDBRANCH   1  13
TORSDOF 6
ENDMDL
MODEL 7
REMARK VINA RESULT:      -6.5      2.276      7.514
REMARK  Name = 
REMARK  6 active torsions:
REMARK  status: ('A' for Active; 'I' for Inactive)
REMARK    1  A    between atoms: O_1  and  C_2
REMARK    2  A    between atoms: C_2  and  C_4
REMARK    3  A    between atoms: C_4  and  C_5
REMARK    4  A    between atoms: C_4  and  C_17
REMARK    5  A    between atoms: C_5  and  C_6
REMARK    6  A    between atoms: C_17  and  C_18
REMARK                            x       y       z     vdW  Elec       q    Type
REMARK                         _______ _______ _______ _____ _____    ______ ____
ROOT
ATOM      1  C   UNL     1       9.320  -1.043  23.608  0.00  0.00    +0.111 C 
ENDROOT
BRANCH   1   2
ATOM      2  C   UNL     1       9.728  -0.874  22.159  0.00  0.00    +0.309 C 
ATOM      3  O   UNL     1       9.214  -0.051  21.412  0.00  0.00    -0.251 OA
BRANCH   2   4
ATOM      4  O   UNL     1      10.651  -1.758  21.716  0.00  0.00    -0.480 OA
ATOM      5  H   UNL     1      11.565  -1.603  22.021  0.00  0.00    +0.295 HD
ENDBRANCH   2   4
ENDBRANCH   1   2
BRANCH   1   6
ATOM      6  C   UNL     1      10.121  -0.119  24.544  0.00  0.00    +0.050 C 
BRANCH   6   7
ATOM      7  C   UNL     1       9.745   1.344  24.473  0.00  0.00    -0.047 A 
ATOM      8  C   UNL     1       8.546   1.795  25.043  0.00  0.00    +0.003 A 
ATOM      9  C   UNL     1       8.162   3.133  24.927  0.00  0.00    +0.000 A 
ATOM     10  C   UNL     1       8.973   4.035  24.243  0.00  0.00    +0.000 A 
ATOM     11  C   UNL     1      10.173   3.603  23.682  0.00  0.00    +0.000 A 
ATOM     12  C   UNL     1      10.556   2.264  23.794  0.00  0.00    +0.003 A 
ENDBRANCH   6   7
ENDBRANCH   1   6
BRANCH   1  13
ATOM     13  C   UNL     1       9.447  -2.528  23.965  0.00  0.00    +0.111 C 
BRANCH  13  14
ATOM     14  C   UNL     1       8.259  -3.347  23.503  0.00  0.00    +0.216 C 
ATOM     15  N   UNL     1       7.602  -4.115  24.429  0.00  0.00    -0.301 N 
ATOM     16  C   UNL     1       7.867  -4.209  25.869  0.00  0.00    +0.111 C 
ATOM     17  C   UNL     1       6.988  -5.374  26.301  0.00  0.00    +0.011 C 
ATOM     18  C   UNL     1       5.765  -5.197  25.395  0.00  0.00    +0.011 C 
ATOM     19  C   UNL     1       4.854  -6.409  25.491  0.00  0.00    +0.005 C 
ATOM     20  C   UNL     1       4.410  -6.589  26.950  0.00  0.00    +0.000 C 
ATOM     21  C   UNL     1       5.591  -6.631  27.933  0.00  0.00    +0.000 C 
ATOM     22  C   UNL     1       6.557  -5.450  27.755  0.00  0.00    +0.005 C 
ATOM     23  C   UNL     1       6.416  -4.890  24.056  0.00  0.00    +0.111 C 
ATOM     24  O   UNL     1       7.931  -3.324  22.315  0.00  0.00    -0.276 OA
ENDBRANCH  13  14
ENDBRANCH   1  13
TORSDOF 6
ENDMDL
MODEL 8
REMARK VINA RESULT:      -6.5      2.276      3.894
REMARK  Name = 
REMARK  6 active torsions:
REMARK  status: ('A' for Active; 'I' for Inactive)
REMARK    1  A    between atoms: O_1  and  C_2
REMARK    2  A    between atoms: C_2  and  C_4
REMARK    3  A    between atoms: C_4  and  C_5
REMARK    4  A    between atoms: C_4  and  C_17
REMARK    5  A    between atoms: C_5  and  C_6
REMARK    6  A    between atoms: C_17  and  C_18
REMARK                            x       y       z     vdW  Elec       q    Type
REMARK                         _______ _______ _______ _____ _____    ______ ____
ROOT
ATOM      1  C   UNL     1       7.453  -3.966  22.461  0.00  0.00    +0.111 C 
ENDROOT
BRANCH   1   2
ATOM      2  C   UNL     1       6.169  -3.908  21.658  0.00  0.00    +0.309 C 
ATOM      3  O   UNL     1       5.301  -3.067  21.848  0.00  0.00    -0.251 OA
BRANCH   2   4
ATOM      4  O   UNL     1       6.006  -4.909  20.763  0.00  0.00    -0.480 OA
ATOM      5  H   UNL     1       6.605  -4.890  19.993  0.00  0.00    +0.295 HD
ENDBRANCH   2   4
ENDBRANCH   1   2
BRANCH   1   6
ATOM      6  C   UNL     1       7.613  -5.311  23.194  0.00  0.00    +0.050 C 
BRANCH   6   7
ATOM      7  C   UNL     1       7.232  -5.290  24.658  0.00  0.00    -0.047 A 
ATOM      8  C   UNL     1       8.222  -5.188  25.645  0.00  0.00    +0.003 A 
ATOM      9  C   UNL     1       7.883  -5.232  26.999  0.00  0.00    +0.000 A 
ATOM     10  C   UNL     1       6.551  -5.375  27.382  0.00  0.00    +0.000 A 
ATOM     11  C   UNL     1       5.556  -5.467  26.410  0.00  0.00    +0.000 A 
ATOM     12  C   UNL     1       5.894  -5.426  25.055  0.00  0.00    +0.003 A 
ENDBRANCH   6   7
ENDBRANCH   1   6
BRANCH   1  13
ATOM     13  C   UNL     1       7.480  -2.754  23.398  0.00  0.00    +0.111 C 
BRANCH  13  14
ATOM     14  C   UNL     1       8.816  -2.041  23.396  0.00  0.00    +0.216 C 
ATOM     15  N   UNL     1       8.818  -0.670  23.359  0.00  0.00    -0.301 N 
ATOM     16  C   UNL     1       7.662   0.231  23.381  0.00  0.00    +0.111 C 
ATOM     17  C   UNL     1       8.282   1.588  23.082  0.00  0.00    +0.011 C 
ATOM     18  C   UNL     1       9.633   1.480  23.797  0.00  0.00    +0.011 C 
ATOM     19  C   UNL     1      10.527   2.649  23.421  0.00  0.00    +0.005 C 
ATOM     20  C   UNL     1       9.828   3.961  23.807  0.00  0.00    +0.000 C 
ATOM     21  C   UNL     1       8.405   4.070  23.236  0.00  0.00    +0.000 C 
ATOM     22  C   UNL     1       7.544   2.834  23.540  0.00  0.00    +0.005 C 
ATOM     23  C   UNL     1      10.077   0.079  23.406  0.00  0.00    +0.111 C 
ATOM     24  O   UNL     1       9.857  -2.701  23.401  0.00  0.00    -0.276 OA
ENDBRANCH  13  14
ENDBRANCH   1  13
TORSDOF 6
ENDMDL
MODEL 9
REMARK VINA RESULT:      -6.5      2.497      3.746
REMARK  Name = 
REMARK  6 active torsions:
REMARK  status: ('A' for Active; 'I' for Inactive)
REMARK    1  A    between atoms: O_1  and  C_2
REMARK    2  A    between atoms: C_2  and  C_4
REMARK    3  A    between atoms: C_4  and  C_5
REMARK    4  A    between atoms: C_4  and  C_17
REMARK    5  A    between atoms: C_5  and  C_6
REMARK    6  A    between atoms: C_17  and  C_18
REMARK                            x       y       z     vdW  Elec       q    Type
REMARK                         _______ _______ _______ _____ _____    ______ ____
ROOT
ATOM      1  C   UNL     1       7.306  -3.873  26.551  0.00  0.00    +0.111 C 
ENDROOT
BRANCH   1   2
ATOM      2  C   UNL     1       7.416  -5.220  27.237  0.00  0.00    +0.309 C 
ATOM      3  O   UNL     1       6.777  -5.514  28.238  0.00  0.00    -0.251 OA
BRANCH   2   4
ATOM      4  O   UNL     1       8.341  -6.057  26.712  0.00  0.00    -0.480 OA
ATOM      5  H   UNL     1       9.163  -5.635  26.398  0.00  0.00    +0.295 HD
ENDBRANCH   2   4
ENDBRANCH   1   2
BRANCH   1   6
ATOM      6  C   UNL     1       6.041  -3.108  26.984  0.00  0.00    +0.050 C 
BRANCH   6   7
ATOM      7  C   UNL     1       6.087  -1.615  26.751  0.00  0.00    -0.047 A 
ATOM      8  C   UNL     1       7.258  -0.892  27.018  0.00  0.00    +0.003 A 
ATOM      9  C   UNL     1       7.288   0.496  26.866  0.00  0.00    +0.000 A 
ATOM     10  C   UNL     1       6.149   1.177  26.442  0.00  0.00    +0.000 A 
ATOM     11  C   UNL     1       4.982   0.469  26.162  0.00  0.00    +0.000 A 
ATOM     12  C   UNL     1       4.949  -0.918  26.317  0.00  0.00    +0.003 A 
ENDBRANCH   6   7
ENDBRANCH   1   6
BRANCH   1  13
ATOM     13  C   UNL     1       7.389  -4.105  25.038  0.00  0.00    +0.111 C 
BRANCH  13  14
ATOM     14  C   UNL     1       8.649  -3.530  24.425  0.00  0.00    +0.216 C 
ATOM     15  N   UNL     1       8.563  -2.321  23.783  0.00  0.00    -0.301 N 
ATOM     16  C   UNL     1       7.389  -1.452  23.656  0.00  0.00    +0.111 C 
ATOM     17  C   UNL     1       7.850  -0.401  22.656  0.00  0.00    +0.011 C 
ATOM     18  C   UNL     1       9.328  -0.242  23.028  0.00  0.00    +0.011 C 
ATOM     19  C   UNL     1      10.049   0.594  21.984  0.00  0.00    +0.005 C 
ATOM     20  C   UNL     1       9.376   1.971  21.891  0.00  0.00    +0.000 C 
ATOM     21  C   UNL     1       7.859   1.880  21.660  0.00  0.00    +0.000 C 
ATOM     22  C   UNL     1       7.158   0.951  22.664  0.00  0.00    +0.005 C 
ATOM     23  C   UNL     1       9.756  -1.689  23.213  0.00  0.00    +0.111 C 
ATOM     24  O   UNL     1       9.702  -4.166  24.493  0.00  0.00    -0.276 OA
ENDBRANCH  13  14
ENDBRANCH   1  13
TORSDOF 6
ENDMDL
