MODEL 1
REMARK VINA RESULT:      -8.3      0.000      0.000
REMARK  Name = 
REMARK  5 active torsions:
REMARK  status: ('A' for Active; 'I' for Inactive)
REMARK    1  A    between atoms: N_2  and  C_4
REMARK    2  A    between atoms: C_8  and  N_10
REMARK    3  A    between atoms: C_15  and  C_17
REMARK    4  A    between atoms: C_21  and  C_22
REMARK    5  A    between atoms: C_22  and  N_23
REMARK                            x       y       z     vdW  Elec       q    Type
REMARK                         _______ _______ _______ _____ _____    ______ ____
ROOT
ATOM      1  N   UNL     1       9.660   1.841  24.257  0.00  0.00    -0.067 NA
ATOM      2  C   UNL     1       9.228   1.022  23.349  0.00  0.00    +0.467 C 
ATOM      3  N   UNL     1       8.920  -0.244  23.789  0.00  0.00    -0.070 NA
ATOM      4  C   UNL     1       8.936  -1.205  22.915  0.00  0.00    +0.133 C 
ATOM      5  C   UNL     1       9.304  -0.942  21.479  0.00  0.00    +0.140 C 
ATOM      6  C   UNL     1       9.160   0.502  21.150  0.00  0.00    +0.189 C 
ATOM      7  N   UNL     1       9.096   1.425  22.045  0.00  0.00    -0.079 NA
ENDROOT
BRANCH   1  10
ATOM      8  C   UNL     1      11.655   4.868  23.290  0.00  0.00    +0.277 A 
ATOM      9  C   UNL     1      11.311   3.522  23.478  0.00  0.00    +0.130 A 
ATOM     10  C   UNL     1      10.055   3.166  23.983  0.00  0.00    +0.149 A 
ATOM     11  C   UNL     1       9.180   4.201  24.344  0.00  0.00    +0.046 A 
ATOM     12  C   UNL     1       9.529   5.549  24.185  0.00  0.00    +0.010 A 
ATOM     13  C   UNL     1      10.769   5.889  23.648  0.00  0.00    +0.084 A 
BRANCH   8  15
ATOM     14  O   UNL     1      12.993   5.790  21.638  0.00  0.00    -0.576 OA
ATOM     15  N   UNL     1      12.967   5.201  22.724  0.00  0.00    +0.080 N 
ATOM     16  O   UNL     1      13.976   4.870  23.365  0.00  0.00    +0.041 OA
ENDBRANCH   8  15
ENDBRANCH   1  10
BRANCH   4  17
ATOM     17  C   UNL     1       8.553  -2.601  23.305  0.00  0.00    +0.013 A 
ATOM     18  C   UNL     1       8.914  -3.081  24.572  0.00  0.00    +0.016 A 
ATOM     19  C   UNL     1       8.421  -4.314  25.042  0.00  0.00    -0.025 A 
ATOM     20  C   UNL     1       7.609  -5.087  24.202  0.00  0.00    +0.005 A 
ATOM     21  C   UNL     1       7.298  -4.643  22.918  0.00  0.00    +0.001 A 
ATOM     22  C   UNL     1       7.763  -3.405  22.473  0.00  0.00    +0.011 A 
BRANCH  19  23
ATOM     23  C   UNL     1       8.679  -4.754  26.464  0.00  0.00    +0.180 C 
BRANCH  23  24
ATOM     24  N   UNL     1       7.436  -4.885  27.204  0.00  0.00    -0.248 N 
ATOM     25  N   UNL     1       7.185  -5.972  27.965  0.00  0.00    -0.158 NA
ATOM     26  C   UNL     1       5.981  -5.670  28.462  0.00  0.00    +0.245 A 
ATOM     27  N   UNL     1       5.472  -4.465  28.070  0.00  0.00    -0.223 NA
ATOM     28  C   UNL     1       6.412  -3.991  27.285  0.00  0.00    +0.219 A 
ENDBRANCH  23  24
ENDBRANCH  19  23
ENDBRANCH   4  17
TORSDOF 5
ENDMDL
MODEL 2
REMARK VINA RESULT:      -8.3      2.035      2.568
REMARK  Name = 
REMARK  5 active torsions:
REMARK  status: ('A' for Active; 'I' for Inactive)
REMARK    1  A    between atoms: N_2  and  C_4
REMARK    2  A    between atoms: C_8  and  N_10
REMARK    3  A    between atoms: C_15  and  C_17
REMARK    4  A    between atoms: C_21  and  C_22
REMARK    5  A    between atoms: C_22  and  N_23
REMARK                            x       y       z     vdW  Elec       q    Type
REMARK                         _______ _______ _______ _____ _____    ______ ____
ROOT
ATOM      1  N   UNL     1       9.801   1.870  24.312  0.00  0.00    -0.067 NA
ATOM      2  C   UNL     1       9.350   1.014  23.449  0.00  0.00    +0.467 C 
ATOM      3  N   UNL     1       9.069  -0.238  23.946  0.00  0.00    -0.070 NA
ATOM      4  C   UNL     1       9.067  -1.231  23.108  0.00  0.00    +0.133 C 
ATOM      5  C   UNL     1       9.388  -1.018  21.653  0.00  0.00    +0.140 C 
ATOM      6  C   UNL     1       9.218   0.411  21.275  0.00  0.00    +0.189 C 
ATOM      7  N   UNL     1       9.172   1.366  22.137  0.00  0.00    -0.079 NA
ENDROOT
BRANCH   1  10
ATOM      8  C   UNL     1      11.748   4.885  23.218  0.00  0.00    +0.277 A 
ATOM      9  C   UNL     1      11.429   3.543  23.470  0.00  0.00    +0.130 A 
ATOM     10  C   UNL     1      10.174   3.188  23.978  0.00  0.00    +0.149 A 
ATOM     11  C   UNL     1       9.273   4.221  24.276  0.00  0.00    +0.046 A 
ATOM     12  C   UNL     1       9.598   5.566  24.053  0.00  0.00    +0.010 A 
ATOM     13  C   UNL     1      10.838   5.905  23.515  0.00  0.00    +0.084 A 
BRANCH   8  15
ATOM     14  O   UNL     1      13.096   5.649  21.495  0.00  0.00    -0.576 OA
ATOM     15  N   UNL     1      13.060   5.216  22.652  0.00  0.00    +0.080 N 
ATOM     16  O   UNL     1      14.060   5.038  23.363  0.00  0.00    +0.041 OA
ENDBRANCH   8  15
ENDBRANCH   1  10
BRANCH   4  17
ATOM     17  C   UNL     1       8.711  -2.615  23.562  0.00  0.00    +0.013 A 
ATOM     18  C   UNL     1       7.711  -3.322  22.882  0.00  0.00    +0.016 A 
ATOM     19  C   UNL     1       7.473  -4.682  23.161  0.00  0.00    -0.025 A 
ATOM     20  C   UNL     1       8.211  -5.308  24.174  0.00  0.00    +0.005 A 
ATOM     21  C   UNL     1       9.164  -4.592  24.897  0.00  0.00    +0.001 A 
ATOM     22  C   UNL     1       9.416  -3.254  24.590  0.00  0.00    +0.011 A 
BRANCH  19  23
ATOM     23  C   UNL     1       6.509  -5.484  22.319  0.00  0.00    +0.180 C 
BRANCH  23  24
ATOM     24  N   UNL     1       5.209  -5.580  22.959  0.00  0.00    -0.248 N 
ATOM     25  N   UNL     1       4.243  -4.665  22.725  0.00  0.00    -0.158 NA
ATOM     26  C   UNL     1       3.246  -5.141  23.477  0.00  0.00    +0.245 A 
ATOM     27  N   UNL     1       3.522  -6.295  24.154  0.00  0.00    -0.223 NA
ATOM     28  C   UNL     1       4.762  -6.551  23.803  0.00  0.00    +0.219 A 
ENDBRANCH  23  24
ENDBRANCH  19  23
ENDBRANCH   4  17
TORSDOF 5
ENDMDL
MODEL 3
REMARK VINA RESULT:      -7.6      1.674      1.876
REMARK  Name = 
REMARK  5 active torsions:
REMARK  status: ('A' for Active; 'I' for Inactive)
REMARK    1  A    between atoms: N_2  and  C_4
REMARK    2  A    between atoms: C_8  and  N_10
REMARK    3  A    between atoms: C_15  and  C_17
REMARK    4  A    between atoms: C_21  and  C_22
REMARK    5  A    between atoms: C_22  and  N_23
REMARK                            x       y       z     vdW  Elec       q    Type
REMARK                         _______ _______ _______ _____ _____    ______ ____
ROOT
ATOM      1  N   UNL     1       7.514   1.994  23.462  0.00  0.00    -0.067 NA
ATOM      2  C   UNL     1       8.057   1.028  22.789  0.00  0.00    +0.467 C 
ATOM      3  N   UNL     1       7.705  -0.242  23.184  0.00  0.00    -0.070 NA
ATOM      4  C   UNL     1       8.523  -1.210  22.894  0.00  0.00    +0.133 C 
ATOM      5  C   UNL     1       9.818  -0.942  22.175  0.00  0.00    +0.140 C 
ATOM      6  C   UNL     1       9.776   0.371  21.477  0.00  0.00    +0.189 C 
ATOM      7  N   UNL     1       8.918   1.289  21.755  0.00  0.00    -0.079 NA
ENDROOT
BRANCH   1  10
ATOM      8  C   UNL     1       9.028   5.426  23.540  0.00  0.00    +0.277 A 
ATOM      9  C   UNL     1       8.861   4.054  23.777  0.00  0.00    +0.130 A 
ATOM     10  C   UNL     1       7.782   3.357  23.220  0.00  0.00    +0.149 A 
ATOM     11  C   UNL     1       6.852   4.087  22.467  0.00  0.00    +0.046 A 
ATOM     12  C   UNL     1       6.999   5.463  22.250  0.00  0.00    +0.010 A 
ATOM     13  C   UNL     1       8.096   6.140  22.781  0.00  0.00    +0.084 A 
BRANCH   8  15
ATOM     14  O   UNL     1      10.006   6.836  25.097  0.00  0.00    -0.576 OA
ATOM     15  N   UNL     1      10.191   6.116  24.110  0.00  0.00    +0.080 N 
ATOM     16  O   UNL     1      11.292   5.942  23.568  0.00  0.00    +0.041 OA
ENDBRANCH   8  15
ENDBRANCH   1  10
BRANCH   4  17
ATOM     17  C   UNL     1       8.181  -2.629  23.238  0.00  0.00    +0.013 A 
ATOM     18  C   UNL     1       8.629  -3.165  24.453  0.00  0.00    +0.016 A 
ATOM     19  C   UNL     1       8.182  -4.426  24.891  0.00  0.00    -0.025 A 
ATOM     20  C   UNL     1       7.326  -5.169  24.068  0.00  0.00    +0.005 A 
ATOM     21  C   UNL     1       6.927  -4.667  22.831  0.00  0.00    +0.001 A 
ATOM     22  C   UNL     1       7.349  -3.402  22.419  0.00  0.00    +0.011 A 
BRANCH  19  23
ATOM     23  C   UNL     1       8.536  -4.932  26.270  0.00  0.00    +0.180 C 
BRANCH  23  24
ATOM     24  N   UNL     1       7.365  -4.974  27.129  0.00  0.00    -0.248 N 
ATOM     25  N   UNL     1       7.139  -6.017  27.956  0.00  0.00    -0.158 NA
ATOM     26  C   UNL     1       6.004  -5.637  28.550  0.00  0.00    +0.245 A 
ATOM     27  N   UNL     1       5.515  -4.424  28.158  0.00  0.00    -0.223 NA
ATOM     28  C   UNL     1       6.396  -4.027  27.268  0.00  0.00    +0.219 A 
ENDBRANCH  23  24
ENDBRANCH  19  23
ENDBRANCH   4  17
TORSDOF 5
ENDMDL
MODEL 4
REMARK VINA RESULT:      -7.3      3.930      8.900
REMARK  Name = 
REMARK  5 active torsions:
REMARK  status: ('A' for Active; 'I' for Inactive)
REMARK    1  A    between atoms: N_2  and  C_4
REMARK    2  A    between atoms: C_8  and  N_10
REMARK    3  A    between atoms: C_15  and  C_17
REMARK    4  A    between atoms: C_21  and  C_22
REMARK    5  A    between atoms: C_22  and  N_23
REMARK                            x       y       z     vdW  Elec       q    Type
REMARK                         _______ _______ _______ _____ _____    ______ ____
ROOT
ATOM      1  N   UNL     1       8.336  -0.137  24.984  0.00  0.00    -0.067 NA
ATOM      2  C   UNL     1       9.114   0.359  24.073  0.00  0.00    +0.467 C 
ATOM      3  N   UNL     1       9.563   1.638  24.308  0.00  0.00    -0.070 NA
ATOM      4  C   UNL     1       9.934   2.343  23.282  0.00  0.00    +0.133 C 
ATOM      5  C   UNL     1       9.849   1.785  21.886  0.00  0.00    +0.140 C 
ATOM      6  C   UNL     1       9.771   0.299  21.912  0.00  0.00    +0.189 C 
ATOM      7  N   UNL     1       9.449  -0.370  22.962  0.00  0.00    -0.079 NA
ENDROOT
BRANCH   1  10
ATOM      8  C   UNL     1       7.794  -3.849  25.060  0.00  0.00    +0.277 A 
ATOM      9  C   UNL     1       8.417  -2.605  25.233  0.00  0.00    +0.130 A 
ATOM     10  C   UNL     1       7.754  -1.419  24.896  0.00  0.00    +0.149 A 
ATOM     11  C   UNL     1       6.474  -1.523  24.333  0.00  0.00    +0.046 A 
ATOM     12  C   UNL     1       5.858  -2.765  24.132  0.00  0.00    +0.010 A 
ATOM     13  C   UNL     1       6.515  -3.938  24.502  0.00  0.00    +0.084 A 
BRANCH   8  15
ATOM     14  O   UNL     1       9.585  -5.311  24.907  0.00  0.00    -0.576 OA
ATOM     15  N   UNL     1       8.506  -5.069  25.457  0.00  0.00    +0.080 N 
ATOM     16  O   UNL     1       7.982  -5.791  26.319  0.00  0.00    +0.041 OA
ENDBRANCH   8  15
ENDBRANCH   1  10
BRANCH   4  17
ATOM     17  C   UNL     1      10.492   3.722  23.463  0.00  0.00    +0.013 A 
ATOM     18  C   UNL     1       9.634   4.763  23.843  0.00  0.00    +0.016 A 
ATOM     19  C   UNL     1      10.147   6.026  24.195  0.00  0.00    -0.025 A 
ATOM     20  C   UNL     1      11.527   6.251  24.104  0.00  0.00    +0.005 A 
ATOM     21  C   UNL     1      12.378   5.238  23.666  0.00  0.00    +0.001 A 
ATOM     22  C   UNL     1      11.865   3.979  23.351  0.00  0.00    +0.011 A 
BRANCH  19  23
ATOM     23  C   UNL     1       9.240   7.095  24.759  0.00  0.00    +0.180 C 
BRANCH  23  24
ATOM     24  N   UNL     1       8.244   6.522  25.647  0.00  0.00    -0.248 N 
ATOM     25  N   UNL     1       8.580   6.052  26.867  0.00  0.00    -0.158 NA
ATOM     26  C   UNL     1       7.392   5.653  27.330  0.00  0.00    +0.245 A 
ATOM     27  N   UNL     1       6.338   5.852  26.484  0.00  0.00    -0.223 NA
ATOM     28  C   UNL     1       6.903   6.407  25.437  0.00  0.00    +0.219 A 
ENDBRANCH  23  24
ENDBRANCH  19  23
ENDBRANCH   4  17
TORSDOF 5
ENDMDL
MODEL 5
REMARK VINA RESULT:      -7.3      3.014      3.632
REMARK  Name = 
REMARK  5 active torsions:
REMARK  status: ('A' for Active; 'I' for Inactive)
REMARK    1  A    between atoms: N_2  and  C_4
REMARK    2  A    between atoms: C_8  and  N_10
REMARK    3  A    between atoms: C_15  and  C_17
REMARK    4  A    between atoms: C_21  and  C_22
REMARK    5  A    between atoms: C_22  and  N_23
REMARK                            x       y       z     vdW  Elec       q    Type
REMARK                         _______ _______ _______ _____ _____    ______ ____
ROOT
ATOM      1  N   UNL     1       8.543   2.266  24.298  0.00  0.00    -0.067 NA
ATOM      2  C   UNL     1       8.540   1.333  23.398  0.00  0.00    +0.467 C 
ATOM      3  N   UNL     1       8.358   0.053  23.869  0.00  0.00    -0.070 NA
ATOM      4  C   UNL     1       8.794  -0.926  23.134  0.00  0.00    +0.133 C 
ATOM      5  C   UNL     1       9.495  -0.662  21.828  0.00  0.00    +0.140 C 
ATOM      6  C   UNL     1       9.187   0.703  21.326  0.00  0.00    +0.189 C 
ATOM      7  N   UNL     1       8.707   1.636  22.071  0.00  0.00    -0.079 NA
ENDROOT
BRANCH   1  10
ATOM      8  C   UNL     1       8.041   5.824  23.219  0.00  0.00    +0.277 A 
ATOM      9  C   UNL     1       7.747   4.494  23.550  0.00  0.00    +0.130 A 
ATOM     10  C   UNL     1       8.749   3.629  24.004  0.00  0.00    +0.149 A 
ATOM     11  C   UNL     1      10.061   4.124  24.063  0.00  0.00    +0.046 A 
ATOM     12  C   UNL     1      10.365   5.444  23.706  0.00  0.00    +0.010 A 
ATOM     13  C   UNL     1       9.352   6.305  23.288  0.00  0.00    +0.084 A 
BRANCH   8  15
ATOM     14  O   UNL     1       6.157   7.107  23.634  0.00  0.00    -0.576 OA
ATOM     15  N   UNL     1       6.958   6.711  22.781  0.00  0.00    +0.080 N 
ATOM     16  O   UNL     1       6.903   7.009  21.578  0.00  0.00    +0.041 OA
ENDBRANCH   8  15
ENDBRANCH   1  10
BRANCH   4  17
ATOM     17  C   UNL     1       8.579  -2.350  23.551  0.00  0.00    +0.013 A 
ATOM     18  C   UNL     1       7.618  -3.121  22.882  0.00  0.00    +0.016 A 
ATOM     19  C   UNL     1       7.512  -4.504  23.121  0.00  0.00    -0.025 A 
ATOM     20  C   UNL     1       8.342  -5.095  24.083  0.00  0.00    +0.005 A 
ATOM     21  C   UNL     1       9.256  -4.321  24.796  0.00  0.00    +0.001 A 
ATOM     22  C   UNL     1       9.378  -2.956  24.529  0.00  0.00    +0.011 A 
BRANCH  19  23
ATOM     23  C   UNL     1       6.589  -5.361  22.287  0.00  0.00    +0.180 C 
BRANCH  23  24
ATOM     24  N   UNL     1       5.289  -5.502  22.920  0.00  0.00    -0.248 N 
ATOM     25  N   UNL     1       4.290  -4.628  22.673  0.00  0.00    -0.158 NA
ATOM     26  C   UNL     1       3.308  -5.136  23.424  0.00  0.00    +0.245 A 
ATOM     27  N   UNL     1       3.625  -6.272  24.112  0.00  0.00    -0.223 NA
ATOM     28  C   UNL     1       4.876  -6.482  23.771  0.00  0.00    +0.219 A 
ENDBRANCH  23  24
ENDBRANCH  19  23
ENDBRANCH   4  17
TORSDOF 5
ENDMDL
MODEL 6
REMARK VINA RESULT:      -7.3      4.276      9.300
REMARK  Name = 
REMARK  5 active torsions:
REMARK  status: ('A' for Active; 'I' for Inactive)
REMARK    1  A    between atoms: N_2  and  C_4
REMARK    2  A    between atoms: C_8  and  N_10
REMARK    3  A    between atoms: C_15  and  C_17
REMARK    4  A    between atoms: C_21  and  C_22
REMARK    5  A    between atoms: C_22  and  N_23
REMARK                            x       y       z     vdW  Elec       q    Type
REMARK                         _______ _______ _______ _____ _____    ______ ____
ROOT
ATOM      1  N   UNL     1       9.488  -1.292  23.328  0.00  0.00    -0.067 NA
ATOM      2  C   UNL     1       8.842  -0.170  23.396  0.00  0.00    +0.467 C 
ATOM      3  N   UNL     1       9.609   0.966  23.280  0.00  0.00    -0.070 NA
ATOM      4  C   UNL     1       9.137   2.065  23.785  0.00  0.00    +0.133 C 
ATOM      5  C   UNL     1       7.809   2.085  24.495  0.00  0.00    +0.140 C 
ATOM      6  C   UNL     1       6.988   0.903  24.119  0.00  0.00    +0.189 C 
ATOM      7  N   UNL     1       7.483  -0.152  23.571  0.00  0.00    -0.079 NA
ENDROOT
BRANCH   1  10
ATOM      8  C   UNL     1       7.264  -4.273  22.837  0.00  0.00    +0.277 A 
ATOM      9  C   UNL     1       7.875  -3.033  22.605  0.00  0.00    +0.130 A 
ATOM     10  C   UNL     1       8.873  -2.553  23.461  0.00  0.00    +0.149 A 
ATOM     11  C   UNL     1       9.199  -3.329  24.583  0.00  0.00    +0.046 A 
ATOM     12  C   UNL     1       8.572  -4.557  24.835  0.00  0.00    +0.010 A 
ATOM     13  C   UNL     1       7.603  -5.039  23.957  0.00  0.00    +0.084 A 
BRANCH   8  15
ATOM     14  O   UNL     1       5.717  -3.936  21.145  0.00  0.00    -0.576 OA
ATOM     15  N   UNL     1       6.248  -4.760  21.898  0.00  0.00    +0.080 N 
ATOM     16  O   UNL     1       5.973  -5.969  21.914  0.00  0.00    +0.041 OA
ENDBRANCH   8  15
ENDBRANCH   1  10
BRANCH   4  17
ATOM     17  C   UNL     1       9.886   3.356  23.645  0.00  0.00    +0.013 A 
ATOM     18  C   UNL     1       9.226   4.564  23.908  0.00  0.00    +0.016 A 
ATOM     19  C   UNL     1       9.937   5.777  23.962  0.00  0.00    -0.025 A 
ATOM     20  C   UNL     1      11.312   5.773  23.688  0.00  0.00    +0.005 A 
ATOM     21  C   UNL     1      11.962   4.584  23.364  0.00  0.00    +0.001 A 
ATOM     22  C   UNL     1      11.255   3.381  23.346  0.00  0.00    +0.011 A 
BRANCH  19  23
ATOM     23  C   UNL     1       9.256   7.051  24.404  0.00  0.00    +0.180 C 
BRANCH  23  24
ATOM     24  N   UNL     1       8.927   7.005  25.818  0.00  0.00    -0.248 N 
ATOM     25  N   UNL     1       7.660   6.804  26.237  0.00  0.00    -0.158 NA
ATOM     26  C   UNL     1       7.818   6.814  27.564  0.00  0.00    +0.245 A 
ATOM     27  N   UNL     1       9.100   6.998  27.998  0.00  0.00    -0.223 NA
ATOM     28  C   UNL     1       9.776   7.108  26.878  0.00  0.00    +0.219 A 
ENDBRANCH  23  24
ENDBRANCH  19  23
ENDBRANCH   4  17
TORSDOF 5
ENDMDL
MODEL 7
REMARK VINA RESULT:      -7.1      4.333      9.289
REMARK  Name = 
REMARK  5 active torsions:
REMARK  status: ('A' for Active; 'I' for Inactive)
REMARK    1  A    between atoms: N_2  and  C_4
REMARK    2  A    between atoms: C_8  and  N_10
REMARK    3  A    between atoms: C_15  and  C_17
REMARK    4  A    between atoms: C_21  and  C_22
REMARK    5  A    between atoms: C_22  and  N_23
REMARK                            x       y       z     vdW  Elec       q    Type
REMARK                         _______ _______ _______ _____ _____    ______ ____
ROOT
ATOM      1  N   UNL     1       7.972  -0.619  24.644  0.00  0.00    -0.067 NA
ATOM      2  C   UNL     1       8.847  -0.076  23.855  0.00  0.00    +0.467 C 
ATOM      3  N   UNL     1       9.153   1.238  24.125  0.00  0.00    -0.070 NA
ATOM      4  C   UNL     1       9.631   1.956  23.153  0.00  0.00    +0.133 C 
ATOM      5  C   UNL     1       9.814   1.374  21.777  0.00  0.00    +0.140 C 
ATOM      6  C   UNL     1       9.846  -0.112  21.828  0.00  0.00    +0.189 C 
ATOM      7  N   UNL     1       9.411  -0.791  22.832  0.00  0.00    -0.079 NA
ENDROOT
BRANCH   1  10
ATOM      8  C   UNL     1       6.157  -3.682  23.459  0.00  0.00    +0.277 A 
ATOM      9  C   UNL     1       6.619  -2.359  23.503  0.00  0.00    +0.130 A 
ATOM     10  C   UNL     1       7.512  -1.944  24.498  0.00  0.00    +0.149 A 
ATOM     11  C   UNL     1       7.882  -2.880  25.475  0.00  0.00    +0.046 A 
ATOM     12  C   UNL     1       7.401  -4.196  25.452  0.00  0.00    +0.010 A 
ATOM     13  C   UNL     1       6.539  -4.606  24.436  0.00  0.00    +0.084 A 
BRANCH   8  15
ATOM     14  O   UNL     1       5.543  -3.759  21.226  0.00  0.00    -0.576 OA
ATOM     15  N   UNL     1       5.250  -4.090  22.380  0.00  0.00    +0.080 N 
ATOM     16  O   UNL     1       4.239  -4.739  22.687  0.00  0.00    +0.041 OA
ENDBRANCH   8  15
ENDBRANCH   1  10
BRANCH   4  17
ATOM     17  C   UNL     1      10.046   3.378  23.384  0.00  0.00    +0.013 A 
ATOM     18  C   UNL     1       9.088   4.311  23.805  0.00  0.00    +0.016 A 
ATOM     19  C   UNL     1       9.471   5.606  24.204  0.00  0.00    -0.025 A 
ATOM     20  C   UNL     1      10.820   5.974  24.117  0.00  0.00    +0.005 A 
ATOM     21  C   UNL     1      11.768   5.070  23.640  0.00  0.00    +0.001 A 
ATOM     22  C   UNL     1      11.384   3.778  23.278  0.00  0.00    +0.011 A 
BRANCH  19  23
ATOM     23  C   UNL     1       8.463   6.554  24.809  0.00  0.00    +0.180 C 
BRANCH  23  24
ATOM     24  N   UNL     1       7.247   6.602  24.016  0.00  0.00    -0.248 N 
ATOM     25  N   UNL     1       7.246   7.101  22.762  0.00  0.00    -0.158 NA
ATOM     26  C   UNL     1       5.967   6.935  22.415  0.00  0.00    +0.245 A 
ATOM     27  N   UNL     1       5.174   6.356  23.364  0.00  0.00    -0.223 NA
ATOM     28  C   UNL     1       6.008   6.151  24.358  0.00  0.00    +0.219 A 
ENDBRANCH  23  24
ENDBRANCH  19  23
ENDBRANCH   4  17
TORSDOF 5
ENDMDL
MODEL 8
REMARK VINA RESULT:      -7.0      4.940      9.260
REMARK  Name = 
REMARK  5 active torsions:
REMARK  status: ('A' for Active; 'I' for Inactive)
REMARK    1  A    between atoms: N_2  and  C_4
REMARK    2  A    between atoms: C_8  and  N_10
REMARK    3  A    between atoms: C_15  and  C_17
REMARK    4  A    between atoms: C_21  and  C_22
REMARK    5  A    between atoms: C_22  and  N_23
REMARK                            x       y       z     vdW  Elec       q    Type
REMARK                         _______ _______ _______ _____ _____    ______ ____
ROOT
ATOM      1  N   UNL     1       6.395  -2.284  22.812  0.00  0.00    -0.067 NA
ATOM      2  C   UNL     1       7.526  -1.745  23.144  0.00  0.00    +0.467 C 
ATOM      3  N   UNL     1       7.549  -0.369  23.151  0.00  0.00    -0.070 NA
ATOM      4  C   UNL     1       8.702   0.214  23.015  0.00  0.00    +0.133 C 
ATOM      5  C   UNL     1       9.961  -0.591  22.830  0.00  0.00    +0.140 C 
ATOM      6  C   UNL     1       9.768  -1.992  23.290  0.00  0.00    +0.189 C 
ATOM      7  N   UNL     1       8.608  -2.522  23.465  0.00  0.00    -0.079 NA
ENDROOT
BRANCH   1  10
ATOM      8  C   UNL     1       5.590  -5.861  23.613  0.00  0.00    +0.277 A 
ATOM      9  C   UNL     1       5.702  -4.471  23.760  0.00  0.00    +0.130 A 
ATOM     10  C   UNL     1       6.196  -3.677  22.718  0.00  0.00    +0.149 A 
ATOM     11  C   UNL     1       6.622  -4.325  21.549  0.00  0.00    +0.046 A 
ATOM     12  C   UNL     1       6.538  -5.717  21.408  0.00  0.00    +0.010 A 
ATOM     13  C   UNL     1       6.013  -6.492  22.440  0.00  0.00    +0.084 A 
BRANCH   8  15
ATOM     14  O   UNL     1       4.233  -7.552  24.430  0.00  0.00    -0.576 OA
ATOM     15  N   UNL     1       5.034  -6.655  24.714  0.00  0.00    +0.080 N 
ATOM     16  O   UNL     1       5.395  -6.380  25.868  0.00  0.00    +0.041 OA
ENDBRANCH   8  15
ENDBRANCH   1  10
BRANCH   4  17
ATOM     17  C   UNL     1       8.815   1.708  23.073  0.00  0.00    +0.013 A 
ATOM     18  C   UNL     1       7.717   2.493  22.697  0.00  0.00    +0.016 A 
ATOM     19  C   UNL     1       7.721   3.885  22.907  0.00  0.00    -0.025 A 
ATOM     20  C   UNL     1       8.866   4.489  23.443  0.00  0.00    +0.005 A 
ATOM     21  C   UNL     1       9.985   3.721  23.761  0.00  0.00    +0.001 A 
ATOM     22  C   UNL     1       9.959   2.337  23.581  0.00  0.00    +0.011 A 
BRANCH  19  23
ATOM     23  C   UNL     1       6.479   4.706  22.652  0.00  0.00    +0.180 C 
BRANCH  23  24
ATOM     24  N   UNL     1       5.301   4.056  23.199  0.00  0.00    -0.248 N 
ATOM     25  N   UNL     1       5.062   4.039  24.527  0.00  0.00    -0.158 NA
ATOM     26  C   UNL     1       3.902   3.378  24.576  0.00  0.00    +0.245 A 
ATOM     27  N   UNL     1       3.397   2.993  23.367  0.00  0.00    -0.223 NA
ATOM     28  C   UNL     1       4.295   3.439  22.518  0.00  0.00    +0.219 A 
ENDBRANCH  23  24
ENDBRANCH  19  23
ENDBRANCH   4  17
TORSDOF 5
ENDMDL
MODEL 9
REMARK VINA RESULT:      -7.0      4.392      9.571
REMARK  Name = 
REMARK  5 active torsions:
REMARK  status: ('A' for Active; 'I' for Inactive)
REMARK    1  A    between atoms: N_2  and  C_4
REMARK    2  A    between atoms: C_8  and  N_10
REMARK    3  A    between atoms: C_15  and  C_17
REMARK    4  A    between atoms: C_21  and  C_22
REMARK    5  A    between atoms: C_22  and  N_23
REMARK                            x       y       z     vdW  Elec       q    Type
REMARK                         _______ _______ _______ _____ _____    ______ ____
ROOT
ATOM      1  N   UNL     1       8.317  -0.664  22.920  0.00  0.00    -0.067 NA
ATOM      2  C   UNL     1       7.442   0.180  23.371  0.00  0.00    +0.467 C 
ATOM      3  N   UNL     1       7.680   1.501  23.070  0.00  0.00    -0.070 NA
ATOM      4  C   UNL     1       7.146   2.399  23.842  0.00  0.00    +0.133 C 
ATOM      5  C   UNL     1       6.320   2.003  25.037  0.00  0.00    +0.140 C 
ATOM      6  C   UNL     1       5.841   0.601  24.910  0.00  0.00    +0.189 C 
ATOM      7  N   UNL     1       6.361  -0.250  24.096  0.00  0.00    -0.079 NA
ENDROOT
BRANCH   1  10
ATOM      8  C   UNL     1       7.372  -4.293  22.788  0.00  0.00    +0.277 A 
ATOM      9  C   UNL     1       7.427  -2.933  22.451  0.00  0.00    +0.130 A 
ATOM     10  C   UNL     1       8.254  -2.052  23.158  0.00  0.00    +0.149 A 
ATOM     11  C   UNL     1       8.980  -2.566  24.243  0.00  0.00    +0.046 A 
ATOM     12  C   UNL     1       8.907  -3.919  24.601  0.00  0.00    +0.010 A 
ATOM     13  C   UNL     1       8.106  -4.793  23.868  0.00  0.00    +0.084 A 
BRANCH   8  15
ATOM     14  O   UNL     1       6.912  -6.352  21.830  0.00  0.00    -0.576 OA
ATOM     15  N   UNL     1       6.522  -5.192  22.001  0.00  0.00    +0.080 N 
ATOM     16  O   UNL     1       5.461  -4.738  21.547  0.00  0.00    +0.041 OA
ENDBRANCH   8  15
ENDBRANCH   1  10
BRANCH   4  17
ATOM     17  C   UNL     1       7.310   3.859  23.544  0.00  0.00    +0.013 A 
ATOM     18  C   UNL     1       7.891   4.694  24.508  0.00  0.00    +0.016 A 
ATOM     19  C   UNL     1       8.224   6.027  24.200  0.00  0.00    -0.025 A 
ATOM     20  C   UNL     1       7.912   6.531  22.931  0.00  0.00    +0.005 A 
ATOM     21  C   UNL     1       7.277   5.723  21.989  0.00  0.00    +0.001 A 
ATOM     22  C   UNL     1       6.981   4.393  22.291  0.00  0.00    +0.011 A 
BRANCH  19  23
ATOM     23  C   UNL     1       8.995   6.875  25.184  0.00  0.00    +0.180 C 
BRANCH  23  24
ATOM     24  N   UNL     1      10.427   6.679  25.035  0.00  0.00    -0.248 N 
ATOM     25  N   UNL     1      10.939   6.040  23.962  0.00  0.00    -0.158 NA
ATOM     26  C   UNL     1      12.249   6.105  24.219  0.00  0.00    +0.245 A 
ATOM     27  N   UNL     1      12.586   6.752  25.374  0.00  0.00    -0.223 NA
ATOM     28  C   UNL     1      11.420   7.108  25.862  0.00  0.00    +0.219 A 
ENDBRANCH  23  24
ENDBRANCH  19  23
ENDBRANCH   4  17
TORSDOF 5
ENDMDL
