MODEL 1
REMARK VINA RESULT:      -4.0      0.000      0.000
REMARK  Name = 
REMARK  7 active torsions:
REMARK  status: ('A' for Active; 'I' for Inactive)
REMARK    1  A    between atoms: CA_2  and  N_3
REMARK    2  A    between atoms: CA_2  and  C_4
REMARK    3  A    between atoms: CA_2  and  C_7
REMARK    4  A    between atoms: C_4  and  O_5
REMARK    5  A    between atoms: C_7  and  C_8
REMARK    6  A    between atoms: C_7  and  C_9
REMARK    7  A    between atoms: C_7  and  S_10
REMARK                            x       y       z     vdW  Elec       q    Type
REMARK                         _______ _______ _______ _____ _____    ______ ____
ROOT
ATOM      1  CA  UNL     1       9.958   0.065  22.133  0.00  0.00    +0.176 C 
ENDROOT
BRANCH   1   2
ATOM      2  N   UNL     1       9.513  -0.982  21.142  0.00  0.00    -0.317 NA
ATOM      3  H1  UNL     1       9.043  -1.719  21.683  0.00  0.00    +0.119 HD
ATOM      4  H2  UNL     1       8.744  -0.587  20.587  0.00  0.00    +0.119 HD
ENDBRANCH   1   2
BRANCH   1   5
ATOM      5  C   UNL     1       9.631  -0.277  23.618  0.00  0.00    +0.033 C 
ATOM      6  C   UNL     1       8.201   0.100  24.028  0.00  0.00    +0.024 C 
ATOM      7  C   UNL     1      10.636   0.360  24.590  0.00  0.00    +0.024 C 
BRANCH   5   8
ATOM      8  S   UNL     1       9.774  -2.121  23.836  0.00  0.00    -0.170 S 
ATOM      9  H   UNL     1       8.767  -2.465  23.017  0.00  0.00    +0.102 HD
ENDBRANCH   5   8
ENDBRANCH   1   5
BRANCH   1  10
ATOM     10  C   UNL     1       9.373   1.413  21.653  0.00  0.00    +0.323 C 
ATOM     11  OXT UNL     1       8.225   1.621  21.298  0.00  0.00    -0.249 OA
BRANCH  10  12
ATOM     12  O   UNL     1      10.311   2.395  21.730  0.00  0.00    -0.480 OA
ATOM     13  H   UNL     1      10.373   2.644  22.686  0.00  0.00    +0.295 HD
ENDBRANCH  10  12
ENDBRANCH   1  10
TORSDOF 5
ENDMDL
MODEL 2
REMARK VINA RESULT:      -3.9      6.032      6.572
REMARK  Name = 
REMARK  7 active torsions:
REMARK  status: ('A' for Active; 'I' for Inactive)
REMARK    1  A    between atoms: CA_2  and  N_3
REMARK    2  A    between atoms: CA_2  and  C_4
REMARK    3  A    between atoms: CA_2  and  C_7
REMARK    4  A    between atoms: C_4  and  O_5
REMARK    5  A    between atoms: C_7  and  C_8
REMARK    6  A    between atoms: C_7  and  C_9
REMARK    7  A    between atoms: C_7  and  S_10
REMARK                            x       y       z     vdW  Elec       q    Type
REMARK                         _______ _______ _______ _____ _____    ______ ____
ROOT
ATOM      1  CA  UNL     1       8.129  -4.667  25.731  0.00  0.00    +0.176 C 
ENDROOT
BRANCH   1   2
ATOM      2  N   UNL     1       8.196  -5.779  26.749  0.00  0.00    -0.317 NA
ATOM      3  H1  UNL     1       7.836  -6.624  26.287  0.00  0.00    +0.119 HD
ATOM      4  H2  UNL     1       9.185  -6.011  26.899  0.00  0.00    +0.119 HD
ENDBRANCH   1   2
BRANCH   1   5
ATOM      5  C   UNL     1       6.937  -4.782  24.733  0.00  0.00    +0.033 C 
ATOM      6  C   UNL     1       5.776  -5.632  25.269  0.00  0.00    +0.024 C 
ATOM      7  C   UNL     1       7.383  -5.317  23.363  0.00  0.00    +0.024 C 
BRANCH   5   8
ATOM      8  S   UNL     1       6.252  -3.075  24.441  0.00  0.00    -0.170 S 
ATOM      9  H   UNL     1       7.040  -2.428  25.315  0.00  0.00    +0.102 HD
ENDBRANCH   5   8
ENDBRANCH   1   5
BRANCH   1  10
ATOM     10  C   UNL     1       9.514  -4.595  25.053  0.00  0.00    +0.323 C 
ATOM     11  OXT UNL     1       9.949  -3.672  24.384  0.00  0.00    -0.249 OA
BRANCH  10  12
ATOM     12  O   UNL     1      10.248  -5.702  25.346  0.00  0.00    -0.480 OA
ATOM     13  H   UNL     1       9.835  -6.449  24.843  0.00  0.00    +0.295 HD
ENDBRANCH  10  12
ENDBRANCH   1  10
TORSDOF 5
ENDMDL
MODEL 3
REMARK VINA RESULT:      -3.9      6.037      6.666
REMARK  Name = 
REMARK  7 active torsions:
REMARK  status: ('A' for Active; 'I' for Inactive)
REMARK    1  A    between atoms: CA_2  and  N_3
REMARK    2  A    between atoms: CA_2  and  C_4
REMARK    3  A    between atoms: CA_2  and  C_7
REMARK    4  A    between atoms: C_4  and  O_5
REMARK    5  A    between atoms: C_7  and  C_8
REMARK    6  A    between atoms: C_7  and  C_9
REMARK    7  A    between atoms: C_7  and  S_10
REMARK                            x       y       z     vdW  Elec       q    Type
REMARK                         _______ _______ _______ _____ _____    ______ ____
ROOT
ATOM      1  CA  UNL     1       8.665  -5.341  25.180  0.00  0.00    +0.176 C 
ENDROOT
BRANCH   1   2
ATOM      2  N   UNL     1      10.133  -5.208  24.858  0.00  0.00    -0.317 NA
ATOM      3  H1  UNL     1      10.192  -4.821  23.907  0.00  0.00    +0.119 HD
ATOM      4  H2  UNL     1      10.515  -4.448  25.433  0.00  0.00    +0.119 HD
ENDBRANCH   1   2
BRANCH   1   5
ATOM      5  C   UNL     1       7.717  -4.667  24.141  0.00  0.00    +0.033 C 
ATOM      6  C   UNL     1       6.333  -4.330  24.712  0.00  0.00    +0.024 C 
ATOM      7  C   UNL     1       7.563  -5.513  22.868  0.00  0.00    +0.024 C 
BRANCH   5   8
ATOM      8  S   UNL     1       8.481  -3.051  23.618  0.00  0.00    -0.170 S 
ATOM      9  H   UNL     1       7.603  -2.759  22.644  0.00  0.00    +0.102 HD
ENDBRANCH   5   8
ENDBRANCH   1   5
BRANCH   1  10
ATOM     10  C   UNL     1       8.475  -4.836  26.627  0.00  0.00    +0.323 C 
ATOM     11  OXT UNL     1       8.707  -3.712  27.040  0.00  0.00    -0.249 OA
BRANCH  10  12
ATOM     12  O   UNL     1       7.943  -5.813  27.409  0.00  0.00    -0.480 OA
ATOM     13  H   UNL     1       8.109  -5.539  28.346  0.00  0.00    +0.295 HD
ENDBRANCH  10  12
ENDBRANCH   1  10
TORSDOF 5
ENDMDL
MODEL 4
REMARK VINA RESULT:      -3.8      1.142      1.565
REMARK  Name = 
REMARK  7 active torsions:
REMARK  status: ('A' for Active; 'I' for Inactive)
REMARK    1  A    between atoms: CA_2  and  N_3
REMARK    2  A    between atoms: CA_2  and  C_4
REMARK    3  A    between atoms: CA_2  and  C_7
REMARK    4  A    between atoms: C_4  and  O_5
REMARK    5  A    between atoms: C_7  and  C_8
REMARK    6  A    between atoms: C_7  and  C_9
REMARK    7  A    between atoms: C_7  and  S_10
REMARK                            x       y       z     vdW  Elec       q    Type
REMARK                         _______ _______ _______ _____ _____    ______ ____
ROOT
ATOM      1  CA  UNL     1       9.941   0.014  22.091  0.00  0.00    +0.176 C 
ENDROOT
BRANCH   1   2
ATOM      2  N   UNL     1       9.509  -1.025  21.086  0.00  0.00    -0.317 NA
ATOM      3  H1  UNL     1       8.678  -1.486  21.476  0.00  0.00    +0.119 HD
ATOM      4  H2  UNL     1       9.129  -0.534  20.268  0.00  0.00    +0.119 HD
ENDBRANCH   1   2
BRANCH   1   5
ATOM      5  C   UNL     1       9.617  -0.353  23.571  0.00  0.00    +0.033 C 
ATOM      6  C   UNL     1       9.834  -1.839  23.890  0.00  0.00    +0.024 C 
ATOM      7  C   UNL     1       8.192   0.061  23.969  0.00  0.00    +0.024 C 
BRANCH   5   8
ATOM      8  S   UNL     1      10.776   0.598  24.676  0.00  0.00    -0.170 S 
ATOM      9  H   UNL     1      11.306   1.384  23.724  0.00  0.00    +0.102 HD
ENDBRANCH   5   8
ENDBRANCH   1   5
BRANCH   1  10
ATOM     10  C   UNL     1       9.341   1.361  21.631  0.00  0.00    +0.323 C 
ATOM     11  OXT UNL     1       8.184   1.567  21.301  0.00  0.00    -0.249 OA
BRANCH  10  12
ATOM     12  O   UNL     1      10.277   2.346  21.690  0.00  0.00    -0.480 OA
ATOM     13  H   UNL     1      11.064   1.953  22.147  0.00  0.00    +0.295 HD
ENDBRANCH  10  12
ENDBRANCH   1  10
TORSDOF 5
ENDMDL
MODEL 5
REMARK VINA RESULT:      -3.8      5.611      6.196
REMARK  Name = 
REMARK  7 active torsions:
REMARK  status: ('A' for Active; 'I' for Inactive)
REMARK    1  A    between atoms: CA_2  and  N_3
REMARK    2  A    between atoms: CA_2  and  C_4
REMARK    3  A    between atoms: CA_2  and  C_7
REMARK    4  A    between atoms: C_4  and  O_5
REMARK    5  A    between atoms: C_7  and  C_8
REMARK    6  A    between atoms: C_7  and  C_9
REMARK    7  A    between atoms: C_7  and  S_10
REMARK                            x       y       z     vdW  Elec       q    Type
REMARK                         _______ _______ _______ _____ _____    ______ ____
ROOT
ATOM      1  CA  UNL     1       8.663  -4.773  24.754  0.00  0.00    +0.176 C 
ENDROOT
BRANCH   1   2
ATOM      2  N   UNL     1      10.032  -5.343  25.034  0.00  0.00    -0.317 NA
ATOM      3  H1  UNL     1      10.525  -5.381  24.133  0.00  0.00    +0.119 HD
ATOM      4  H2  UNL     1      10.568  -4.637  25.553  0.00  0.00    +0.119 HD
ENDBRANCH   1   2
BRANCH   1   5
ATOM      5  C   UNL     1       8.629  -3.221  24.623  0.00  0.00    +0.033 C 
ATOM      6  C   UNL     1       9.869  -2.643  23.927  0.00  0.00    +0.024 C 
ATOM      7  C   UNL     1       8.427  -2.532  25.982  0.00  0.00    +0.024 C 
BRANCH   5   8
ATOM      8  S   UNL     1       7.167  -2.756  23.568  0.00  0.00    -0.170 S 
ATOM      9  H   UNL     1       7.585  -1.523  23.236  0.00  0.00    +0.102 HD
ENDBRANCH   5   8
ENDBRANCH   1   5
BRANCH   1  10
ATOM     10  C   UNL     1       7.714  -5.335  25.835  0.00  0.00    +0.323 C 
ATOM     11  OXT UNL     1       6.498  -5.415  25.764  0.00  0.00    -0.249 OA
BRANCH  10  12
ATOM     12  O   UNL     1       8.422  -5.802  26.898  0.00  0.00    -0.480 OA
ATOM     13  H   UNL     1       8.637  -6.748  26.693  0.00  0.00    +0.295 HD
ENDBRANCH  10  12
ENDBRANCH   1  10
TORSDOF 5
ENDMDL
MODEL 6
REMARK VINA RESULT:      -3.7      2.985      3.388
REMARK  Name = 
REMARK  7 active torsions:
REMARK  status: ('A' for Active; 'I' for Inactive)
REMARK    1  A    between atoms: CA_2  and  N_3
REMARK    2  A    between atoms: CA_2  and  C_4
REMARK    3  A    between atoms: CA_2  and  C_7
REMARK    4  A    between atoms: C_4  and  O_5
REMARK    5  A    between atoms: C_7  and  C_8
REMARK    6  A    between atoms: C_7  and  C_9
REMARK    7  A    between atoms: C_7  and  S_10
REMARK                            x       y       z     vdW  Elec       q    Type
REMARK                         _______ _______ _______ _____ _____    ______ ____
ROOT
ATOM      1  CA  UNL     1       9.289  -0.984  22.826  0.00  0.00    +0.176 C 
ENDROOT
BRANCH   1   2
ATOM      2  N   UNL     1      10.116  -1.550  21.698  0.00  0.00    -0.317 NA
ATOM      3  H1  UNL     1      11.101  -1.389  21.945  0.00  0.00    +0.119 HD
ATOM      4  H2  UNL     1      10.040  -2.574  21.733  0.00  0.00    +0.119 HD
ENDBRANCH   1   2
BRANCH   1   5
ATOM      5  C   UNL     1       9.653   0.480  23.217  0.00  0.00    +0.033 C 
ATOM      6  C   UNL     1       9.991   1.365  22.009  0.00  0.00    +0.024 C 
ATOM      7  C   UNL     1      10.800   0.535  24.239  0.00  0.00    +0.024 C 
BRANCH   5   8
ATOM      8  S   UNL     1       8.171   1.251  24.038  0.00  0.00    -0.170 S 
ATOM      9  H   UNL     1       7.762   1.986  22.991  0.00  0.00    +0.102 HD
ENDBRANCH   5   8
ENDBRANCH   1   5
BRANCH   1  10
ATOM     10  C   UNL     1       9.378  -1.990  23.995  0.00  0.00    +0.323 C 
ATOM     11  OXT UNL     1       8.677  -2.007  24.994  0.00  0.00    -0.249 OA
BRANCH  10  12
ATOM     12  O   UNL     1      10.331  -2.928  23.748  0.00  0.00    -0.480 OA
ATOM     13  H   UNL     1       9.854  -3.721  23.395  0.00  0.00    +0.295 HD
ENDBRANCH  10  12
ENDBRANCH   1  10
TORSDOF 5
ENDMDL
MODEL 7
REMARK VINA RESULT:      -3.7      2.946      3.374
REMARK  Name = 
REMARK  7 active torsions:
REMARK  status: ('A' for Active; 'I' for Inactive)
REMARK    1  A    between atoms: CA_2  and  N_3
REMARK    2  A    between atoms: CA_2  and  C_4
REMARK    3  A    between atoms: CA_2  and  C_7
REMARK    4  A    between atoms: C_4  and  O_5
REMARK    5  A    between atoms: C_7  and  C_8
REMARK    6  A    between atoms: C_7  and  C_9
REMARK    7  A    between atoms: C_7  and  S_10
REMARK                            x       y       z     vdW  Elec       q    Type
REMARK                         _______ _______ _______ _____ _____    ______ ____
ROOT
ATOM      1  CA  UNL     1       9.129   1.225  21.800  0.00  0.00    +0.176 C 
ENDROOT
BRANCH   1   2
ATOM      2  N   UNL     1      10.206   2.276  21.693  0.00  0.00    -0.317 NA
ATOM      3  H1  UNL     1       9.726   3.183  21.621  0.00  0.00    +0.119 HD
ATOM      4  H2  UNL     1      10.674   2.343  22.604  0.00  0.00    +0.119 HD
ENDBRANCH   1   2
BRANCH   1   5
ATOM      5  C   UNL     1       8.020   1.546  22.847  0.00  0.00    +0.033 C 
ATOM      6  C   UNL     1       8.577   2.055  24.184  0.00  0.00    +0.024 C 
ATOM      7  C   UNL     1       7.094   0.345  23.093  0.00  0.00    +0.024 C 
BRANCH   5   8
ATOM      8  S   UNL     1       6.952   2.912  22.167  0.00  0.00    -0.170 S 
ATOM      9  H   UNL     1       7.286   3.850  23.068  0.00  0.00    +0.102 HD
ENDBRANCH   5   8
ENDBRANCH   1   5
BRANCH   1  10
ATOM     10  C   UNL     1       9.841  -0.126  22.031  0.00  0.00    +0.323 C 
ATOM     11  OXT UNL     1      10.506  -0.439  23.005  0.00  0.00    -0.249 OA
BRANCH  10  12
ATOM     12  O   UNL     1       9.586  -0.983  21.007  0.00  0.00    -0.480 OA
ATOM     13  H   UNL     1       8.652  -1.290  21.129  0.00  0.00    +0.295 HD
ENDBRANCH  10  12
ENDBRANCH   1  10
TORSDOF 5
ENDMDL
MODEL 8
REMARK VINA RESULT:      -3.6      2.614      3.017
REMARK  Name = 
REMARK  7 active torsions:
REMARK  status: ('A' for Active; 'I' for Inactive)
REMARK    1  A    between atoms: CA_2  and  N_3
REMARK    2  A    between atoms: CA_2  and  C_4
REMARK    3  A    between atoms: CA_2  and  C_7
REMARK    4  A    between atoms: C_4  and  O_5
REMARK    5  A    between atoms: C_7  and  C_8
REMARK    6  A    between atoms: C_7  and  C_9
REMARK    7  A    between atoms: C_7  and  S_10
REMARK                            x       y       z     vdW  Elec       q    Type
REMARK                         _______ _______ _______ _____ _____    ______ ____
ROOT
ATOM      1  CA  UNL     1       9.069  -0.380  23.268  0.00  0.00    +0.176 C 
ENDROOT
BRANCH   1   2
ATOM      2  N   UNL     1       7.697  -0.225  22.658  0.00  0.00    -0.317 NA
ATOM      3  H1  UNL     1       7.523   0.785  22.575  0.00  0.00    +0.119 HD
ATOM      4  H2  UNL     1       7.752  -0.524  21.677  0.00  0.00    +0.119 HD
ENDBRANCH   1   2
BRANCH   1   5
ATOM      5  C   UNL     1       9.779   0.968  23.599  0.00  0.00    +0.033 C 
ATOM      6  C   UNL     1      10.107   1.803  22.354  0.00  0.00    +0.024 C 
ATOM      7  C   UNL     1      11.051   0.758  24.435  0.00  0.00    +0.024 C 
BRANCH   5   8
ATOM      8  S   UNL     1       8.624   1.997  24.636  0.00  0.00    -0.170 S 
ATOM      9  H   UNL     1       7.805   2.382  23.643  0.00  0.00    +0.102 HD
ENDBRANCH   5   8
ENDBRANCH   1   5
BRANCH   1  10
ATOM     10  C   UNL     1       9.875  -1.303  22.329  0.00  0.00    +0.323 C 
ATOM     11  OXT UNL     1      10.655  -2.180  22.666  0.00  0.00    -0.249 OA
BRANCH  10  12
ATOM     12  O   UNL     1       9.562  -1.056  21.029  0.00  0.00    -0.480 OA
ATOM     13  H   UNL     1       9.701  -0.085  20.891  0.00  0.00    +0.295 HD
ENDBRANCH  10  12
ENDBRANCH   1  10
TORSDOF 5
ENDMDL
MODEL 9
REMARK VINA RESULT:      -3.6      1.866      2.171
REMARK  Name = 
REMARK  7 active torsions:
REMARK  status: ('A' for Active; 'I' for Inactive)
REMARK    1  A    between atoms: CA_2  and  N_3
REMARK    2  A    between atoms: CA_2  and  C_4
REMARK    3  A    between atoms: CA_2  and  C_7
REMARK    4  A    between atoms: C_4  and  O_5
REMARK    5  A    between atoms: C_7  and  C_8
REMARK    6  A    between atoms: C_7  and  C_9
REMARK    7  A    between atoms: C_7  and  S_10
REMARK                            x       y       z     vdW  Elec       q    Type
REMARK                         _______ _______ _______ _____ _____    ______ ____
ROOT
ATOM      1  CA  UNL     1       9.212   0.984  23.316  0.00  0.00    +0.176 C 
ENDROOT
BRANCH   1   2
ATOM      2  N   UNL     1      10.529   1.398  23.924  0.00  0.00    -0.317 NA
ATOM      3  H1  UNL     1      11.193   0.636  23.736  0.00  0.00    +0.119 HD
ATOM      4  H2  UNL     1      10.909   2.169  23.361  0.00  0.00    +0.119 HD
ENDBRANCH   1   2
BRANCH   1   5
ATOM      5  C   UNL     1       9.044  -0.555  23.138  0.00  0.00    +0.033 C 
ATOM      6  C   UNL     1       9.725  -1.373  24.243  0.00  0.00    +0.024 C 
ATOM      7  C   UNL     1       9.533  -1.032  21.761  0.00  0.00    +0.024 C 
BRANCH   5   8
ATOM      8  S   UNL     1       7.227  -0.958  23.226  0.00  0.00    -0.170 S 
ATOM      9  H   UNL     1       6.912  -0.092  24.203  0.00  0.00    +0.102 HD
ENDBRANCH   5   8
ENDBRANCH   1   5
BRANCH   1  10
ATOM     10  C   UNL     1       9.048   1.792  22.010  0.00  0.00    +0.323 C 
ATOM     11  OXT UNL     1       8.003   2.016  21.421  0.00  0.00    -0.249 OA
BRANCH  10  12
ATOM     12  O   UNL     1      10.245   2.293  21.603  0.00  0.00    -0.480 OA
ATOM     13  H   UNL     1      10.070   3.222  21.307  0.00  0.00    +0.295 HD
ENDBRANCH  10  12
ENDBRANCH   1  10
TORSDOF 5
ENDMDL
