MODEL 1
REMARK VINA RESULT:      -4.3      0.000      0.000
REMARK  Name = 
REMARK  5 active torsions:
REMARK  status: ('A' for Active; 'I' for Inactive)
REMARK    1  A    between atoms: C_2  and  C_3
REMARK    2  A    between atoms: C_3  and  N_4
REMARK    3  A    between atoms: N_7  and  C_8
REMARK    4  A    between atoms: N_7  and  N_11
REMARK    5  A    between atoms: C_8  and  C_9
REMARK                            x       y       z     vdW  Elec       q    Type
REMARK                         _______ _______ _______ _____ _____    ______ ____
ROOT
ATOM      1  N   UNL     1       8.002  -2.172  23.056  0.00  0.00    -0.297 N 
ATOM      2  H   UNL     1       7.008  -2.345  23.044  0.00  0.00    +0.150 HD
ATOM      3  C   UNL     1       8.808  -3.080  23.715  0.00  0.00    +0.324 C 
ATOM      4  N   UNL     1       8.322  -4.386  23.785  0.00  0.00    -0.140 N 
ATOM      5  O   UNL     1       9.890  -2.720  24.181  0.00  0.00    -0.251 OA
ENDROOT
BRANCH   4   6
ATOM      6  N   UNL     1       9.134  -5.284  24.503  0.00  0.00    +0.053 NA
ATOM      7  O   UNL     1       8.728  -5.540  25.641  0.00  0.00    -0.126 OA
ENDBRANCH   4   6
BRANCH   1   8
ATOM      8  C   UNL     1       8.416  -0.779  22.956  0.00  0.00    +0.121 C 
BRANCH   8  10
ATOM      9 CL   UNL     1       9.949   1.152  21.763  0.00  0.00    -0.124 Cl
ATOM     10  C   UNL     1       9.232  -0.478  21.705  0.00  0.00    +0.127 C 
ENDBRANCH   8  10
ENDBRANCH   1   8
BRANCH   4  11
ATOM     11  C   UNL     1       7.065  -4.873  23.198  0.00  0.00    +0.155 C 
BRANCH  11  12
ATOM     12  C   UNL     1       7.282  -5.938  22.123  0.00  0.00    +0.130 C 
ATOM     13 CL   UNL     1       6.173  -5.717  20.742  0.00  0.00    -0.124 Cl
ENDBRANCH  11  12
ENDBRANCH   4  11
TORSDOF 5
ENDMDL
MODEL 2
REMARK VINA RESULT:      -4.3      3.178      3.422
REMARK  Name = 
REMARK  5 active torsions:
REMARK  status: ('A' for Active; 'I' for Inactive)
REMARK    1  A    between atoms: C_2  and  C_3
REMARK    2  A    between atoms: C_3  and  N_4
REMARK    3  A    between atoms: N_7  and  C_8
REMARK    4  A    between atoms: N_7  and  N_11
REMARK    5  A    between atoms: C_8  and  C_9
REMARK                            x       y       z     vdW  Elec       q    Type
REMARK                         _______ _______ _______ _____ _____    ______ ____
ROOT
ATOM      1  N   UNL     1       9.072  -0.723  22.774  0.00  0.00    -0.297 N 
ATOM      2  H   UNL     1       8.476  -0.302  23.472  0.00  0.00    +0.150 HD
ATOM      3  C   UNL     1       9.735  -1.888  23.108  0.00  0.00    +0.324 C 
ATOM      4  N   UNL     1       9.118  -2.683  24.075  0.00  0.00    -0.140 N 
ATOM      5  O   UNL     1      10.792  -2.178  22.547  0.00  0.00    -0.251 OA
ENDROOT
BRANCH   4   6
ATOM      6  N   UNL     1       9.833  -3.840  24.437  0.00  0.00    +0.053 NA
ATOM      7  O   UNL     1       9.185  -4.889  24.345  0.00  0.00    -0.126 OA
ENDBRANCH   4   6
BRANCH   1   8
ATOM      8  C   UNL     1       9.654   0.182  21.792  0.00  0.00    +0.121 C 
BRANCH   8  10
ATOM      9 CL   UNL     1      10.681   1.470  23.981  0.00  0.00    -0.124 Cl
ATOM     10  C   UNL     1       9.965   1.565  22.352  0.00  0.00    +0.127 C 
ENDBRANCH   8  10
ENDBRANCH   1   8
BRANCH   4  11
ATOM     11  C   UNL     1       7.833  -2.404  24.731  0.00  0.00    +0.155 C 
BRANCH  11  12
ATOM     12  C   UNL     1       7.976  -2.101  26.223  0.00  0.00    +0.130 C 
ATOM     13 CL   UNL     1       9.011  -0.676  26.510  0.00  0.00    -0.124 Cl
ENDBRANCH  11  12
ENDBRANCH   4  11
TORSDOF 5
ENDMDL
MODEL 3
REMARK VINA RESULT:      -4.2      1.963      5.211
REMARK  Name = 
REMARK  5 active torsions:
REMARK  status: ('A' for Active; 'I' for Inactive)
REMARK    1  A    between atoms: C_2  and  C_3
REMARK    2  A    between atoms: C_3  and  N_4
REMARK    3  A    between atoms: N_7  and  C_8
REMARK    4  A    between atoms: N_7  and  N_11
REMARK    5  A    between atoms: C_8  and  C_9
REMARK                            x       y       z     vdW  Elec       q    Type
REMARK                         _______ _______ _______ _____ _____    ______ ____
ROOT
ATOM      1  N   UNL     1       8.947  -3.273  23.733  0.00  0.00    -0.297 N 
ATOM      2  H   UNL     1       9.657  -3.406  23.027  0.00  0.00    +0.150 HD
ATOM      3  C   UNL     1       9.084  -2.200  24.593  0.00  0.00    +0.324 C 
ATOM      4  N   UNL     1       9.789  -1.106  24.092  0.00  0.00    -0.140 N 
ATOM      5  O   UNL     1       8.580  -2.243  25.716  0.00  0.00    -0.251 OA
ENDROOT
BRANCH   4   6
ATOM      6  N   UNL     1       9.960  -0.044  25.000  0.00  0.00    +0.053 NA
ATOM      7  O   UNL     1      11.064   0.507  24.939  0.00  0.00    -0.126 OA
ENDBRANCH   4   6
BRANCH   1   8
ATOM      8  C   UNL     1       8.247  -4.471  24.178  0.00  0.00    +0.121 C 
BRANCH   8  10
ATOM      9 CL   UNL     1       7.341  -6.010  22.102  0.00  0.00    -0.124 Cl
ATOM     10  C   UNL     1       7.005  -4.788  23.354  0.00  0.00    +0.127 C 
ENDBRANCH   8  10
ENDBRANCH   1   8
BRANCH   4  11
ATOM     11  C   UNL     1      10.359  -0.989  22.742  0.00  0.00    +0.155 C 
BRANCH  11  12
ATOM     12  C   UNL     1       9.503  -0.136  21.805  0.00  0.00    +0.130 C 
ATOM     13 CL   UNL     1       9.993   1.579  21.841  0.00  0.00    -0.124 Cl
ENDBRANCH  11  12
ENDBRANCH   4  11
TORSDOF 5
ENDMDL
MODEL 4
REMARK VINA RESULT:      -4.2      2.712      5.489
REMARK  Name = 
REMARK  5 active torsions:
REMARK  status: ('A' for Active; 'I' for Inactive)
REMARK    1  A    between atoms: C_2  and  C_3
REMARK    2  A    between atoms: C_3  and  N_4
REMARK    3  A    between atoms: N_7  and  C_8
REMARK    4  A    between atoms: N_7  and  N_11
REMARK    5  A    between atoms: C_8  and  C_9
REMARK                            x       y       z     vdW  Elec       q    Type
REMARK                         _______ _______ _______ _____ _____    ______ ____
ROOT
ATOM      1  N   UNL     1       8.612  -3.353  25.876  0.00  0.00    -0.297 N 
ATOM      2  H   UNL     1       7.877  -2.663  25.826  0.00  0.00    +0.150 HD
ATOM      3  C   UNL     1       9.485  -3.445  24.809  0.00  0.00    +0.324 C 
ATOM      4  N   UNL     1       9.668  -2.276  24.071  0.00  0.00    -0.140 N 
ATOM      5  O   UNL     1      10.059  -4.510  24.573  0.00  0.00    -0.251 OA
ENDROOT
BRANCH   4   6
ATOM      6  N   UNL     1      10.523  -2.404  22.959  0.00  0.00    +0.053 NA
ATOM      7  O   UNL     1      10.253  -1.649  22.019  0.00  0.00    -0.126 OA
ENDBRANCH   4   6
BRANCH   1   8
ATOM      8  C   UNL     1       8.338  -4.530  26.689  0.00  0.00    +0.121 C 
BRANCH   8  10
ATOM      9 CL   UNL     1       6.347  -5.423  25.033  0.00  0.00    -0.124 Cl
ATOM     10  C   UNL     1       6.874  -4.953  26.669  0.00  0.00    +0.127 C 
ENDBRANCH   8  10
ENDBRANCH   1   8
BRANCH   4  11
ATOM     11  C   UNL     1       9.049  -0.973  24.348  0.00  0.00    +0.155 C 
BRANCH  11  12
ATOM     12  C   UNL     1       9.923  -0.069  25.219  0.00  0.00    +0.130 C 
ATOM     13 CL   UNL     1      10.845   1.102  24.238  0.00  0.00    -0.124 Cl
ENDBRANCH  11  12
ENDBRANCH   4  11
TORSDOF 5
ENDMDL
MODEL 5
REMARK VINA RESULT:      -4.2      2.831      2.981
REMARK  Name = 
REMARK  5 active torsions:
REMARK  status: ('A' for Active; 'I' for Inactive)
REMARK    1  A    between atoms: C_2  and  C_3
REMARK    2  A    between atoms: C_3  and  N_4
REMARK    3  A    between atoms: N_7  and  C_8
REMARK    4  A    between atoms: N_7  and  N_11
REMARK    5  A    between atoms: C_8  and  C_9
REMARK                            x       y       z     vdW  Elec       q    Type
REMARK                         _______ _______ _______ _____ _____    ______ ____
ROOT
ATOM      1  N   UNL     1       9.943  -0.793  24.440  0.00  0.00    -0.297 N 
ATOM      2  H   UNL     1       9.875  -0.646  25.437  0.00  0.00    +0.150 HD
ATOM      3  C   UNL     1       9.901  -2.093  23.974  0.00  0.00    +0.324 C 
ATOM      4  N   UNL     1       9.208  -3.003  24.772  0.00  0.00    -0.140 N 
ATOM      5  O   UNL     1      10.441  -2.381  22.905  0.00  0.00    -0.251 OA
ENDROOT
BRANCH   4   6
ATOM      6  N   UNL     1       9.219  -4.331  24.305  0.00  0.00    +0.053 NA
ATOM      7  O   UNL     1      10.004  -5.075  24.902  0.00  0.00    -0.126 OA
ENDBRANCH   4   6
BRANCH   1   8
ATOM      8  C   UNL     1      10.667   0.222  23.687  0.00  0.00    +0.121 C 
BRANCH   8  10
ATOM      9 CL   UNL     1       9.359   0.454  21.291  0.00  0.00    -0.124 Cl
ATOM     10  C   UNL     1       9.757   1.145  22.884  0.00  0.00    +0.127 C 
ENDBRANCH   8  10
ENDBRANCH   1   8
BRANCH   4  11
ATOM     11  C   UNL     1       8.504  -2.693  26.024  0.00  0.00    +0.155 C 
BRANCH  11  12
ATOM     12  C   UNL     1       7.013  -3.029  25.970  0.00  0.00    +0.130 C 
ATOM     13 CL   UNL     1       6.659  -4.592  26.755  0.00  0.00    -0.124 Cl
ENDBRANCH  11  12
ENDBRANCH   4  11
TORSDOF 5
ENDMDL
MODEL 6
REMARK VINA RESULT:      -4.1      2.185      2.349
REMARK  Name = 
REMARK  5 active torsions:
REMARK  status: ('A' for Active; 'I' for Inactive)
REMARK    1  A    between atoms: C_2  and  C_3
REMARK    2  A    between atoms: C_3  and  N_4
REMARK    3  A    between atoms: N_7  and  C_8
REMARK    4  A    between atoms: N_7  and  N_11
REMARK    5  A    between atoms: C_8  and  C_9
REMARK                            x       y       z     vdW  Elec       q    Type
REMARK                         _______ _______ _______ _____ _____    ______ ____
ROOT
ATOM      1  N   UNL     1       8.859  -2.839  24.258  0.00  0.00    -0.297 N 
ATOM      2  H   UNL     1       8.196  -2.166  24.616  0.00  0.00    +0.150 HD
ATOM      3  C   UNL     1       8.980  -4.043  24.925  0.00  0.00    +0.324 C 
ATOM      4  N   UNL     1       7.847  -4.472  25.616  0.00  0.00    -0.140 N 
ATOM      5  O   UNL     1      10.036  -4.674  24.869  0.00  0.00    -0.251 OA
ENDROOT
BRANCH   4   6
ATOM      6  N   UNL     1       8.006  -5.676  26.328  0.00  0.00    +0.053 NA
ATOM      7  O   UNL     1       7.624  -5.629  27.502  0.00  0.00    -0.126 OA
ENDBRANCH   4   6
BRANCH   1   8
ATOM      8  C   UNL     1       9.999  -2.298  23.531  0.00  0.00    +0.121 C 
BRANCH   8  10
ATOM      9 CL   UNL     1       9.915  -0.162  21.818  0.00  0.00    -0.124 Cl
ATOM     10  C   UNL     1      10.022  -0.775  23.487  0.00  0.00    +0.127 C 
ENDBRANCH   8  10
ENDBRANCH   1   8
BRANCH   4  11
ATOM     11  C   UNL     1       6.551  -3.781  25.665  0.00  0.00    +0.155 C 
BRANCH  11  12
ATOM     12  C   UNL     1       5.536  -4.341  24.667  0.00  0.00    +0.130 C 
ATOM     13 CL   UNL     1       5.284  -3.235  23.290  0.00  0.00    -0.124 Cl
ENDBRANCH  11  12
ENDBRANCH   4  11
TORSDOF 5
ENDMDL
MODEL 7
REMARK VINA RESULT:      -4.0      2.335      4.977
REMARK  Name = 
REMARK  5 active torsions:
REMARK  status: ('A' for Active; 'I' for Inactive)
REMARK    1  A    between atoms: C_2  and  C_3
REMARK    2  A    between atoms: C_3  and  N_4
REMARK    3  A    between atoms: N_7  and  C_8
REMARK    4  A    between atoms: N_7  and  N_11
REMARK    5  A    between atoms: C_8  and  C_9
REMARK                            x       y       z     vdW  Elec       q    Type
REMARK                         _______ _______ _______ _____ _____    ______ ____
ROOT
ATOM      1  N   UNL     1       6.897  -4.027  24.188  0.00  0.00    -0.297 N 
ATOM      2  H   UNL     1       6.354  -3.291  23.760  0.00  0.00    +0.150 HD
ATOM      3  C   UNL     1       8.270  -3.987  24.038  0.00  0.00    +0.324 C 
ATOM      4  N   UNL     1       8.826  -2.721  23.854  0.00  0.00    -0.140 N 
ATOM      5  O   UNL     1       8.925  -5.029  24.091  0.00  0.00    -0.251 OA
ENDROOT
BRANCH   4   6
ATOM      6  N   UNL     1      10.219  -2.708  23.654  0.00  0.00    +0.053 NA
ATOM      7  O   UNL     1      10.586  -2.069  22.662  0.00  0.00    -0.126 OA
ENDBRANCH   4   6
BRANCH   1   8
ATOM      8  C   UNL     1       6.226  -5.308  24.360  0.00  0.00    +0.121 C 
BRANCH   8  10
ATOM      9 CL   UNL     1       6.539  -6.243  21.805  0.00  0.00    -0.124 Cl
ATOM     10  C   UNL     1       5.450  -5.755  23.128  0.00  0.00    +0.127 C 
ENDBRANCH   8  10
ENDBRANCH   1   8
BRANCH   4  11
ATOM     11  C   UNL     1       8.091  -1.449  23.839  0.00  0.00    +0.155 C 
BRANCH  11  12
ATOM     12  C   UNL     1       8.469  -0.527  25.000  0.00  0.00    +0.130 C 
ATOM     13 CL   UNL     1       8.569  -1.417  26.543  0.00  0.00    -0.124 Cl
ENDBRANCH  11  12
ENDBRANCH   4  11
TORSDOF 5
ENDMDL
MODEL 8
REMARK VINA RESULT:      -4.0      5.921      7.254
REMARK  Name = 
REMARK  5 active torsions:
REMARK  status: ('A' for Active; 'I' for Inactive)
REMARK    1  A    between atoms: C_2  and  C_3
REMARK    2  A    between atoms: C_3  and  N_4
REMARK    3  A    between atoms: N_7  and  C_8
REMARK    4  A    between atoms: N_7  and  N_11
REMARK    5  A    between atoms: C_8  and  C_9
REMARK                            x       y       z     vdW  Elec       q    Type
REMARK                         _______ _______ _______ _____ _____    ______ ____
ROOT
ATOM      1  N   UNL     1      10.583   4.163  23.264  0.00  0.00    -0.297 N 
ATOM      2  H   UNL     1      11.105   3.814  22.473  0.00  0.00    +0.150 HD
ATOM      3  C   UNL     1       9.289   3.710  23.434  0.00  0.00    +0.324 C 
ATOM      4  N   UNL     1       9.014   2.445  22.914  0.00  0.00    -0.140 N 
ATOM      5  O   UNL     1       8.467   4.405  24.032  0.00  0.00    -0.251 OA
ENDROOT
BRANCH   4   6
ATOM      6  N   UNL     1       7.678   2.023  23.054  0.00  0.00    +0.053 NA
ATOM      7  O   UNL     1       7.042   1.984  21.996  0.00  0.00    -0.126 OA
ENDBRANCH   4   6
BRANCH   1   8
ATOM      8  C   UNL     1      10.956   5.483  23.752  0.00  0.00    +0.121 C 
BRANCH   8  10
ATOM      9 CL   UNL     1      13.139   5.563  22.099  0.00  0.00    -0.124 Cl
ATOM     10  C   UNL     1      12.460   5.732  23.737  0.00  0.00    +0.127 C 
ENDBRANCH   8  10
ENDBRANCH   1   8
BRANCH   4  11
ATOM     11  C   UNL     1       9.975   1.559  22.243  0.00  0.00    +0.155 C 
BRANCH  11  12
ATOM     12  C   UNL     1      10.268   0.285  23.036  0.00  0.00    +0.130 C 
ATOM     13 CL   UNL     1      10.979   0.651  24.632  0.00  0.00    -0.124 Cl
ENDBRANCH  11  12
ENDBRANCH   4  11
TORSDOF 5
ENDMDL
MODEL 9
REMARK VINA RESULT:      -4.0      2.962      3.199
REMARK  Name = 
REMARK  5 active torsions:
REMARK  status: ('A' for Active; 'I' for Inactive)
REMARK    1  A    between atoms: C_2  and  C_3
REMARK    2  A    between atoms: C_3  and  N_4
REMARK    3  A    between atoms: N_7  and  C_8
REMARK    4  A    between atoms: N_7  and  N_11
REMARK    5  A    between atoms: C_8  and  C_9
REMARK                            x       y       z     vdW  Elec       q    Type
REMARK                         _______ _______ _______ _____ _____    ______ ____
ROOT
ATOM      1  N   UNL     1       9.969  -2.184  23.456  0.00  0.00    -0.297 N 
ATOM      2  H   UNL     1      10.719  -2.721  23.866  0.00  0.00    +0.150 HD
ATOM      3  C   UNL     1       8.782  -2.836  23.180  0.00  0.00    +0.324 C 
ATOM      4  N   UNL     1       8.497  -3.944  23.979  0.00  0.00    -0.140 N 
ATOM      5  O   UNL     1       8.044  -2.419  22.287  0.00  0.00    -0.251 OA
ENDROOT
BRANCH   4   6
ATOM      6  N   UNL     1       7.309  -4.623  23.649  0.00  0.00    +0.053 NA
ATOM      7  O   UNL     1       7.471  -5.614  22.930  0.00  0.00    -0.126 OA
ENDBRANCH   4   6
BRANCH   1   8
ATOM      8  C   UNL     1      10.363  -1.032  22.656  0.00  0.00    +0.121 C 
BRANCH   8  10
ATOM      9 CL   UNL     1      10.120   0.001  25.182  0.00  0.00    -0.124 Cl
ATOM     10  C   UNL     1      10.368   0.276  23.439  0.00  0.00    +0.127 C 
ENDBRANCH   8  10
ENDBRANCH   1   8
BRANCH   4  11
ATOM     11  C   UNL     1       9.320  -4.443  25.089  0.00  0.00    +0.155 C 
BRANCH  11  12
ATOM     12  C   UNL     1       8.745  -4.095  26.463  0.00  0.00    +0.130 C 
ATOM     13 CL   UNL     1       7.683  -5.388  27.081  0.00  0.00    -0.124 Cl
ENDBRANCH  11  12
ENDBRANCH   4  11
TORSDOF 5
ENDMDL
