MODEL 1
REMARK VINA RESULT:      -7.8      0.000      0.000
REMARK  Name = 
REMARK  9 active torsions:
REMARK  status: ('A' for Active; 'I' for Inactive)
REMARK    1  A    between atoms: O_1  and  O_2
REMARK    2  A    between atoms: O_2  and  C_3
REMARK    3  A    between atoms: C_3  and  C_4
REMARK    4  A    between atoms: C_4  and  C_5
REMARK    5  A    between atoms: C_8  and  O_9
REMARK    6  A    between atoms: C_16  and  C_26
REMARK    7  A    between atoms: C_18  and  C_19
REMARK    8  A    between atoms: C_19  and  C_20
REMARK    9  A    between atoms: C_29  and  O_30
REMARK                            x       y       z     vdW  Elec       q    Type
REMARK                         _______ _______ _______ _____ _____    ______ ____
ROOT
ATOM      1  C   UNL     1       5.914  -5.248  22.684  0.00  0.00    +0.277 C 
ATOM      2  C   UNL     1       6.333  -4.010  21.860  0.00  0.00    +0.291 C 
ATOM      3  O   UNL     1       5.940  -3.692  20.747  0.00  0.00    -0.267 OA
ATOM      4  N   UNL     1       7.226  -3.347  22.644  0.00  0.00    -0.264 N 
ATOM      5  C   UNL     1       7.904  -2.191  22.378  0.00  0.00    +0.124 A 
ATOM      6  C   UNL     1       8.719  -1.669  23.318  0.00  0.00    +0.088 A 
ATOM      7  N   UNL     1       8.889  -2.265  24.559  0.00  0.00    -0.246 NA
ATOM      8  C   UNL     1       8.219  -3.350  24.834  0.00  0.00    +0.089 A 
ATOM      9  C   UNL     1       7.326  -3.999  23.817  0.00  0.00    +0.161 A 
ATOM     10  N   UNL     1       6.653  -5.090  23.988  0.00  0.00    -0.219 NA
ENDROOT
BRANCH   6  11
ATOM     11  C   UNL     1       9.368  -0.339  23.127  0.00  0.00    +0.002 A 
ATOM     12  C   UNL     1       9.273   0.410  21.943  0.00  0.00    +0.013 A 
ATOM     13  C   UNL     1       9.830   1.694  21.860  0.00  0.00    +0.046 A 
ATOM     14  C   UNL     1      10.497   2.234  22.953  0.00  0.00    +0.117 A 
ATOM     15  C   UNL     1      10.651   1.499  24.119  0.00  0.00    +0.046 A 
ATOM     16  C   UNL     1      10.093   0.220  24.198  0.00  0.00    +0.013 A 
BRANCH  14  17
ATOM     17  O   UNL     1      10.984   3.502  22.845  0.00  0.00    -0.507 OA
ATOM     18  H   UNL     1      11.056   3.725  21.902  0.00  0.00    +0.292 HD
ENDBRANCH  14  17
ENDBRANCH   6  11
BRANCH   1  19
ATOM     19  O   UNL     1       6.176  -6.432  21.915  0.00  0.00    -0.197 OA
BRANCH  19  20
ATOM     20  O   UNL     1       5.318  -6.392  20.733  0.00  0.00    -0.247 OA
ATOM     21  H   UNL     1       5.369  -5.423  20.604  0.00  0.00    +0.253 HD
ENDBRANCH  19  20
ENDBRANCH   1  19
BRANCH   8  22
ATOM     22  C   UNL     1       8.260  -3.940  26.220  0.00  0.00    +0.094 C 
BRANCH  22  23
ATOM     23  C   UNL     1       6.927  -3.847  26.932  0.00  0.00    -0.041 A 
ATOM     24  C   UNL     1       6.111  -2.713  26.786  0.00  0.00    +0.004 A 
ATOM     25  C   UNL     1       4.907  -2.609  27.485  0.00  0.00    +0.000 A 
ATOM     26  C   UNL     1       4.505  -3.633  28.338  0.00  0.00    +0.000 A 
ATOM     27  C   UNL     1       5.302  -4.767  28.485  0.00  0.00    +0.000 A 
ATOM     28  C   UNL     1       6.506  -4.874  27.785  0.00  0.00    +0.004 A 
ENDBRANCH  22  23
ENDBRANCH   8  22
BRANCH   1  29
ATOM     29  C   UNL     1       4.392  -5.157  22.953  0.00  0.00    +0.108 C 
BRANCH  29  30
ATOM     30  C   UNL     1       3.995  -5.680  24.321  0.00  0.00    -0.042 A 
ATOM     31  C   UNL     1       2.993  -5.034  25.059  0.00  0.00    +0.007 A 
ATOM     32  C   UNL     1       2.538  -5.578  26.260  0.00  0.00    +0.045 A 
ATOM     33  C   UNL     1       3.084  -6.767  26.726  0.00  0.00    +0.117 A 
ATOM     34  C   UNL     1       4.111  -7.400  26.034  0.00  0.00    +0.045 A 
ATOM     35  C   UNL     1       4.568  -6.853  24.832  0.00  0.00    +0.007 A 
BRANCH  33  36
ATOM     36  O   UNL     1       2.567  -7.299  27.870  0.00  0.00    -0.507 OA
ATOM     37  H   UNL     1       2.345  -6.570  28.473  0.00  0.00    +0.292 HD
ENDBRANCH  33  36
ENDBRANCH  29  30
ENDBRANCH   1  29
TORSDOF 9
ENDMDL
MODEL 2
REMARK VINA RESULT:      -7.2      2.474      3.352
REMARK  Name = 
REMARK  9 active torsions:
REMARK  status: ('A' for Active; 'I' for Inactive)
REMARK    1  A    between atoms: O_1  and  O_2
REMARK    2  A    between atoms: O_2  and  C_3
REMARK    3  A    between atoms: C_3  and  C_4
REMARK    4  A    between atoms: C_4  and  C_5
REMARK    5  A    between atoms: C_8  and  O_9
REMARK    6  A    between atoms: C_16  and  C_26
REMARK    7  A    between atoms: C_18  and  C_19
REMARK    8  A    between atoms: C_19  and  C_20
REMARK    9  A    between atoms: C_29  and  O_30
REMARK                            x       y       z     vdW  Elec       q    Type
REMARK                         _______ _______ _______ _____ _____    ______ ____
ROOT
ATOM      1  C   UNL     1       8.653  -3.994  25.595  0.00  0.00    +0.277 C 
ATOM      2  C   UNL     1       9.452  -3.007  24.716  0.00  0.00    +0.291 C 
ATOM      3  O   UNL     1      10.260  -3.280  23.840  0.00  0.00    -0.267 OA
ATOM      4  N   UNL     1       9.056  -1.770  25.120  0.00  0.00    -0.264 N 
ATOM      5  C   UNL     1       9.468  -0.549  24.666  0.00  0.00    +0.124 A 
ATOM      6  C   UNL     1       8.912   0.570  25.176  0.00  0.00    +0.088 A 
ATOM      7  N   UNL     1       7.922   0.525  26.146  0.00  0.00    -0.246 NA
ATOM      8  C   UNL     1       7.498  -0.637  26.560  0.00  0.00    +0.089 A 
ATOM      9  C   UNL     1       8.103  -1.916  26.059  0.00  0.00    +0.161 A 
ATOM     10  N   UNL     1       7.772  -3.108  26.437  0.00  0.00    -0.219 NA
ENDROOT
BRANCH   6  11
ATOM     11  C   UNL     1       9.228   1.915  24.612  0.00  0.00    +0.002 A 
ATOM     12  C   UNL     1       8.447   3.059  24.844  0.00  0.00    +0.013 A 
ATOM     13  C   UNL     1       8.849   4.312  24.360  0.00  0.00    +0.046 A 
ATOM     14  C   UNL     1      10.025   4.430  23.630  0.00  0.00    +0.117 A 
ATOM     15  C   UNL     1      10.792   3.311  23.342  0.00  0.00    +0.046 A 
ATOM     16  C   UNL     1      10.389   2.065  23.827  0.00  0.00    +0.013 A 
BRANCH  14  17
ATOM     17  O   UNL     1      10.402   5.673  23.217  0.00  0.00    -0.507 OA
ATOM     18  H   UNL     1       9.965   6.331  23.782  0.00  0.00    +0.292 HD
ENDBRANCH  14  17
ENDBRANCH   6  11
BRANCH   1  19
ATOM     19  O   UNL     1       9.572  -4.857  26.282  0.00  0.00    -0.197 OA
BRANCH  19  20
ATOM     20  O   UNL     1      10.163  -5.754  25.291  0.00  0.00    -0.247 OA
ATOM     21  H   UNL     1      10.975  -5.225  25.148  0.00  0.00    +0.253 HD
ENDBRANCH  19  20
ENDBRANCH   1  19
BRANCH   8  22
ATOM     22  C   UNL     1       6.322  -0.728  27.498  0.00  0.00    +0.094 C 
BRANCH  22  23
ATOM     23  C   UNL     1       5.244  -1.662  26.990  0.00  0.00    -0.041 A 
ATOM     24  C   UNL     1       4.978  -1.774  25.616  0.00  0.00    +0.004 A 
ATOM     25  C   UNL     1       3.947  -2.597  25.156  0.00  0.00    +0.000 A 
ATOM     26  C   UNL     1       3.171  -3.315  26.061  0.00  0.00    +0.000 A 
ATOM     27  C   UNL     1       3.430  -3.218  27.427  0.00  0.00    +0.000 A 
ATOM     28  C   UNL     1       4.463  -2.397  27.889  0.00  0.00    +0.004 A 
ENDBRANCH  22  23
ENDBRANCH   8  22
BRANCH   1  29
ATOM     29  C   UNL     1       7.761  -4.855  24.667  0.00  0.00    +0.108 C 
BRANCH  29  30
ATOM     30  C   UNL     1       6.556  -5.444  25.375  0.00  0.00    -0.042 A 
ATOM     31  C   UNL     1       5.462  -5.912  24.633  0.00  0.00    +0.007 A 
ATOM     32  C   UNL     1       4.404  -6.565  25.269  0.00  0.00    +0.045 A 
ATOM     33  C   UNL     1       4.438  -6.749  26.645  0.00  0.00    +0.117 A 
ATOM     34  C   UNL     1       5.491  -6.251  27.406  0.00  0.00    +0.045 A 
ATOM     35  C   UNL     1       6.548  -5.595  26.769  0.00  0.00    +0.007 A 
BRANCH  33  36
ATOM     36  O   UNL     1       3.417  -7.447  27.218  0.00  0.00    -0.507 OA
ATOM     37  H   UNL     1       3.557  -8.392  27.041  0.00  0.00    +0.292 HD
ENDBRANCH  33  36
ENDBRANCH  29  30
ENDBRANCH   1  29
TORSDOF 9
ENDMDL
MODEL 3
REMARK VINA RESULT:      -6.8      3.111      8.510
REMARK  Name = 
REMARK  9 active torsions:
REMARK  status: ('A' for Active; 'I' for Inactive)
REMARK    1  A    between atoms: O_1  and  O_2
REMARK    2  A    between atoms: O_2  and  C_3
REMARK    3  A    between atoms: C_3  and  C_4
REMARK    4  A    between atoms: C_4  and  C_5
REMARK    5  A    between atoms: C_8  and  O_9
REMARK    6  A    between atoms: C_16  and  C_26
REMARK    7  A    between atoms: C_18  and  C_19
REMARK    8  A    between atoms: C_19  and  C_20
REMARK    9  A    between atoms: C_29  and  O_30
REMARK                            x       y       z     vdW  Elec       q    Type
REMARK                         _______ _______ _______ _____ _____    ______ ____
ROOT
ATOM      1  C   UNL     1       9.488   0.354  22.992  0.00  0.00    +0.277 C 
ATOM      2  C   UNL     1       9.630  -1.141  23.353  0.00  0.00    +0.291 C 
ATOM      3  O   UNL     1      10.591  -1.867  23.143  0.00  0.00    -0.267 OA
ATOM      4  N   UNL     1       8.458  -1.474  23.960  0.00  0.00    -0.264 N 
ATOM      5  C   UNL     1       8.069  -2.683  24.463  0.00  0.00    +0.124 A 
ATOM      6  C   UNL     1       6.870  -2.792  25.074  0.00  0.00    +0.088 A 
ATOM      7  N   UNL     1       6.016  -1.709  25.218  0.00  0.00    -0.246 NA
ATOM      8  C   UNL     1       6.394  -0.543  24.772  0.00  0.00    +0.089 A 
ATOM      9  C   UNL     1       7.699  -0.366  24.050  0.00  0.00    +0.161 A 
ATOM     10  N   UNL     1       8.140   0.740  23.545  0.00  0.00    -0.219 NA
ENDROOT
BRANCH   6  11
ATOM     11  C   UNL     1       6.465  -4.053  25.760  0.00  0.00    +0.002 A 
ATOM     12  C   UNL     1       6.887  -4.406  27.053  0.00  0.00    +0.013 A 
ATOM     13  C   UNL     1       6.396  -5.562  27.676  0.00  0.00    +0.046 A 
ATOM     14  C   UNL     1       5.493  -6.380  27.010  0.00  0.00    +0.117 A 
ATOM     15  C   UNL     1       5.095  -6.085  25.714  0.00  0.00    +0.046 A 
ATOM     16  C   UNL     1       5.585  -4.932  25.097  0.00  0.00    +0.013 A 
BRANCH  14  17
ATOM     17  O   UNL     1       5.006  -7.470  27.669  0.00  0.00    -0.507 OA
ATOM     18  H   UNL     1       4.270  -7.838  27.153  0.00  0.00    +0.292 HD
ENDBRANCH  14  17
ENDBRANCH   6  11
BRANCH   1  19
ATOM     19  O   UNL     1       9.694   0.516  21.581  0.00  0.00    -0.197 OA
BRANCH  19  20
ATOM     20  O   UNL     1       9.437  -0.774  20.944  0.00  0.00    -0.247 OA
ATOM     21  H   UNL     1       9.330  -1.278  21.777  0.00  0.00    +0.253 HD
ENDBRANCH  19  20
ENDBRANCH   1  19
BRANCH   8  22
ATOM     22  C   UNL     1       5.563   0.684  25.045  0.00  0.00    +0.094 C 
BRANCH  22  23
ATOM     23  C   UNL     1       6.077   1.485  26.221  0.00  0.00    -0.041 A 
ATOM     24  C   UNL     1       6.505   0.846  27.396  0.00  0.00    +0.004 A 
ATOM     25  C   UNL     1       6.929   1.591  28.499  0.00  0.00    +0.000 A 
ATOM     26  C   UNL     1       6.929   2.982  28.441  0.00  0.00    +0.000 A 
ATOM     27  C   UNL     1       6.515   3.629  27.278  0.00  0.00    +0.000 A 
ATOM     28  C   UNL     1       6.092   2.884  26.174  0.00  0.00    +0.004 A 
ENDBRANCH  22  23
ENDBRANCH   8  22
BRANCH   1  29
ATOM     29  C   UNL     1      10.586   1.140  23.749  0.00  0.00    +0.108 C 
BRANCH  29  30
ATOM     30  C   UNL     1      10.343   2.637  23.769  0.00  0.00    -0.042 A 
ATOM     31  C   UNL     1       9.173   3.154  24.344  0.00  0.00    +0.007 A 
ATOM     32  C   UNL     1       8.999   4.532  24.476  0.00  0.00    +0.045 A 
ATOM     33  C   UNL     1       9.992   5.395  24.033  0.00  0.00    +0.117 A 
ATOM     34  C   UNL     1      11.140   4.906  23.418  0.00  0.00    +0.045 A 
ATOM     35  C   UNL     1      11.313   3.526  23.284  0.00  0.00    +0.007 A 
BRANCH  33  36
ATOM     36  O   UNL     1       9.812   6.731  24.238  0.00  0.00    -0.507 OA
ATOM     37  H   UNL     1       9.979   7.193  23.401  0.00  0.00    +0.292 HD
ENDBRANCH  33  36
ENDBRANCH  29  30
ENDBRANCH   1  29
TORSDOF 9
ENDMDL
MODEL 4
REMARK VINA RESULT:      -6.8      3.060      4.014
REMARK  Name = 
REMARK  9 active torsions:
REMARK  status: ('A' for Active; 'I' for Inactive)
REMARK    1  A    between atoms: O_1  and  O_2
REMARK    2  A    between atoms: O_2  and  C_3
REMARK    3  A    between atoms: C_3  and  C_4
REMARK    4  A    between atoms: C_4  and  C_5
REMARK    5  A    between atoms: C_8  and  O_9
REMARK    6  A    between atoms: C_16  and  C_26
REMARK    7  A    between atoms: C_18  and  C_19
REMARK    8  A    between atoms: C_19  and  C_20
REMARK    9  A    between atoms: C_29  and  O_30
REMARK                            x       y       z     vdW  Elec       q    Type
REMARK                         _______ _______ _______ _____ _____    ______ ____
ROOT
ATOM      1  C   UNL     1       8.553  -3.770  25.237  0.00  0.00    +0.277 C 
ATOM      2  C   UNL     1       9.465  -2.777  24.483  0.00  0.00    +0.291 C 
ATOM      3  O   UNL     1      10.366  -3.044  23.701  0.00  0.00    -0.267 OA
ATOM      4  N   UNL     1       9.044  -1.543  24.871  0.00  0.00    -0.264 N 
ATOM      5  C   UNL     1       9.527  -0.319  24.501  0.00  0.00    +0.124 A 
ATOM      6  C   UNL     1       8.933   0.798  24.971  0.00  0.00    +0.088 A 
ATOM      7  N   UNL     1       7.835   0.748  25.817  0.00  0.00    -0.246 NA
ATOM      8  C   UNL     1       7.347  -0.415  26.148  0.00  0.00    +0.089 A 
ATOM      9  C   UNL     1       7.986  -1.693  25.688  0.00  0.00    +0.161 A 
ATOM     10  N   UNL     1       7.593  -2.888  25.994  0.00  0.00    -0.219 NA
ENDROOT
BRANCH   6  11
ATOM     11  C   UNL     1       9.335   2.150  24.484  0.00  0.00    +0.002 A 
ATOM     12  C   UNL     1       8.624   3.325  24.776  0.00  0.00    +0.013 A 
ATOM     13  C   UNL     1       9.106   4.576  24.363  0.00  0.00    +0.046 A 
ATOM     14  C   UNL     1      10.292   4.661  23.645  0.00  0.00    +0.117 A 
ATOM     15  C   UNL     1      10.990   3.514  23.298  0.00  0.00    +0.046 A 
ATOM     16  C   UNL     1      10.508   2.270  23.712  0.00  0.00    +0.013 A 
BRANCH  14  17
ATOM     17  O   UNL     1      10.747   5.899  23.302  0.00  0.00    -0.507 OA
ATOM     18  H   UNL     1      11.206   5.832  22.449  0.00  0.00    +0.292 HD
ENDBRANCH  14  17
ENDBRANCH   6  11
BRANCH   1  19
ATOM     19  O   UNL     1       9.371  -4.667  26.004  0.00  0.00    -0.197 OA
BRANCH  19  20
ATOM     20  O   UNL     1      10.156  -5.464  25.064  0.00  0.00    -0.247 OA
ATOM     21  H   UNL     1      10.087  -4.836  24.317  0.00  0.00    +0.253 HD
ENDBRANCH  19  20
ENDBRANCH   1  19
BRANCH   8  22
ATOM     22  C   UNL     1       6.068  -0.506  26.940  0.00  0.00    +0.094 C 
BRANCH  22  23
ATOM     23  C   UNL     1       5.790   0.746  27.744  0.00  0.00    -0.041 A 
ATOM     24  C   UNL     1       4.829   1.676  27.318  0.00  0.00    +0.004 A 
ATOM     25  C   UNL     1       4.614   2.856  28.035  0.00  0.00    +0.000 A 
ATOM     26  C   UNL     1       5.356   3.120  29.182  0.00  0.00    +0.000 A 
ATOM     27  C   UNL     1       6.308   2.200  29.620  0.00  0.00    +0.000 A 
ATOM     28  C   UNL     1       6.523   1.019  28.905  0.00  0.00    +0.004 A 
ENDBRANCH  22  23
ENDBRANCH   8  22
BRANCH   1  29
ATOM     29  C   UNL     1       7.762  -4.590  24.189  0.00  0.00    +0.108 C 
BRANCH  29  30
ATOM     30  C   UNL     1       6.546  -5.288  24.770  0.00  0.00    -0.042 A 
ATOM     31  C   UNL     1       5.490  -5.676  23.933  0.00  0.00    +0.007 A 
ATOM     32  C   UNL     1       4.427  -6.425  24.439  0.00  0.00    +0.045 A 
ATOM     33  C   UNL     1       4.416  -6.785  25.780  0.00  0.00    +0.117 A 
ATOM     34  C   UNL     1       5.430  -6.371  26.638  0.00  0.00    +0.045 A 
ATOM     35  C   UNL     1       6.494  -5.619  26.131  0.00  0.00    +0.007 A 
BRANCH  33  36
ATOM     36  O   UNL     1       3.392  -7.570  26.220  0.00  0.00    -0.507 OA
ATOM     37  H   UNL     1       3.614  -8.496  26.028  0.00  0.00    +0.292 HD
ENDBRANCH  33  36
ENDBRANCH  29  30
ENDBRANCH   1  29
TORSDOF 9
ENDMDL
MODEL 5
REMARK VINA RESULT:      -6.8      2.670      4.314
REMARK  Name = 
REMARK  9 active torsions:
REMARK  status: ('A' for Active; 'I' for Inactive)
REMARK    1  A    between atoms: O_1  and  O_2
REMARK    2  A    between atoms: O_2  and  C_3
REMARK    3  A    between atoms: C_3  and  C_4
REMARK    4  A    between atoms: C_4  and  C_5
REMARK    5  A    between atoms: C_8  and  O_9
REMARK    6  A    between atoms: C_16  and  C_26
REMARK    7  A    between atoms: C_18  and  C_19
REMARK    8  A    between atoms: C_19  and  C_20
REMARK    9  A    between atoms: C_29  and  O_30
REMARK                            x       y       z     vdW  Elec       q    Type
REMARK                         _______ _______ _______ _____ _____    ______ ____
ROOT
ATOM      1  C   UNL     1       4.085  -2.383  26.283  0.00  0.00    +0.277 C 
ATOM      2  C   UNL     1       5.042  -1.259  26.741  0.00  0.00    +0.291 C 
ATOM      3  O   UNL     1       5.140  -0.778  27.860  0.00  0.00    -0.267 OA
ATOM      4  N   UNL     1       5.757  -0.927  25.631  0.00  0.00    -0.264 N 
ATOM      5  C   UNL     1       6.732   0.020  25.494  0.00  0.00    +0.124 A 
ATOM      6  C   UNL     1       7.355   0.163  24.306  0.00  0.00    +0.088 A 
ATOM      7  N   UNL     1       7.045  -0.631  23.211  0.00  0.00    -0.246 NA
ATOM      8  C   UNL     1       6.140  -1.561  23.343  0.00  0.00    +0.089 A 
ATOM      9  C   UNL     1       5.385  -1.743  24.628  0.00  0.00    +0.161 A 
ATOM     10  N   UNL     1       4.450  -2.612  24.839  0.00  0.00    -0.219 NA
ENDROOT
BRANCH   6  11
ATOM     11  C   UNL     1       8.519   1.083  24.149  0.00  0.00    +0.002 A 
ATOM     12  C   UNL     1       9.857   0.674  24.268  0.00  0.00    +0.013 A 
ATOM     13  C   UNL     1      10.906   1.570  24.019  0.00  0.00    +0.046 A 
ATOM     14  C   UNL     1      10.628   2.883  23.664  0.00  0.00    +0.117 A 
ATOM     15  C   UNL     1       9.318   3.331  23.586  0.00  0.00    +0.046 A 
ATOM     16  C   UNL     1       8.275   2.435  23.834  0.00  0.00    +0.013 A 
BRANCH  14  17
ATOM     17  O   UNL     1      11.676   3.709  23.386  0.00  0.00    -0.507 OA
ATOM     18  H   UNL     1      12.436   3.164  23.123  0.00  0.00    +0.292 HD
ENDBRANCH  14  17
ENDBRANCH   6  11
BRANCH   1  19
ATOM     19  O   UNL     1       2.734  -1.991  26.569  0.00  0.00    -0.197 OA
BRANCH  19  20
ATOM     20  O   UNL     1       2.699  -0.531  26.633  0.00  0.00    -0.247 OA
ATOM     21  H   UNL     1       2.926  -0.384  25.691  0.00  0.00    +0.253 HD
ENDBRANCH  19  20
ENDBRANCH   1  19
BRANCH   8  22
ATOM     22  C   UNL     1       5.884  -2.539  22.226  0.00  0.00    +0.094 C 
BRANCH  22  23
ATOM     23  C   UNL     1       6.542  -3.881  22.466  0.00  0.00    -0.041 A 
ATOM     24  C   UNL     1       7.527  -4.033  23.455  0.00  0.00    +0.004 A 
ATOM     25  C   UNL     1       8.169  -5.260  23.638  0.00  0.00    +0.000 A 
ATOM     26  C   UNL     1       7.836  -6.347  22.835  0.00  0.00    +0.000 A 
ATOM     27  C   UNL     1       6.854  -6.212  21.855  0.00  0.00    +0.000 A 
ATOM     28  C   UNL     1       6.210  -4.985  21.672  0.00  0.00    +0.004 A 
ENDBRANCH  22  23
ENDBRANCH   8  22
BRANCH   1  29
ATOM     29  C   UNL     1       4.417  -3.659  27.095  0.00  0.00    +0.108 C 
BRANCH  29  30
ATOM     30  C   UNL     1       4.075  -4.940  26.358  0.00  0.00    -0.042 A 
ATOM     31  C   UNL     1       2.745  -5.377  26.284  0.00  0.00    +0.007 A 
ATOM     32  C   UNL     1       2.408  -6.486  25.507  0.00  0.00    +0.045 A 
ATOM     33  C   UNL     1       3.399  -7.160  24.805  0.00  0.00    +0.117 A 
ATOM     34  C   UNL     1       4.731  -6.772  24.902  0.00  0.00    +0.045 A 
ATOM     35  C   UNL     1       5.068  -5.663  25.682  0.00  0.00    +0.007 A 
BRANCH  33  36
ATOM     36  O   UNL     1       3.018  -8.198  24.007  0.00  0.00    -0.507 OA
ATOM     37  H   UNL     1       3.350  -9.022  24.400  0.00  0.00    +0.292 HD
ENDBRANCH  33  36
ENDBRANCH  29  30
ENDBRANCH   1  29
TORSDOF 9
ENDMDL
MODEL 6
REMARK VINA RESULT:      -6.7      3.057      8.438
REMARK  Name = 
REMARK  9 active torsions:
REMARK  status: ('A' for Active; 'I' for Inactive)
REMARK    1  A    between atoms: O_1  and  O_2
REMARK    2  A    between atoms: O_2  and  C_3
REMARK    3  A    between atoms: C_3  and  C_4
REMARK    4  A    between atoms: C_4  and  C_5
REMARK    5  A    between atoms: C_8  and  O_9
REMARK    6  A    between atoms: C_16  and  C_26
REMARK    7  A    between atoms: C_18  and  C_19
REMARK    8  A    between atoms: C_19  and  C_20
REMARK    9  A    between atoms: C_29  and  O_30
REMARK                            x       y       z     vdW  Elec       q    Type
REMARK                         _______ _______ _______ _____ _____    ______ ____
ROOT
ATOM      1  C   UNL     1       5.826   0.924  26.571  0.00  0.00    +0.277 C 
ATOM      2  C   UNL     1       4.647  -0.074  26.589  0.00  0.00    +0.291 C 
ATOM      3  O   UNL     1       3.457   0.185  26.694  0.00  0.00    -0.267 OA
ATOM      4  N   UNL     1       5.218  -1.302  26.454  0.00  0.00    -0.264 N 
ATOM      5  C   UNL     1       4.614  -2.527  26.419  0.00  0.00    +0.124 A 
ATOM      6  C   UNL     1       5.365  -3.632  26.231  0.00  0.00    +0.088 A 
ATOM      7  N   UNL     1       6.740  -3.567  26.062  0.00  0.00    -0.246 NA
ATOM      8  C   UNL     1       7.321  -2.399  26.060  0.00  0.00    +0.089 A 
ATOM      9  C   UNL     1       6.545  -1.137  26.301  0.00  0.00    +0.161 A 
ATOM     10  N   UNL     1       7.039   0.057  26.350  0.00  0.00    -0.219 NA
ENDROOT
BRANCH   6  11
ATOM     11  C   UNL     1       4.736  -4.972  26.045  0.00  0.00    +0.002 A 
ATOM     12  C   UNL     1       3.756  -5.498  26.902  0.00  0.00    +0.013 A 
ATOM     13  C   UNL     1       3.140  -6.725  26.619  0.00  0.00    +0.046 A 
ATOM     14  C   UNL     1       3.506  -7.442  25.488  0.00  0.00    +0.117 A 
ATOM     15  C   UNL     1       4.506  -6.973  24.648  0.00  0.00    +0.046 A 
ATOM     16  C   UNL     1       5.117  -5.750  24.933  0.00  0.00    +0.013 A 
BRANCH  14  17
ATOM     17  O   UNL     1       2.851  -8.607  25.226  0.00  0.00    -0.507 OA
ATOM     18  H   UNL     1       3.510  -9.311  25.108  0.00  0.00    +0.292 HD
ENDBRANCH  14  17
ENDBRANCH   6  11
BRANCH   1  19
ATOM     19  O   UNL     1       5.788   1.714  27.770  0.00  0.00    -0.197 OA
BRANCH  19  20
ATOM     20  O   UNL     1       7.145   1.768  28.309  0.00  0.00    -0.247 OA
ATOM     21  H   UNL     1       7.244   0.801  28.430  0.00  0.00    +0.253 HD
ENDBRANCH  19  20
ENDBRANCH   1  19
BRANCH   8  22
ATOM     22  C   UNL     1       8.786  -2.278  25.728  0.00  0.00    +0.094 C 
BRANCH  22  23
ATOM     23  C   UNL     1       9.027  -1.937  24.273  0.00  0.00    -0.041 A 
ATOM     24  C   UNL     1       8.107  -2.316  23.283  0.00  0.00    +0.004 A 
ATOM     25  C   UNL     1       8.358  -2.047  21.936  0.00  0.00    +0.000 A 
ATOM     26  C   UNL     1       9.532  -1.398  21.563  0.00  0.00    +0.000 A 
ATOM     27  C   UNL     1      10.450  -1.009  22.536  0.00  0.00    +0.000 A 
ATOM     28  C   UNL     1      10.198  -1.276  23.885  0.00  0.00    +0.004 A 
ENDBRANCH  22  23
ENDBRANCH   8  22
BRANCH   1  29
ATOM     29  C   UNL     1       5.648   1.861  25.352  0.00  0.00    +0.108 C 
BRANCH  29  30
ATOM     30  C   UNL     1       6.857   1.884  24.435  0.00  0.00    -0.042 A 
ATOM     31  C   UNL     1       6.730   1.501  23.092  0.00  0.00    +0.007 A 
ATOM     32  C   UNL     1       7.806   1.635  22.214  0.00  0.00    +0.045 A 
ATOM     33  C   UNL     1       9.010   2.151  22.677  0.00  0.00    +0.117 A 
ATOM     34  C   UNL     1       9.171   2.494  24.015  0.00  0.00    +0.045 A 
ATOM     35  C   UNL     1       8.094   2.357  24.894  0.00  0.00    +0.007 A 
BRANCH  33  36
ATOM     36  O   UNL     1      10.015   2.327  21.773  0.00  0.00    -0.507 OA
ATOM     37  H   UNL     1       9.935   1.641  21.090  0.00  0.00    +0.292 HD
ENDBRANCH  33  36
ENDBRANCH  29  30
ENDBRANCH   1  29
TORSDOF 9
ENDMDL
MODEL 7
REMARK VINA RESULT:      -6.7      3.617      8.921
REMARK  Name = 
REMARK  9 active torsions:
REMARK  status: ('A' for Active; 'I' for Inactive)
REMARK    1  A    between atoms: O_1  and  O_2
REMARK    2  A    between atoms: O_2  and  C_3
REMARK    3  A    between atoms: C_3  and  C_4
REMARK    4  A    between atoms: C_4  and  C_5
REMARK    5  A    between atoms: C_8  and  O_9
REMARK    6  A    between atoms: C_16  and  C_26
REMARK    7  A    between atoms: C_18  and  C_19
REMARK    8  A    between atoms: C_19  and  C_20
REMARK    9  A    between atoms: C_29  and  O_30
REMARK                            x       y       z     vdW  Elec       q    Type
REMARK                         _______ _______ _______ _____ _____    ______ ____
ROOT
ATOM      1  C   UNL     1       5.677   2.063  26.563  0.00  0.00    +0.277 C 
ATOM      2  C   UNL     1       4.707   0.879  26.354  0.00  0.00    +0.291 C 
ATOM      3  O   UNL     1       3.486   0.904  26.391  0.00  0.00    -0.267 OA
ATOM      4  N   UNL     1       5.506  -0.196  26.111  0.00  0.00    -0.264 N 
ATOM      5  C   UNL     1       5.146  -1.492  25.870  0.00  0.00    +0.124 A 
ATOM      6  C   UNL     1       6.102  -2.407  25.606  0.00  0.00    +0.088 A 
ATOM      7  N   UNL     1       7.448  -2.075  25.563  0.00  0.00    -0.246 NA
ATOM      8  C   UNL     1       7.798  -0.834  25.758  0.00  0.00    +0.089 A 
ATOM      9  C   UNL     1       6.785   0.223  26.093  0.00  0.00    +0.161 A 
ATOM     10  N   UNL     1       7.042   1.467  26.336  0.00  0.00    -0.219 NA
ENDROOT
BRANCH   6  11
ATOM     11  C   UNL     1       5.749  -3.798  25.198  0.00  0.00    +0.002 A 
ATOM     12  C   UNL     1       5.663  -4.875  26.096  0.00  0.00    +0.013 A 
ATOM     13  C   UNL     1       5.236  -6.138  25.662  0.00  0.00    +0.046 A 
ATOM     14  C   UNL     1       4.907  -6.339  24.328  0.00  0.00    +0.117 A 
ATOM     15  C   UNL     1       5.029  -5.309  23.407  0.00  0.00    +0.046 A 
ATOM     16  C   UNL     1       5.453  -4.052  23.844  0.00  0.00    +0.013 A 
BRANCH  14  17
ATOM     17  O   UNL     1       4.454  -7.570  23.958  0.00  0.00    -0.507 OA
ATOM     18  H   UNL     1       4.743  -8.217  24.622  0.00  0.00    +0.292 HD
ENDBRANCH  14  17
ENDBRANCH   6  11
BRANCH   1  19
ATOM     19  O   UNL     1       5.420   2.657  27.845  0.00  0.00    -0.197 OA
BRANCH  19  20
ATOM     20  O   UNL     1       4.211   3.469  27.723  0.00  0.00    -0.247 OA
ATOM     21  H   UNL     1       3.870   3.278  28.620  0.00  0.00    +0.253 HD
ENDBRANCH  19  20
ENDBRANCH   1  19
BRANCH   8  22
ATOM     22  C   UNL     1       9.231  -0.407  25.569  0.00  0.00    +0.094 C 
BRANCH  22  23
ATOM     23  C   UNL     1       9.448   0.342  24.272  0.00  0.00    -0.041 A 
ATOM     24  C   UNL     1       8.807  -0.063  23.090  0.00  0.00    +0.004 A 
ATOM     25  C   UNL     1       9.051   0.599  21.885  0.00  0.00    +0.000 A 
ATOM     26  C   UNL     1       9.939   1.671  21.846  0.00  0.00    +0.000 A 
ATOM     27  C   UNL     1      10.576   2.088  23.013  0.00  0.00    +0.000 A 
ATOM     28  C   UNL     1      10.331   1.428  24.220  0.00  0.00    +0.004 A 
ENDBRANCH  22  23
ENDBRANCH   8  22
BRANCH   1  29
ATOM     29  C   UNL     1       5.398   3.116  25.462  0.00  0.00    +0.108 C 
BRANCH  29  30
ATOM     30  C   UNL     1       6.661   3.733  24.892  0.00  0.00    -0.042 A 
ATOM     31  C   UNL     1       6.866   3.763  23.505  0.00  0.00    +0.007 A 
ATOM     32  C   UNL     1       7.964   4.436  22.968  0.00  0.00    +0.045 A 
ATOM     33  C   UNL     1       8.858   5.078  23.815  0.00  0.00    +0.117 A 
ATOM     34  C   UNL     1       8.700   5.021  25.195  0.00  0.00    +0.045 A 
ATOM     35  C   UNL     1       7.601   4.345  25.733  0.00  0.00    +0.007 A 
BRANCH  33  36
ATOM     36  O   UNL     1       9.882   5.778  23.247  0.00  0.00    -0.507 OA
ATOM     37  H   UNL     1      10.340   5.194  22.620  0.00  0.00    +0.292 HD
ENDBRANCH  33  36
ENDBRANCH  29  30
ENDBRANCH   1  29
TORSDOF 9
ENDMDL
MODEL 8
REMARK VINA RESULT:      -6.6      3.113      5.097
REMARK  Name = 
REMARK  9 active torsions:
REMARK  status: ('A' for Active; 'I' for Inactive)
REMARK    1  A    between atoms: O_1  and  O_2
REMARK    2  A    between atoms: O_2  and  C_3
REMARK    3  A    between atoms: C_3  and  C_4
REMARK    4  A    between atoms: C_4  and  C_5
REMARK    5  A    between atoms: C_8  and  O_9
REMARK    6  A    between atoms: C_16  and  C_26
REMARK    7  A    between atoms: C_18  and  C_19
REMARK    8  A    between atoms: C_19  and  C_20
REMARK    9  A    between atoms: C_29  and  O_30
REMARK                            x       y       z     vdW  Elec       q    Type
REMARK                         _______ _______ _______ _____ _____    ______ ____
ROOT
ATOM      1  C   UNL     1       5.552  -0.261  25.944  0.00  0.00    +0.277 C 
ATOM      2  C   UNL     1       6.251   1.063  26.326  0.00  0.00    +0.291 C 
ATOM      3  O   UNL     1       6.101   1.712  27.351  0.00  0.00    -0.267 OA
ATOM      4  N   UNL     1       7.074   1.345  25.280  0.00  0.00    -0.264 N 
ATOM      5  C   UNL     1       7.910   2.413  25.113  0.00  0.00    +0.124 A 
ATOM      6  C   UNL     1       8.684   2.484  24.010  0.00  0.00    +0.088 A 
ATOM      7  N   UNL     1       8.668   1.497  23.035  0.00  0.00    -0.246 NA
ATOM      8  C   UNL     1       7.899   0.457  23.203  0.00  0.00    +0.089 A 
ATOM      9  C   UNL     1       6.987   0.340  24.390  0.00  0.00    +0.161 A 
ATOM     10  N   UNL     1       6.168  -0.635  24.621  0.00  0.00    -0.219 NA
ENDROOT
BRANCH   6  11
ATOM     11  C   UNL     1       9.710   3.555  23.854  0.00  0.00    +0.002 A 
ATOM     12  C   UNL     1       9.476   4.907  24.151  0.00  0.00    +0.013 A 
ATOM     13  C   UNL     1      10.511   5.849  24.069  0.00  0.00    +0.046 A 
ATOM     14  C   UNL     1      11.783   5.451  23.676  0.00  0.00    +0.117 A 
ATOM     15  C   UNL     1      12.034   4.133  23.328  0.00  0.00    +0.046 A 
ATOM     16  C   UNL     1      11.000   3.197  23.412  0.00  0.00    +0.013 A 
BRANCH  14  17
ATOM     17  O   UNL     1      12.771   6.390  23.653  0.00  0.00    -0.507 OA
ATOM     18  H   UNL     1      13.444   6.112  23.011  0.00  0.00    +0.292 HD
ENDBRANCH  14  17
ENDBRANCH   6  11
BRANCH   1  19
ATOM     19  O   UNL     1       4.130  -0.067  25.980  0.00  0.00    -0.197 OA
BRANCH  19  20
ATOM     20  O   UNL     1       3.735   0.057  27.382  0.00  0.00    -0.247 OA
ATOM     21  H   UNL     1       4.141  -0.785  27.675  0.00  0.00    +0.253 HD
ENDBRANCH  19  20
ENDBRANCH   1  19
BRANCH   8  22
ATOM     22  C   UNL     1       7.967  -0.703  22.244  0.00  0.00    +0.094 C 
BRANCH  22  23
ATOM     23  C   UNL     1       8.284  -2.012  22.936  0.00  0.00    -0.041 A 
ATOM     24  C   UNL     1       7.520  -3.163  22.683  0.00  0.00    +0.004 A 
ATOM     25  C   UNL     1       7.782  -4.354  23.363  0.00  0.00    +0.000 A 
ATOM     26  C   UNL     1       8.807  -4.409  24.303  0.00  0.00    +0.000 A 
ATOM     27  C   UNL     1       9.577  -3.277  24.557  0.00  0.00    +0.000 A 
ATOM     28  C   UNL     1       9.318  -2.084  23.876  0.00  0.00    +0.004 A 
ENDBRANCH  22  23
ENDBRANCH   8  22
BRANCH   1  29
ATOM     29  C   UNL     1       5.935  -1.330  26.997  0.00  0.00    +0.108 C 
BRANCH  29  30
ATOM     30  C   UNL     1       5.741  -2.751  26.503  0.00  0.00    -0.042 A 
ATOM     31  C   UNL     1       6.484  -3.800  27.063  0.00  0.00    +0.007 A 
ATOM     32  C   UNL     1       6.224  -5.122  26.701  0.00  0.00    +0.045 A 
ATOM     33  C   UNL     1       5.223  -5.398  25.780  0.00  0.00    +0.117 A 
ATOM     34  C   UNL     1       4.505  -4.370  25.177  0.00  0.00    +0.045 A 
ATOM     35  C   UNL     1       4.767  -3.046  25.538  0.00  0.00    +0.007 A 
BRANCH  33  36
ATOM     36  O   UNL     1       4.957  -6.706  25.502  0.00  0.00    -0.507 OA
ATOM     37  H   UNL     1       4.297  -6.739  24.791  0.00  0.00    +0.292 HD
ENDBRANCH  33  36
ENDBRANCH  29  30
ENDBRANCH   1  29
TORSDOF 9
ENDMDL
MODEL 9
REMARK VINA RESULT:      -6.5      2.855      8.117
REMARK  Name = 
REMARK  9 active torsions:
REMARK  status: ('A' for Active; 'I' for Inactive)
REMARK    1  A    between atoms: O_1  and  O_2
REMARK    2  A    between atoms: O_2  and  C_3
REMARK    3  A    between atoms: C_3  and  C_4
REMARK    4  A    between atoms: C_4  and  C_5
REMARK    5  A    between atoms: C_8  and  O_9
REMARK    6  A    between atoms: C_16  and  C_26
REMARK    7  A    between atoms: C_18  and  C_19
REMARK    8  A    between atoms: C_19  and  C_20
REMARK    9  A    between atoms: C_29  and  O_30
REMARK                            x       y       z     vdW  Elec       q    Type
REMARK                         _______ _______ _______ _____ _____    ______ ____
ROOT
ATOM      1  C   UNL     1       8.893  -1.580  23.468  0.00  0.00    +0.277 C 
ATOM      2  C   UNL     1       8.892  -2.919  24.237  0.00  0.00    +0.291 C 
ATOM      3  O   UNL     1       9.762  -3.777  24.234  0.00  0.00    -0.267 OA
ATOM      4  N   UNL     1       7.717  -2.933  24.925  0.00  0.00    -0.264 N 
ATOM      5  C   UNL     1       7.224  -3.900  25.755  0.00  0.00    +0.124 A 
ATOM      6  C   UNL     1       6.046  -3.697  26.382  0.00  0.00    +0.088 A 
ATOM      7  N   UNL     1       5.317  -2.529  26.220  0.00  0.00    -0.246 NA
ATOM      8  C   UNL     1       5.797  -1.586  25.457  0.00  0.00    +0.089 A 
ATOM      9  C   UNL     1       7.083  -1.767  24.703  0.00  0.00    +0.161 A 
ATOM     10  N   UNL     1       7.616  -0.905  23.900  0.00  0.00    -0.219 NA
ENDROOT
BRANCH   6  11
ATOM     11  C   UNL     1       5.539  -4.659  27.403  0.00  0.00    +0.002 A 
ATOM     12  C   UNL     1       5.676  -6.053  27.296  0.00  0.00    +0.013 A 
ATOM     13  C   UNL     1       5.258  -6.897  28.334  0.00  0.00    +0.046 A 
ATOM     14  C   UNL     1       4.687  -6.358  29.480  0.00  0.00    +0.117 A 
ATOM     15  C   UNL     1       4.492  -4.990  29.595  0.00  0.00    +0.046 A 
ATOM     16  C   UNL     1       4.911  -4.152  28.559  0.00  0.00    +0.013 A 
BRANCH  14  17
ATOM     17  O   UNL     1       4.336  -7.211  30.484  0.00  0.00    -0.507 OA
ATOM     18  H   UNL     1       3.716  -6.752  31.074  0.00  0.00    +0.292 HD
ENDBRANCH  14  17
ENDBRANCH   6  11
BRANCH   1  19
ATOM     19  O   UNL     1       9.057  -1.846  22.066  0.00  0.00    -0.197 OA
BRANCH  19  20
ATOM     20  O   UNL     1      10.491  -1.857  21.783  0.00  0.00    -0.247 OA
ATOM     21  H   UNL     1      10.420  -1.467  20.888  0.00  0.00    +0.253 HD
ENDBRANCH  19  20
ENDBRANCH   1  19
BRANCH   8  22
ATOM     22  C   UNL     1       5.111  -0.247  25.376  0.00  0.00    +0.094 C 
BRANCH  22  23
ATOM     23  C   UNL     1       5.747   0.788  26.279  0.00  0.00    -0.041 A 
ATOM     24  C   UNL     1       6.517   0.401  27.388  0.00  0.00    +0.004 A 
ATOM     25  C   UNL     1       7.059   1.359  28.248  0.00  0.00    +0.000 A 
ATOM     26  C   UNL     1       6.837   2.712  28.012  0.00  0.00    +0.000 A 
ATOM     27  C   UNL     1       6.082   3.110  26.910  0.00  0.00    +0.000 A 
ATOM     28  C   UNL     1       5.541   2.153  26.047  0.00  0.00    +0.004 A 
ENDBRANCH  22  23
ENDBRANCH   8  22
BRANCH   1  29
ATOM     29  C   UNL     1      10.097  -0.741  23.960  0.00  0.00    +0.108 C 
BRANCH  29  30
ATOM     30  C   UNL     1       9.885   0.754  23.809  0.00  0.00    -0.042 A 
ATOM     31  C   UNL     1      10.225   1.396  22.610  0.00  0.00    +0.007 A 
ATOM     32  C   UNL     1       9.921   2.745  22.420  0.00  0.00    +0.045 A 
ATOM     33  C   UNL     1       9.279   3.453  23.427  0.00  0.00    +0.117 A 
ATOM     34  C   UNL     1       8.974   2.848  24.642  0.00  0.00    +0.045 A 
ATOM     35  C   UNL     1       9.281   1.498  24.832  0.00  0.00    +0.007 A 
BRANCH  33  36
ATOM     36  O   UNL     1       8.942   4.750  23.176  0.00  0.00    -0.507 OA
ATOM     37  H   UNL     1       8.158   4.756  22.602  0.00  0.00    +0.292 HD
ENDBRANCH  33  36
ENDBRANCH  29  30
ENDBRANCH   1  29
TORSDOF 9
ENDMDL
