MODEL 1
REMARK VINA RESULT:      -6.3      0.000      0.000
REMARK  Name = 
REMARK  17 active torsions:
REMARK  status: ('A' for Active; 'I' for Inactive)
REMARK    1  A    between atoms: O_1  and  C_2
REMARK    2  A    between atoms: C_2  and  C_3
REMARK    3  A    between atoms: C_3  and  O_5
REMARK    4  A    between atoms: C_3  and  C_6
REMARK    5  A    between atoms: C_6  and  O_8
REMARK    6  A    between atoms: C_6  and  C_9
REMARK    7  A    between atoms: C_9  and  O_11
REMARK    8  A    between atoms: C_9  and  C_12
REMARK    9  A    between atoms: C_12  and  N_13
REMARK   10  A    between atoms: N_16  and  C_17
REMARK   11  A    between atoms: C_17  and  C_18
REMARK   12  A    between atoms: C_18  and  C_19
REMARK   13  A    between atoms: C_19  and  C_20
REMARK   14  A    between atoms: C_20  and  O_21
REMARK   15  A    between atoms: O_21  and  P_22
REMARK   16  A    between atoms: P_22  and  O_23
REMARK   17  A    between atoms: P_22  and  O_24
REMARK                            x       y       z     vdW  Elec       q    Type
REMARK                         _______ _______ _______ _____ _____    ______ ____
ROOT
ATOM      1  N   UNL     1       6.504  -2.024  25.627  0.00  0.00    -0.275 N 
ATOM      2  C   UNL     1       7.164  -3.211  25.763  0.00  0.00    +0.149 A 
ATOM      3  N   UNL     1       8.447  -3.484  25.422  0.00  0.00    -0.292 N 
ATOM      4  H   UNL     1       8.988  -2.778  24.929  0.00  0.00    +0.172 HD
ATOM      5  C   UNL     1       8.994  -4.723  25.581  0.00  0.00    +0.328 A 
ATOM      6  N   UNL     1       8.170  -5.671  26.142  0.00  0.00    -0.273 N 
ATOM      7  H   UNL     1       8.549  -6.603  26.222  0.00  0.00    +0.173 HD
ATOM      8  C   UNL     1       6.840  -5.503  26.459  0.00  0.00    +0.280 A 
ATOM      9  O   UNL     1       6.139  -6.435  26.826  0.00  0.00    -0.265 OA
ATOM     10  O   UNL     1      10.136  -4.992  25.226  0.00  0.00    -0.247 OA
ATOM     11  C   UNL     1       6.345  -4.126  26.284  0.00  0.00    +0.152 A 
ATOM     12  N   UNL     1       5.116  -3.551  26.523  0.00  0.00    -0.286 N 
ATOM     13  C   UNL     1       5.175  -2.203  26.085  0.00  0.00    +0.331 A 
ATOM     14  O   UNL     1       4.277  -1.377  26.089  0.00  0.00    -0.246 OA
ENDROOT
BRANCH  12  15
ATOM     15  C   UNL     1       3.908  -4.152  27.030  0.00  0.00    +0.127 C 
BRANCH  15  16
ATOM     16  C   UNL     1       3.127  -5.013  26.042  0.00  0.00    +0.024 C 
BRANCH  16  17
ATOM     17  C   UNL     1       3.168  -4.541  24.593  0.00  0.00    +0.030 C 
BRANCH  17  18
ATOM     18  C   UNL     1       3.511  -5.728  23.704  0.00  0.00    +0.172 C 
BRANCH  18  19
ATOM     19  O   UNL     1       4.087  -5.273  22.492  0.00  0.00    -0.287 OA
BRANCH  19  20
ATOM     20  P   UNL     1       5.811  -5.182  22.611  0.00  0.00    +0.472 P 
ATOM     21  O   UNL     1       7.353  -5.099  22.717  0.00  0.00    -0.228 OA
BRANCH  20  22
ATOM     22  O   UNL     1       5.779  -6.347  21.461  0.00  0.00    -0.303 OA
ATOM     23  H   UNL     1       5.493  -5.964  20.611  0.00  0.00    +0.222 HD
ENDBRANCH  20  22
BRANCH  20  24
ATOM     24  O   UNL     1       5.617  -3.948  21.554  0.00  0.00    -0.303 OA
ATOM     25  H   UNL     1       6.486  -3.509  21.486  0.00  0.00    +0.222 HD
ENDBRANCH  20  24
ENDBRANCH  19  20
ENDBRANCH  18  19
ENDBRANCH  17  18
ENDBRANCH  16  17
ENDBRANCH  15  16
ENDBRANCH  12  15
BRANCH   1  26
ATOM     26  C   UNL     1       7.026  -0.763  25.143  0.00  0.00    +0.162 C 
BRANCH  26  27
ATOM     27  C   UNL     1       7.053  -0.638  23.610  0.00  0.00    +0.165 C 
BRANCH  27  28
ATOM     28  O   UNL     1       6.042  -1.508  23.040  0.00  0.00    -0.387 OA
ATOM     29  H   UNL     1       6.438  -1.892  22.236  0.00  0.00    +0.210 HD
ENDBRANCH  27  28
BRANCH  27  30
ATOM     30  C   UNL     1       8.386  -1.060  22.953  0.00  0.00    +0.175 C 
BRANCH  30  31
ATOM     31  O   UNL     1       8.190  -2.366  22.376  0.00  0.00    -0.387 OA
ATOM     32  H   UNL     1       7.954  -2.226  21.442  0.00  0.00    +0.210 HD
ENDBRANCH  30  31
BRANCH  30  33
ATOM     33  C   UNL     1       8.990  -0.129  21.892  0.00  0.00    +0.171 C 
BRANCH  33  34
ATOM     34  O   UNL     1       9.742  -0.873  20.928  0.00  0.00    -0.387 OA
ATOM     35  H   UNL     1       9.301  -1.748  20.890  0.00  0.00    +0.210 HD
ENDBRANCH  33  34
BRANCH  33  36
ATOM     36  C   UNL     1       9.854   1.004  22.450  0.00  0.00    +0.189 C 
BRANCH  36  37
ATOM     37  O   UNL     1       9.869   2.053  21.474  0.00  0.00    -0.392 OA
ATOM     38  H   UNL     1      10.633   1.889  20.892  0.00  0.00    +0.210 HD
ENDBRANCH  36  37
ENDBRANCH  33  36
ENDBRANCH  30  33
ENDBRANCH  27  30
ENDBRANCH  26  27
ENDBRANCH   1  26
TORSDOF 17
ENDMDL
MODEL 2
REMARK VINA RESULT:      -6.2      2.634      7.089
REMARK  Name = 
REMARK  17 active torsions:
REMARK  status: ('A' for Active; 'I' for Inactive)
REMARK    1  A    between atoms: O_1  and  C_2
REMARK    2  A    between atoms: C_2  and  C_3
REMARK    3  A    between atoms: C_3  and  O_5
REMARK    4  A    between atoms: C_3  and  C_6
REMARK    5  A    between atoms: C_6  and  O_8
REMARK    6  A    between atoms: C_6  and  C_9
REMARK    7  A    between atoms: C_9  and  O_11
REMARK    8  A    between atoms: C_9  and  C_12
REMARK    9  A    between atoms: C_12  and  N_13
REMARK   10  A    between atoms: N_16  and  C_17
REMARK   11  A    between atoms: C_17  and  C_18
REMARK   12  A    between atoms: C_18  and  C_19
REMARK   13  A    between atoms: C_19  and  C_20
REMARK   14  A    between atoms: C_20  and  O_21
REMARK   15  A    between atoms: O_21  and  P_22
REMARK   16  A    between atoms: P_22  and  O_23
REMARK   17  A    between atoms: P_22  and  O_24
REMARK                            x       y       z     vdW  Elec       q    Type
REMARK                         _______ _______ _______ _____ _____    ______ ____
ROOT
ATOM      1  N   UNL     1       4.909  -4.936  24.549  0.00  0.00    -0.275 N 
ATOM      2  C   UNL     1       6.008  -5.190  25.319  0.00  0.00    +0.149 A 
ATOM      3  N   UNL     1       6.033  -5.690  26.578  0.00  0.00    -0.292 N 
ATOM      4  H   UNL     1       5.155  -5.825  27.074  0.00  0.00    +0.172 HD
ATOM      5  C   UNL     1       7.197  -5.878  27.263  0.00  0.00    +0.328 A 
ATOM      6  N   UNL     1       8.349  -5.560  26.579  0.00  0.00    -0.273 N 
ATOM      7  H   UNL     1       9.213  -5.652  27.092  0.00  0.00    +0.173 HD
ATOM      8  C   UNL     1       8.416  -4.990  25.328  0.00  0.00    +0.280 A 
ATOM      9  O   UNL     1       9.473  -4.610  24.846  0.00  0.00    -0.265 OA
ATOM     10  O   UNL     1       7.226  -6.279  28.421  0.00  0.00    -0.247 OA
ATOM     11  C   UNL     1       7.113  -4.854  24.652  0.00  0.00    +0.152 A 
ATOM     12  N   UNL     1       6.766  -4.380  23.406  0.00  0.00    -0.286 N 
ATOM     13  C   UNL     1       5.350  -4.393  23.317  0.00  0.00    +0.331 A 
ATOM     14  O   UNL     1       4.657  -4.012  22.387  0.00  0.00    -0.246 OA
ENDROOT
BRANCH  12  15
ATOM     15  C   UNL     1       7.606  -3.856  22.360  0.00  0.00    +0.127 C 
BRANCH  15  16
ATOM     16  C   UNL     1       7.935  -2.369  22.451  0.00  0.00    +0.024 C 
BRANCH  16  17
ATOM     17  C   UNL     1       9.382  -2.002  22.142  0.00  0.00    +0.030 C 
BRANCH  17  18
ATOM     18  C   UNL     1       9.700  -0.674  22.814  0.00  0.00    +0.172 C 
BRANCH  18  19
ATOM     19  O   UNL     1       9.880   0.333  21.832  0.00  0.00    -0.287 OA
BRANCH  19  20
ATOM     20  P   UNL     1       9.136   1.819  22.311  0.00  0.00    +0.472 P 
ATOM     21  O   UNL     1       8.469   3.149  22.740  0.00  0.00    -0.228 OA
BRANCH  20  22
ATOM     22  O   UNL     1      10.484   2.498  21.677  0.00  0.00    -0.303 OA
ATOM     23  H   UNL     1      10.394   2.566  20.709  0.00  0.00    +0.222 HD
ENDBRANCH  20  22
BRANCH  20  24
ATOM     24  O   UNL     1       8.373   1.668  20.872  0.00  0.00    -0.303 OA
ATOM     25  H   UNL     1       7.425   1.558  21.076  0.00  0.00    +0.222 HD
ENDBRANCH  20  24
ENDBRANCH  19  20
ENDBRANCH  18  19
ENDBRANCH  17  18
ENDBRANCH  16  17
ENDBRANCH  15  16
ENDBRANCH  12  15
BRANCH   1  26
ATOM     26  C   UNL     1       3.519  -5.189  24.866  0.00  0.00    +0.162 C 
BRANCH  26  27
ATOM     27  C   UNL     1       3.025  -6.588  24.463  0.00  0.00    +0.165 C 
BRANCH  27  28
ATOM     28  O   UNL     1       4.166  -7.435  24.172  0.00  0.00    -0.387 OA
ATOM     29  H   UNL     1       4.555  -7.092  23.347  0.00  0.00    +0.210 HD
ENDBRANCH  27  28
BRANCH  27  30
ATOM     30  C   UNL     1       2.148  -6.619  23.191  0.00  0.00    +0.175 C 
BRANCH  30  31
ATOM     31  O   UNL     1       3.030  -6.535  22.054  0.00  0.00    -0.387 OA
ATOM     32  H   UNL     1       3.459  -5.662  22.097  0.00  0.00    +0.210 HD
ENDBRANCH  30  31
BRANCH  30  33
ATOM     33  C   UNL     1       1.200  -7.813  23.001  0.00  0.00    +0.171 C 
BRANCH  33  34
ATOM     34  O   UNL     1       1.846  -9.039  23.359  0.00  0.00    -0.387 OA
ATOM     35  H   UNL     1       1.615  -9.661  22.637  0.00  0.00    +0.210 HD
ENDBRANCH  33  34
BRANCH  33  36
ATOM     36  C   UNL     1       0.604  -7.941  21.597  0.00  0.00    +0.189 C 
BRANCH  36  37
ATOM     37  O   UNL     1       1.485  -8.772  20.832  0.00  0.00    -0.392 OA
ATOM     38  H   UNL     1       1.052  -9.640  20.744  0.00  0.00    +0.210 HD
ENDBRANCH  36  37
ENDBRANCH  33  36
ENDBRANCH  30  33
ENDBRANCH  27  30
ENDBRANCH  26  27
ENDBRANCH   1  26
TORSDOF 17
ENDMDL
MODEL 3
REMARK VINA RESULT:      -6.1      2.076      3.556
REMARK  Name = 
REMARK  17 active torsions:
REMARK  status: ('A' for Active; 'I' for Inactive)
REMARK    1  A    between atoms: O_1  and  C_2
REMARK    2  A    between atoms: C_2  and  C_3
REMARK    3  A    between atoms: C_3  and  O_5
REMARK    4  A    between atoms: C_3  and  C_6
REMARK    5  A    between atoms: C_6  and  O_8
REMARK    6  A    between atoms: C_6  and  C_9
REMARK    7  A    between atoms: C_9  and  O_11
REMARK    8  A    between atoms: C_9  and  C_12
REMARK    9  A    between atoms: C_12  and  N_13
REMARK   10  A    between atoms: N_16  and  C_17
REMARK   11  A    between atoms: C_17  and  C_18
REMARK   12  A    between atoms: C_18  and  C_19
REMARK   13  A    between atoms: C_19  and  C_20
REMARK   14  A    between atoms: C_20  and  O_21
REMARK   15  A    between atoms: O_21  and  P_22
REMARK   16  A    between atoms: P_22  and  O_23
REMARK   17  A    between atoms: P_22  and  O_24
REMARK                            x       y       z     vdW  Elec       q    Type
REMARK                         _______ _______ _______ _____ _____    ______ ____
ROOT
ATOM      1  N   UNL     1       6.257  -1.143  24.737  0.00  0.00    -0.275 N 
ATOM      2  C   UNL     1       5.860  -2.199  23.969  0.00  0.00    +0.149 A 
ATOM      3  N   UNL     1       6.009  -2.346  22.630  0.00  0.00    -0.292 N 
ATOM      4  H   UNL     1       6.377  -1.569  22.086  0.00  0.00    +0.172 HD
ATOM      5  C   UNL     1       5.546  -3.440  21.961  0.00  0.00    +0.328 A 
ATOM      6  N   UNL     1       4.947  -4.404  22.740  0.00  0.00    -0.273 N 
ATOM      7  H   UNL     1       4.559  -5.197  22.251  0.00  0.00    +0.173 HD
ATOM      8  C   UNL     1       4.695  -4.314  24.091  0.00  0.00    +0.280 A 
ATOM      9  O   UNL     1       4.035  -5.154  24.684  0.00  0.00    -0.265 OA
ATOM     10  O   UNL     1       5.628  -3.556  20.744  0.00  0.00    -0.247 OA
ATOM     11  C   UNL     1       5.260  -3.113  24.733  0.00  0.00    +0.152 A 
ATOM     12  N   UNL     1       5.263  -2.683  26.042  0.00  0.00    -0.286 N 
ATOM     13  C   UNL     1       5.873  -1.403  26.076  0.00  0.00    +0.331 A 
ATOM     14  O   UNL     1       6.028  -0.675  27.044  0.00  0.00    -0.246 OA
ENDROOT
BRANCH  12  15
ATOM     15  C   UNL     1       4.690  -3.303  27.210  0.00  0.00    +0.127 C 
BRANCH  15  16
ATOM     16  C   UNL     1       5.643  -4.145  28.052  0.00  0.00    +0.024 C 
BRANCH  16  17
ATOM     17  C   UNL     1       6.246  -5.352  27.342  0.00  0.00    +0.030 C 
BRANCH  17  18
ATOM     18  C   UNL     1       7.678  -5.018  26.948  0.00  0.00    +0.172 C 
BRANCH  18  19
ATOM     19  O   UNL     1       7.905  -5.381  25.596  0.00  0.00    -0.287 OA
BRANCH  19  20
ATOM     20  P   UNL     1       9.003  -4.287  24.827  0.00  0.00    +0.472 P 
ATOM     21  O   UNL     1       9.985  -3.308  24.139  0.00  0.00    -0.228 OA
BRANCH  20  22
ATOM     22  O   UNL     1      10.022  -5.569  24.847  0.00  0.00    -0.303 OA
ATOM     23  H   UNL     1      10.175  -5.882  23.937  0.00  0.00    +0.222 HD
ENDBRANCH  20  22
BRANCH  20  24
ATOM     24  O   UNL     1       8.216  -4.764  23.475  0.00  0.00    -0.303 OA
ATOM     25  H   UNL     1       8.096  -3.962  22.932  0.00  0.00    +0.222 HD
ENDBRANCH  20  24
ENDBRANCH  19  20
ENDBRANCH  18  19
ENDBRANCH  17  18
ENDBRANCH  16  17
ENDBRANCH  15  16
ENDBRANCH  12  15
BRANCH   1  26
ATOM     26  C   UNL     1       6.979   0.041  24.322  0.00  0.00    +0.162 C 
BRANCH  26  27
ATOM     27  C   UNL     1       8.509  -0.108  24.353  0.00  0.00    +0.165 C 
BRANCH  27  28
ATOM     28  O   UNL     1       8.957  -0.161  25.732  0.00  0.00    -0.387 OA
ATOM     29  H   UNL     1       9.177  -1.094  25.909  0.00  0.00    +0.210 HD
ENDBRANCH  27  28
BRANCH  27  30
ATOM     30  C   UNL     1       9.283   1.063  23.707  0.00  0.00    +0.175 C 
BRANCH  30  31
ATOM     31  O   UNL     1      10.265   1.512  24.662  0.00  0.00    -0.387 OA
ATOM     32  H   UNL     1      10.499   2.424  24.415  0.00  0.00    +0.210 HD
ENDBRANCH  30  31
BRANCH  30  33
ATOM     33  C   UNL     1       9.976   0.809  22.360  0.00  0.00    +0.171 C 
BRANCH  33  34
ATOM     34  O   UNL     1       9.955   1.985  21.545  0.00  0.00    -0.387 OA
ATOM     35  H   UNL     1      10.267   1.684  20.666  0.00  0.00    +0.210 HD
ENDBRANCH  33  34
BRANCH  33  36
ATOM     36  C   UNL     1       9.415  -0.373  21.565  0.00  0.00    +0.189 C 
BRANCH  36  37
ATOM     37  O   UNL     1      10.329  -1.466  21.720  0.00  0.00    -0.392 OA
ATOM     38  H   UNL     1      11.135  -1.106  22.132  0.00  0.00    +0.210 HD
ENDBRANCH  36  37
ENDBRANCH  33  36
ENDBRANCH  30  33
ENDBRANCH  27  30
ENDBRANCH  26  27
ENDBRANCH   1  26
TORSDOF 17
ENDMDL
MODEL 4
REMARK VINA RESULT:      -6.1      2.211      3.555
REMARK  Name = 
REMARK  17 active torsions:
REMARK  status: ('A' for Active; 'I' for Inactive)
REMARK    1  A    between atoms: O_1  and  C_2
REMARK    2  A    between atoms: C_2  and  C_3
REMARK    3  A    between atoms: C_3  and  O_5
REMARK    4  A    between atoms: C_3  and  C_6
REMARK    5  A    between atoms: C_6  and  O_8
REMARK    6  A    between atoms: C_6  and  C_9
REMARK    7  A    between atoms: C_9  and  O_11
REMARK    8  A    between atoms: C_9  and  C_12
REMARK    9  A    between atoms: C_12  and  N_13
REMARK   10  A    between atoms: N_16  and  C_17
REMARK   11  A    between atoms: C_17  and  C_18
REMARK   12  A    between atoms: C_18  and  C_19
REMARK   13  A    between atoms: C_19  and  C_20
REMARK   14  A    between atoms: C_20  and  O_21
REMARK   15  A    between atoms: O_21  and  P_22
REMARK   16  A    between atoms: P_22  and  O_23
REMARK   17  A    between atoms: P_22  and  O_24
REMARK                            x       y       z     vdW  Elec       q    Type
REMARK                         _______ _______ _______ _____ _____    ______ ____
ROOT
ATOM      1  N   UNL     1       5.742  -2.609  23.863  0.00  0.00    -0.275 N 
ATOM      2  C   UNL     1       5.696  -3.872  23.347  0.00  0.00    +0.149 A 
ATOM      3  N   UNL     1       6.067  -4.269  22.105  0.00  0.00    -0.292 N 
ATOM      4  H   UNL     1       6.337  -3.565  21.421  0.00  0.00    +0.172 HD
ATOM      5  C   UNL     1       5.950  -5.562  21.689  0.00  0.00    +0.328 A 
ATOM      6  N   UNL     1       5.462  -6.447  22.624  0.00  0.00    -0.273 N 
ATOM      7  H   UNL     1       5.329  -7.397  22.313  0.00  0.00    +0.173 HD
ATOM      8  C   UNL     1       5.002  -6.125  23.882  0.00  0.00    +0.280 A 
ATOM      9  O   UNL     1       4.456  -6.947  24.602  0.00  0.00    -0.265 OA
ATOM     10  O   UNL     1       6.233  -5.920  20.551  0.00  0.00    -0.247 OA
ATOM     11  C   UNL     1       5.198  -4.712  24.255  0.00  0.00    +0.152 A 
ATOM     12  N   UNL     1       4.918  -4.017  25.411  0.00  0.00    -0.286 N 
ATOM     13  C   UNL     1       5.231  -2.652  25.183  0.00  0.00    +0.331 A 
ATOM     14  O   UNL     1       5.084  -1.715  25.950  0.00  0.00    -0.246 OA
ENDROOT
BRANCH  12  15
ATOM     15  C   UNL     1       4.325  -4.485  26.639  0.00  0.00    +0.127 C 
BRANCH  15  16
ATOM     16  C   UNL     1       5.287  -4.695  27.805  0.00  0.00    +0.024 C 
BRANCH  16  17
ATOM     17  C   UNL     1       6.284  -5.834  27.629  0.00  0.00    +0.030 C 
BRANCH  17  18
ATOM     18  C   UNL     1       7.632  -5.243  27.239  0.00  0.00    +0.172 C 
BRANCH  18  19
ATOM     19  O   UNL     1       8.086  -5.830  26.031  0.00  0.00    -0.287 OA
BRANCH  19  20
ATOM     20  P   UNL     1       9.045  -4.721  25.114  0.00  0.00    +0.472 P 
ATOM     21  O   UNL     1       9.905  -3.728  24.294  0.00  0.00    -0.228 OA
BRANCH  20  22
ATOM     22  O   UNL     1       8.742  -3.699  26.358  0.00  0.00    -0.303 OA
ATOM     23  H   UNL     1       9.319  -3.917  27.112  0.00  0.00    +0.222 HD
ENDBRANCH  20  22
BRANCH  20  24
ATOM     24  O   UNL     1      10.283  -5.481  25.867  0.00  0.00    -0.303 OA
ATOM     25  H   UNL     1      10.444  -6.302  25.364  0.00  0.00    +0.222 HD
ENDBRANCH  20  24
ENDBRANCH  19  20
ENDBRANCH  18  19
ENDBRANCH  17  18
ENDBRANCH  16  17
ENDBRANCH  15  16
ENDBRANCH  12  15
BRANCH   1  26
ATOM     26  C   UNL     1       6.248  -1.407  23.234  0.00  0.00    +0.162 C 
BRANCH  26  27
ATOM     27  C   UNL     1       7.759  -1.187  23.417  0.00  0.00    +0.165 C 
BRANCH  27  28
ATOM     28  O   UNL     1       8.080  -1.214  24.832  0.00  0.00    -0.387 OA
ATOM     29  H   UNL     1       7.603  -0.465  25.233  0.00  0.00    +0.210 HD
ENDBRANCH  27  28
BRANCH  27  30
ATOM     30  C   UNL     1       8.280   0.173  22.898  0.00  0.00    +0.175 C 
BRANCH  30  31
ATOM     31  O   UNL     1       7.930   1.173  23.876  0.00  0.00    -0.387 OA
ATOM     32  H   UNL     1       7.654   0.695  24.678  0.00  0.00    +0.210 HD
ENDBRANCH  30  31
BRANCH  30  33
ATOM     33  C   UNL     1       9.776   0.292  22.574  0.00  0.00    +0.171 C 
BRANCH  33  34
ATOM     34  O   UNL     1      10.574  -0.121  23.688  0.00  0.00    -0.387 OA
ATOM     35  H   UNL     1      10.126  -0.923  24.031  0.00  0.00    +0.210 HD
ENDBRANCH  33  34
BRANCH  33  36
ATOM     36  C   UNL     1      10.223   1.682  22.114  0.00  0.00    +0.189 C 
BRANCH  36  37
ATOM     37  O   UNL     1       9.118   2.281  21.426  0.00  0.00    -0.392 OA
ATOM     38  H   UNL     1       8.646   1.564  20.966  0.00  0.00    +0.210 HD
ENDBRANCH  36  37
ENDBRANCH  33  36
ENDBRANCH  30  33
ENDBRANCH  27  30
ENDBRANCH  26  27
ENDBRANCH   1  26
TORSDOF 17
ENDMDL
MODEL 5
REMARK VINA RESULT:      -6.1      2.318      3.861
REMARK  Name = 
REMARK  17 active torsions:
REMARK  status: ('A' for Active; 'I' for Inactive)
REMARK    1  A    between atoms: O_1  and  C_2
REMARK    2  A    between atoms: C_2  and  C_3
REMARK    3  A    between atoms: C_3  and  O_5
REMARK    4  A    between atoms: C_3  and  C_6
REMARK    5  A    between atoms: C_6  and  O_8
REMARK    6  A    between atoms: C_6  and  C_9
REMARK    7  A    between atoms: C_9  and  O_11
REMARK    8  A    between atoms: C_9  and  C_12
REMARK    9  A    between atoms: C_12  and  N_13
REMARK   10  A    between atoms: N_16  and  C_17
REMARK   11  A    between atoms: C_17  and  C_18
REMARK   12  A    between atoms: C_18  and  C_19
REMARK   13  A    between atoms: C_19  and  C_20
REMARK   14  A    between atoms: C_20  and  O_21
REMARK   15  A    between atoms: O_21  and  P_22
REMARK   16  A    between atoms: P_22  and  O_23
REMARK   17  A    between atoms: P_22  and  O_24
REMARK                            x       y       z     vdW  Elec       q    Type
REMARK                         _______ _______ _______ _____ _____    ______ ____
ROOT
ATOM      1  N   UNL     1       7.958  -4.029  24.169  0.00  0.00    -0.275 N 
ATOM      2  C   UNL     1       7.091  -4.746  23.395  0.00  0.00    +0.149 A 
ATOM      3  N   UNL     1       7.046  -4.799  22.042  0.00  0.00    -0.292 N 
ATOM      4  H   UNL     1       7.653  -4.186  21.503  0.00  0.00    +0.172 HD
ATOM      5  C   UNL     1       6.112  -5.533  21.373  0.00  0.00    +0.328 A 
ATOM      6  N   UNL     1       5.238  -6.247  22.163  0.00  0.00    -0.273 N 
ATOM      7  H   UNL     1       4.514  -6.758  21.680  0.00  0.00    +0.173 HD
ATOM      8  C   UNL     1       5.169  -6.204  23.538  0.00  0.00    +0.280 A 
ATOM      9  O   UNL     1       4.276  -6.761  24.158  0.00  0.00    -0.265 OA
ATOM     10  O   UNL     1       6.029  -5.544  20.151  0.00  0.00    -0.247 OA
ATOM     11  C   UNL     1       6.237  -5.411  24.174  0.00  0.00    +0.152 A 
ATOM     12  N   UNL     1       6.535  -5.159  25.495  0.00  0.00    -0.286 N 
ATOM     13  C   UNL     1       7.623  -4.250  25.528  0.00  0.00    +0.331 A 
ATOM     14  O   UNL     1       8.152  -3.754  26.510  0.00  0.00    -0.246 OA
ENDROOT
BRANCH  12  15
ATOM     15  C   UNL     1       5.863  -5.612  26.687  0.00  0.00    +0.127 C 
BRANCH  15  16
ATOM     16  C   UNL     1       4.571  -4.883  27.041  0.00  0.00    +0.024 C 
BRANCH  16  17
ATOM     17  C   UNL     1       4.738  -3.422  27.444  0.00  0.00    +0.030 C 
BRANCH  17  18
ATOM     18  C   UNL     1       3.970  -2.556  26.455  0.00  0.00    +0.172 C 
BRANCH  18  19
ATOM     19  O   UNL     1       4.816  -2.186  25.379  0.00  0.00    -0.287 OA
BRANCH  19  20
ATOM     20  P   UNL     1       5.729  -0.766  25.757  0.00  0.00    +0.472 P 
ATOM     21  O   UNL     1       6.546   0.505  26.096  0.00  0.00    -0.228 OA
BRANCH  20  22
ATOM     22  O   UNL     1       5.631  -0.484  24.147  0.00  0.00    -0.303 OA
ATOM     23  H   UNL     1       6.506  -0.609  23.737  0.00  0.00    +0.222 HD
ENDBRANCH  20  22
BRANCH  20  24
ATOM     24  O   UNL     1       4.252  -0.147  26.090  0.00  0.00    -0.303 OA
ATOM     25  H   UNL     1       3.604  -0.755  25.684  0.00  0.00    +0.222 HD
ENDBRANCH  20  24
ENDBRANCH  19  20
ENDBRANCH  18  19
ENDBRANCH  17  18
ENDBRANCH  16  17
ENDBRANCH  15  16
ENDBRANCH  12  15
BRANCH   1  26
ATOM     26  C   UNL     1       9.067  -3.204  23.737  0.00  0.00    +0.162 C 
BRANCH  26  27
ATOM     27  C   UNL     1       8.702  -1.728  23.504  0.00  0.00    +0.165 C 
BRANCH  27  28
ATOM     28  O   UNL     1       7.794  -1.631  22.376  0.00  0.00    -0.387 OA
ATOM     29  H   UNL     1       8.060  -2.332  21.753  0.00  0.00    +0.210 HD
ENDBRANCH  27  28
BRANCH  27  30
ATOM     30  C   UNL     1       9.900  -0.817  23.155  0.00  0.00    +0.175 C 
BRANCH  30  31
ATOM     31  O   UNL     1      10.328  -1.155  21.820  0.00  0.00    -0.387 OA
ATOM     32  H   UNL     1       9.538  -1.467  21.344  0.00  0.00    +0.210 HD
ENDBRANCH  30  31
BRANCH  30  33
ATOM     33  C   UNL     1       9.695   0.703  23.244  0.00  0.00    +0.171 C 
BRANCH  33  34
ATOM     34  O   UNL     1       8.389   1.014  23.739  0.00  0.00    -0.387 OA
ATOM     35  H   UNL     1       8.547   1.437  24.609  0.00  0.00    +0.210 HD
ENDBRANCH  33  34
BRANCH  33  36
ATOM     36  C   UNL     1       9.939   1.460  21.936  0.00  0.00    +0.189 C 
BRANCH  36  37
ATOM     37  O   UNL     1       8.885   1.105  21.032  0.00  0.00    -0.392 OA
ATOM     38  H   UNL     1       9.306   0.820  20.202  0.00  0.00    +0.210 HD
ENDBRANCH  36  37
ENDBRANCH  33  36
ENDBRANCH  30  33
ENDBRANCH  27  30
ENDBRANCH  26  27
ENDBRANCH   1  26
TORSDOF 17
ENDMDL
MODEL 6
REMARK VINA RESULT:      -6.0      2.704      7.072
REMARK  Name = 
REMARK  17 active torsions:
REMARK  status: ('A' for Active; 'I' for Inactive)
REMARK    1  A    between atoms: O_1  and  C_2
REMARK    2  A    between atoms: C_2  and  C_3
REMARK    3  A    between atoms: C_3  and  O_5
REMARK    4  A    between atoms: C_3  and  C_6
REMARK    5  A    between atoms: C_6  and  O_8
REMARK    6  A    between atoms: C_6  and  C_9
REMARK    7  A    between atoms: C_9  and  O_11
REMARK    8  A    between atoms: C_9  and  C_12
REMARK    9  A    between atoms: C_12  and  N_13
REMARK   10  A    between atoms: N_16  and  C_17
REMARK   11  A    between atoms: C_17  and  C_18
REMARK   12  A    between atoms: C_18  and  C_19
REMARK   13  A    between atoms: C_19  and  C_20
REMARK   14  A    between atoms: C_20  and  O_21
REMARK   15  A    between atoms: O_21  and  P_22
REMARK   16  A    between atoms: P_22  and  O_23
REMARK   17  A    between atoms: P_22  and  O_24
REMARK                            x       y       z     vdW  Elec       q    Type
REMARK                         _______ _______ _______ _____ _____    ______ ____
ROOT
ATOM      1  N   UNL     1       6.259  -5.363  25.521  0.00  0.00    -0.275 N 
ATOM      2  C   UNL     1       6.533  -4.919  24.260  0.00  0.00    +0.149 A 
ATOM      3  N   UNL     1       6.021  -5.382  23.093  0.00  0.00    -0.292 N 
ATOM      4  H   UNL     1       5.427  -6.208  23.108  0.00  0.00    +0.172 HD
ATOM      5  C   UNL     1       6.392  -4.874  21.883  0.00  0.00    +0.328 A 
ATOM      6  N   UNL     1       7.295  -3.836  21.924  0.00  0.00    -0.273 N 
ATOM      7  H   UNL     1       7.612  -3.483  21.034  0.00  0.00    +0.173 HD
ATOM      8  C   UNL     1       7.914  -3.344  23.053  0.00  0.00    +0.280 A 
ATOM      9  O   UNL     1       8.808  -2.513  22.991  0.00  0.00    -0.265 OA
ATOM     10  O   UNL     1       5.976  -5.322  20.821  0.00  0.00    -0.247 OA
ATOM     11  C   UNL     1       7.427  -3.931  24.315  0.00  0.00    +0.152 A 
ATOM     12  N   UNL     1       7.754  -3.686  25.631  0.00  0.00    -0.286 N 
ATOM     13  C   UNL     1       7.039  -4.612  26.434  0.00  0.00    +0.331 A 
ATOM     14  O   UNL     1       7.089  -4.743  27.646  0.00  0.00    -0.246 OA
ENDROOT
BRANCH  12  15
ATOM     15  C   UNL     1       8.705  -2.753  26.179  0.00  0.00    +0.127 C 
BRANCH  15  16
ATOM     16  C   UNL     1       8.322  -1.279  26.087  0.00  0.00    +0.024 C 
BRANCH  16  17
ATOM     17  C   UNL     1       9.447  -0.340  25.667  0.00  0.00    +0.030 C 
BRANCH  17  18
ATOM     18  C   UNL     1       8.890   0.671  24.675  0.00  0.00    +0.172 C 
BRANCH  18  19
ATOM     19  O   UNL     1       9.764   0.790  23.565  0.00  0.00    -0.287 OA
BRANCH  19  20
ATOM     20  P   UNL     1       8.896   1.189  22.122  0.00  0.00    +0.472 P 
ATOM     21  O   UNL     1       8.120   1.546  20.831  0.00  0.00    -0.228 OA
BRANCH  20  22
ATOM     22  O   UNL     1      10.188   2.149  21.818  0.00  0.00    -0.303 OA
ATOM     23  H   UNL     1      10.888   1.977  22.473  0.00  0.00    +0.222 HD
ENDBRANCH  20  22
BRANCH  20  24
ATOM     24  O   UNL     1       9.607  -0.172  21.558  0.00  0.00    -0.303 OA
ATOM     25  H   UNL     1      10.076  -0.569  22.316  0.00  0.00    +0.222 HD
ENDBRANCH  20  24
ENDBRANCH  19  20
ENDBRANCH  18  19
ENDBRANCH  17  18
ENDBRANCH  16  17
ENDBRANCH  15  16
ENDBRANCH  12  15
BRANCH   1  26
ATOM     26  C   UNL     1       5.319  -6.390  25.920  0.00  0.00    +0.162 C 
BRANCH  26  27
ATOM     27  C   UNL     1       3.857  -6.085  25.553  0.00  0.00    +0.165 C 
BRANCH  27  28
ATOM     28  O   UNL     1       3.006  -6.380  26.691  0.00  0.00    -0.387 OA
ATOM     29  H   UNL     1       2.980  -7.351  26.766  0.00  0.00    +0.210 HD
ENDBRANCH  27  28
BRANCH  27  30
ATOM     30  C   UNL     1       3.297  -6.927  24.384  0.00  0.00    +0.175 C 
BRANCH  30  31
ATOM     31  O   UNL     1       4.405  -7.632  23.790  0.00  0.00    -0.387 OA
ATOM     32  H   UNL     1       5.211  -7.307  24.227  0.00  0.00    +0.210 HD
ENDBRANCH  30  31
BRANCH  30  33
ATOM     33  C   UNL     1       2.175  -7.929  24.695  0.00  0.00    +0.171 C 
BRANCH  33  34
ATOM     34  O   UNL     1       2.688  -9.071  25.389  0.00  0.00    -0.387 OA
ATOM     35  H   UNL     1       3.660  -9.013  25.277  0.00  0.00    +0.210 HD
ENDBRANCH  33  34
BRANCH  33  36
ATOM     36  C   UNL     1       1.373  -8.390  23.475  0.00  0.00    +0.189 C 
BRANCH  36  37
ATOM     37  O   UNL     1       1.924  -7.734  22.327  0.00  0.00    -0.392 OA
ATOM     38  H   UNL     1       2.584  -8.340  21.942  0.00  0.00    +0.210 HD
ENDBRANCH  36  37
ENDBRANCH  33  36
ENDBRANCH  30  33
ENDBRANCH  27  30
ENDBRANCH  26  27
ENDBRANCH   1  26
TORSDOF 17
ENDMDL
MODEL 7
REMARK VINA RESULT:      -5.8      2.093      4.173
REMARK  Name = 
REMARK  17 active torsions:
REMARK  status: ('A' for Active; 'I' for Inactive)
REMARK    1  A    between atoms: O_1  and  C_2
REMARK    2  A    between atoms: C_2  and  C_3
REMARK    3  A    between atoms: C_3  and  O_5
REMARK    4  A    between atoms: C_3  and  C_6
REMARK    5  A    between atoms: C_6  and  O_8
REMARK    6  A    between atoms: C_6  and  C_9
REMARK    7  A    between atoms: C_9  and  O_11
REMARK    8  A    between atoms: C_9  and  C_12
REMARK    9  A    between atoms: C_12  and  N_13
REMARK   10  A    between atoms: N_16  and  C_17
REMARK   11  A    between atoms: C_17  and  C_18
REMARK   12  A    between atoms: C_18  and  C_19
REMARK   13  A    between atoms: C_19  and  C_20
REMARK   14  A    between atoms: C_20  and  O_21
REMARK   15  A    between atoms: O_21  and  P_22
REMARK   16  A    between atoms: P_22  and  O_23
REMARK   17  A    between atoms: P_22  and  O_24
REMARK                            x       y       z     vdW  Elec       q    Type
REMARK                         _______ _______ _______ _____ _____    ______ ____
ROOT
ATOM      1  N   UNL     1       8.696  -1.283  23.467  0.00  0.00    -0.275 N 
ATOM      2  C   UNL     1       7.581  -0.907  24.159  0.00  0.00    +0.149 A 
ATOM      3  N   UNL     1       6.791   0.169  23.927  0.00  0.00    -0.292 N 
ATOM      4  H   UNL     1       7.072   0.845  23.221  0.00  0.00    +0.172 HD
ATOM      5  C   UNL     1       5.710   0.460  24.706  0.00  0.00    +0.328 A 
ATOM      6  N   UNL     1       5.452  -0.430  25.725  0.00  0.00    -0.273 N 
ATOM      7  H   UNL     1       4.683  -0.200  26.335  0.00  0.00    +0.173 HD
ATOM      8  C   UNL     1       6.233  -1.510  26.073  0.00  0.00    +0.280 A 
ATOM      9  O   UNL     1       6.011  -2.172  27.076  0.00  0.00    -0.265 OA
ATOM     10  O   UNL     1       5.022   1.460  24.537  0.00  0.00    -0.247 OA
ATOM     11  C   UNL     1       7.359  -1.765  25.157  0.00  0.00    +0.152 A 
ATOM     12  N   UNL     1       8.325  -2.747  25.134  0.00  0.00    -0.286 N 
ATOM     13  C   UNL     1       9.220  -2.451  24.074  0.00  0.00    +0.331 A 
ATOM     14  O   UNL     1      10.228  -3.060  23.756  0.00  0.00    -0.246 OA
ENDROOT
BRANCH  12  15
ATOM     15  C   UNL     1       8.527  -3.852  26.037  0.00  0.00    +0.127 C 
BRANCH  15  16
ATOM     16  C   UNL     1       8.038  -5.211  25.546  0.00  0.00    +0.024 C 
BRANCH  16  17
ATOM     17  C   UNL     1       6.529  -5.419  25.600  0.00  0.00    +0.030 C 
BRANCH  17  18
ATOM     18  C   UNL     1       5.979  -5.357  24.182  0.00  0.00    +0.172 C 
BRANCH  18  19
ATOM     19  O   UNL     1       7.045  -5.242  23.255  0.00  0.00    -0.287 OA
BRANCH  19  20
ATOM     20  P   UNL     1       6.486  -5.427  21.629  0.00  0.00    +0.472 P 
ATOM     21  O   UNL     1       5.986  -5.593  20.173  0.00  0.00    -0.228 OA
BRANCH  20  22
ATOM     22  O   UNL     1       5.831  -6.817  22.196  0.00  0.00    -0.303 OA
ATOM     23  H   UNL     1       6.014  -6.902  23.149  0.00  0.00    +0.222 HD
ENDBRANCH  20  22
BRANCH  20  24
ATOM     24  O   UNL     1       5.261  -4.479  22.153  0.00  0.00    -0.303 OA
ATOM     25  H   UNL     1       4.437  -4.962  21.952  0.00  0.00    +0.222 HD
ENDBRANCH  20  24
ENDBRANCH  19  20
ENDBRANCH  18  19
ENDBRANCH  17  18
ENDBRANCH  16  17
ENDBRANCH  15  16
ENDBRANCH  12  15
BRANCH   1  26
ATOM     26  C   UNL     1       9.269  -0.660  22.292  0.00  0.00    +0.162 C 
BRANCH  26  27
ATOM     27  C   UNL     1      10.237   0.495  22.598  0.00  0.00    +0.165 C 
BRANCH  27  28
ATOM     28  O   UNL     1      10.555   0.492  24.013  0.00  0.00    -0.387 OA
ATOM     29  H   UNL     1       9.838   0.984  24.453  0.00  0.00    +0.210 HD
ENDBRANCH  27  28
BRANCH  27  30
ATOM     30  C   UNL     1       9.674   1.903  22.300  0.00  0.00    +0.175 C 
BRANCH  30  31
ATOM     31  O   UNL     1       8.702   1.767  21.244  0.00  0.00    -0.387 OA
ATOM     32  H   UNL     1       7.914   2.267  21.522  0.00  0.00    +0.210 HD
ENDBRANCH  30  31
BRANCH  30  33
ATOM     33  C   UNL     1       9.042   2.684  23.462  0.00  0.00    +0.171 C 
BRANCH  33  34
ATOM     34  O   UNL     1       7.643   2.886  23.241  0.00  0.00    -0.387 OA
ATOM     35  H   UNL     1       7.267   1.982  23.184  0.00  0.00    +0.210 HD
ENDBRANCH  33  34
BRANCH  33  36
ATOM     36  C   UNL     1       9.710   4.026  23.770  0.00  0.00    +0.189 C 
BRANCH  36  37
ATOM     37  O   UNL     1       9.039   5.026  22.993  0.00  0.00    -0.392 OA
ATOM     38  H   UNL     1       8.297   4.586  22.542  0.00  0.00    +0.210 HD
ENDBRANCH  36  37
ENDBRANCH  33  36
ENDBRANCH  30  33
ENDBRANCH  27  30
ENDBRANCH  26  27
ENDBRANCH   1  26
TORSDOF 17
ENDMDL
MODEL 8
REMARK VINA RESULT:      -5.8      2.285      4.195
REMARK  Name = 
REMARK  17 active torsions:
REMARK  status: ('A' for Active; 'I' for Inactive)
REMARK    1  A    between atoms: O_1  and  C_2
REMARK    2  A    between atoms: C_2  and  C_3
REMARK    3  A    between atoms: C_3  and  O_5
REMARK    4  A    between atoms: C_3  and  C_6
REMARK    5  A    between atoms: C_6  and  O_8
REMARK    6  A    between atoms: C_6  and  C_9
REMARK    7  A    between atoms: C_9  and  O_11
REMARK    8  A    between atoms: C_9  and  C_12
REMARK    9  A    between atoms: C_12  and  N_13
REMARK   10  A    between atoms: N_16  and  C_17
REMARK   11  A    between atoms: C_17  and  C_18
REMARK   12  A    between atoms: C_18  and  C_19
REMARK   13  A    between atoms: C_19  and  C_20
REMARK   14  A    between atoms: C_20  and  O_21
REMARK   15  A    between atoms: O_21  and  P_22
REMARK   16  A    between atoms: P_22  and  O_23
REMARK   17  A    between atoms: P_22  and  O_24
REMARK                            x       y       z     vdW  Elec       q    Type
REMARK                         _______ _______ _______ _____ _____    ______ ____
ROOT
ATOM      1  N   UNL     1       7.997  -1.428  23.753  0.00  0.00    -0.275 N 
ATOM      2  C   UNL     1       7.375  -1.185  24.944  0.00  0.00    +0.149 A 
ATOM      3  N   UNL     1       7.813  -0.396  25.955  0.00  0.00    -0.292 N 
ATOM      4  H   UNL     1       8.744   0.011  25.897  0.00  0.00    +0.172 HD
ATOM      5  C   UNL     1       7.116  -0.249  27.117  0.00  0.00    +0.328 A 
ATOM      6  N   UNL     1       5.918  -0.926  27.184  0.00  0.00    -0.273 N 
ATOM      7  H   UNL     1       5.415  -0.861  28.056  0.00  0.00    +0.173 HD
ATOM      8  C   UNL     1       5.426  -1.796  26.236  0.00  0.00    +0.280 A 
ATOM      9  O   UNL     1       4.422  -2.464  26.430  0.00  0.00    -0.265 OA
ATOM     10  O   UNL     1       7.530   0.418  28.058  0.00  0.00    -0.247 OA
ATOM     11  C   UNL     1       6.230  -1.867  25.002  0.00  0.00    +0.152 A 
ATOM     12  N   UNL     1       6.060  -2.570  23.830  0.00  0.00    -0.286 N 
ATOM     13  C   UNL     1       7.195  -2.332  23.013  0.00  0.00    +0.331 A 
ATOM     14  O   UNL     1       7.437  -2.807  21.915  0.00  0.00    -0.246 OA
ENDROOT
BRANCH  12  15
ATOM     15  C   UNL     1       5.007  -3.479  23.454  0.00  0.00    +0.127 C 
BRANCH  15  16
ATOM     16  C   UNL     1       5.110  -4.890  24.025  0.00  0.00    +0.024 C 
BRANCH  16  17
ATOM     17  C   UNL     1       6.494  -5.293  24.520  0.00  0.00    +0.030 C 
BRANCH  17  18
ATOM     18  C   UNL     1       6.392  -5.676  25.990  0.00  0.00    +0.172 C 
BRANCH  18  19
ATOM     19  O   UNL     1       7.689  -5.796  26.550  0.00  0.00    -0.287 OA
BRANCH  19  20
ATOM     20  P   UNL     1       8.871  -4.994  25.574  0.00  0.00    +0.472 P 
ATOM     21  O   UNL     1       9.929  -4.277  24.700  0.00  0.00    -0.228 OA
BRANCH  20  22
ATOM     22  O   UNL     1       9.545  -4.605  27.015  0.00  0.00    -0.303 OA
ATOM     23  H   UNL     1       8.986  -4.938  27.740  0.00  0.00    +0.222 HD
ENDBRANCH  20  22
BRANCH  20  24
ATOM     24  O   UNL     1       9.540  -6.485  25.513  0.00  0.00    -0.303 OA
ATOM     25  H   UNL     1       8.944  -7.072  26.015  0.00  0.00    +0.222 HD
ENDBRANCH  20  24
ENDBRANCH  19  20
ENDBRANCH  18  19
ENDBRANCH  17  18
ENDBRANCH  16  17
ENDBRANCH  15  16
ENDBRANCH  12  15
BRANCH   1  26
ATOM     26  C   UNL     1       9.236  -0.864  23.261  0.00  0.00    +0.162 C 
BRANCH  26  27
ATOM     27  C   UNL     1       9.080   0.510  22.587  0.00  0.00    +0.165 C 
BRANCH  27  28
ATOM     28  O   UNL     1       9.040   0.336  21.147  0.00  0.00    -0.387 OA
ATOM     29  H   UNL     1       9.631  -0.414  20.949  0.00  0.00    +0.210 HD
ENDBRANCH  27  28
BRANCH  27  30
ATOM     30  C   UNL     1      10.241   1.494  22.856  0.00  0.00    +0.175 C 
BRANCH  30  31
ATOM     31  O   UNL     1      10.433   2.275  21.660  0.00  0.00    -0.387 OA
ATOM     32  H   UNL     1      10.989   3.035  21.908  0.00  0.00    +0.210 HD
ENDBRANCH  30  31
BRANCH  30  33
ATOM     33  C   UNL     1      10.114   2.443  24.057  0.00  0.00    +0.171 C 
BRANCH  33  34
ATOM     34  O   UNL     1       9.121   1.974  24.975  0.00  0.00    -0.387 OA
ATOM     35  H   UNL     1       8.677   2.788  25.297  0.00  0.00    +0.210 HD
ENDBRANCH  33  34
BRANCH  33  36
ATOM     36  C   UNL     1       9.827   3.901  23.694  0.00  0.00    +0.189 C 
BRANCH  36  37
ATOM     37  O   UNL     1       8.656   3.914  22.868  0.00  0.00    -0.392 OA
ATOM     38  H   UNL     1       8.163   3.096  23.060  0.00  0.00    +0.210 HD
ENDBRANCH  36  37
ENDBRANCH  33  36
ENDBRANCH  30  33
ENDBRANCH  27  30
ENDBRANCH  26  27
ENDBRANCH   1  26
TORSDOF 17
ENDMDL
MODEL 9
REMARK VINA RESULT:      -5.7      2.809      7.205
REMARK  Name = 
REMARK  17 active torsions:
REMARK  status: ('A' for Active; 'I' for Inactive)
REMARK    1  A    between atoms: O_1  and  C_2
REMARK    2  A    between atoms: C_2  and  C_3
REMARK    3  A    between atoms: C_3  and  O_5
REMARK    4  A    between atoms: C_3  and  C_6
REMARK    5  A    between atoms: C_6  and  O_8
REMARK    6  A    between atoms: C_6  and  C_9
REMARK    7  A    between atoms: C_9  and  O_11
REMARK    8  A    between atoms: C_9  and  C_12
REMARK    9  A    between atoms: C_12  and  N_13
REMARK   10  A    between atoms: N_16  and  C_17
REMARK   11  A    between atoms: C_17  and  C_18
REMARK   12  A    between atoms: C_18  and  C_19
REMARK   13  A    between atoms: C_19  and  C_20
REMARK   14  A    between atoms: C_20  and  O_21
REMARK   15  A    between atoms: O_21  and  P_22
REMARK   16  A    between atoms: P_22  and  O_23
REMARK   17  A    between atoms: P_22  and  O_24
REMARK                            x       y       z     vdW  Elec       q    Type
REMARK                         _______ _______ _______ _____ _____    ______ ____
ROOT
ATOM      1  N   UNL     1       8.530  -2.488  24.634  0.00  0.00    -0.275 N 
ATOM      2  C   UNL     1       7.533  -1.556  24.596  0.00  0.00    +0.149 A 
ATOM      3  N   UNL     1       6.449  -1.476  25.405  0.00  0.00    -0.292 N 
ATOM      4  H   UNL     1       6.275  -2.222  26.074  0.00  0.00    +0.172 HD
ATOM      5  C   UNL     1       5.499  -0.509  25.254  0.00  0.00    +0.328 A 
ATOM      6  N   UNL     1       5.730   0.402  24.249  0.00  0.00    -0.273 N 
ATOM      7  H   UNL     1       5.011   1.095  24.099  0.00  0.00    +0.173 HD
ATOM      8  C   UNL     1       6.766   0.363  23.342  0.00  0.00    +0.280 A 
ATOM      9  O   UNL     1       6.825   1.130  22.393  0.00  0.00    -0.265 OA
ATOM     10  O   UNL     1       4.488  -0.461  25.946  0.00  0.00    -0.247 OA
ATOM     11  C   UNL     1       7.759  -0.695  23.602  0.00  0.00    +0.152 A 
ATOM     12  N   UNL     1       8.933  -1.034  22.965  0.00  0.00    -0.286 N 
ATOM     13  C   UNL     1       9.442  -2.203  23.588  0.00  0.00    +0.331 A 
ATOM     14  O   UNL     1      10.441  -2.834  23.286  0.00  0.00    -0.246 OA
ENDROOT
BRANCH  12  15
ATOM     15  C   UNL     1       9.555  -0.433  21.813  0.00  0.00    +0.127 C 
BRANCH  15  16
ATOM     16  C   UNL     1      10.102   0.977  22.011  0.00  0.00    +0.024 C 
BRANCH  16  17
ATOM     17  C   UNL     1      10.491   1.329  23.443  0.00  0.00    +0.030 C 
BRANCH  17  18
ATOM     18  C   UNL     1      10.148   2.790  23.694  0.00  0.00    +0.172 C 
BRANCH  18  19
ATOM     19  O   UNL     1       8.898   2.886  24.356  0.00  0.00    -0.287 OA
BRANCH  19  20
ATOM     20  P   UNL     1       8.093   4.367  23.970  0.00  0.00    +0.472 P 
ATOM     21  O   UNL     1       7.373   5.693  23.624  0.00  0.00    -0.228 OA
BRANCH  20  22
ATOM     22  O   UNL     1       8.177   3.810  22.432  0.00  0.00    -0.303 OA
ATOM     23  H   UNL     1       7.907   2.874  22.405  0.00  0.00    +0.222 HD
ENDBRANCH  20  22
BRANCH  20  24
ATOM     24  O   UNL     1       6.756   3.507  24.350  0.00  0.00    -0.303 OA
ATOM     25  H   UNL     1       6.849   2.645  23.902  0.00  0.00    +0.222 HD
ENDBRANCH  20  24
ENDBRANCH  19  20
ENDBRANCH  18  19
ENDBRANCH  17  18
ENDBRANCH  16  17
ENDBRANCH  15  16
ENDBRANCH  12  15
BRANCH   1  26
ATOM     26  C   UNL     1       8.699  -3.575  25.576  0.00  0.00    +0.162 C 
BRANCH  26  27
ATOM     27  C   UNL     1       8.364  -4.963  25.005  0.00  0.00    +0.165 C 
BRANCH  27  28
ATOM     28  O   UNL     1       9.580  -5.589  24.522  0.00  0.00    -0.387 OA
ATOM     29  H   UNL     1       9.341  -6.041  23.692  0.00  0.00    +0.210 HD
ENDBRANCH  27  28
BRANCH  27  30
ATOM     30  C   UNL     1       7.396  -4.947  23.800  0.00  0.00    +0.175 C 
BRANCH  30  31
ATOM     31  O   UNL     1       8.023  -5.683  22.731  0.00  0.00    -0.387 OA
ATOM     32  H   UNL     1       7.475  -6.473  22.577  0.00  0.00    +0.210 HD
ENDBRANCH  30  31
BRANCH  30  33
ATOM     33  C   UNL     1       5.975  -5.488  24.014  0.00  0.00    +0.171 C 
BRANCH  33  34
ATOM     34  O   UNL     1       5.605  -6.382  22.960  0.00  0.00    -0.387 OA
ATOM     35  H   UNL     1       6.305  -6.270  22.282  0.00  0.00    +0.210 HD
ENDBRANCH  33  34
BRANCH  33  36
ATOM     36  C   UNL     1       4.898  -4.413  24.174  0.00  0.00    +0.189 C 
BRANCH  36  37
ATOM     37  O   UNL     1       5.131  -3.419  23.169  0.00  0.00    -0.392 OA
ATOM     38  H   UNL     1       5.702  -3.827  22.493  0.00  0.00    +0.210 HD
ENDBRANCH  36  37
ENDBRANCH  33  36
ENDBRANCH  30  33
ENDBRANCH  27  30
ENDBRANCH  26  27
ENDBRANCH   1  26
TORSDOF 17
ENDMDL
