MODEL 1
REMARK VINA RESULT:      53.5      0.000      0.000
REMARK  Name = 
REMARK  22 active torsions:
REMARK  status: ('A' for Active; 'I' for Inactive)
REMARK    1  A    between atoms: O_1  and  C_2
REMARK    2  A    between atoms: C_5  and  S_69
REMARK    3  A    between atoms: C_7  and  N_8
REMARK    4  A    between atoms: N_9  and  C_10
REMARK    5  A    between atoms: C_11  and  O_12
REMARK    6  A    between atoms: C_16  and  N_17
REMARK    7  A    between atoms: N_21  and  C_22
REMARK    8  A    between atoms: C_23  and  S_50
REMARK    9  A    between atoms: C_28  and  O_29
REMARK   10  A    between atoms: C_30  and  N_31
REMARK   11  A    between atoms: N_32  and  C_33
REMARK   12  A    between atoms: C_35  and  S_40
REMARK   13  A    between atoms: C_38  and  O_39
REMARK   14  A    between atoms: S_40  and  O_41
REMARK   15  A    between atoms: C_44  and  S_46
REMARK   16  A    between atoms: S_46  and  O_47
REMARK   17  A    between atoms: S_50  and  O_51
REMARK   18  A    between atoms: C_57  and  S_65
REMARK   19  A    between atoms: C_60  and  S_61
REMARK   20  A    between atoms: S_61  and  O_62
REMARK   21  A    between atoms: S_65  and  O_66
REMARK   22  A    between atoms: S_69  and  O_70
REMARK                            x       y       z     vdW  Elec       q    Type
REMARK                         _______ _______ _______ _____ _____    ______ ____
ROOT
ATOM      1  N   UNL     1       5.925   2.331  25.938  0.00  0.00    -0.282 N 
ATOM      2  H   UNL     1       6.473   2.407  25.081  0.00  0.00    +0.155 HD
ATOM      3  C   UNL     1       6.238   3.390  26.805  0.00  0.00    +0.224 A 
ATOM      4  N   UNL     1       5.667   3.429  28.004  0.00  0.00    -0.203 NA
ATOM      5  C   UNL     1       6.014   4.427  28.791  0.00  0.00    +0.228 A 
ATOM      6  N   UNL     1       6.855   5.392  28.473  0.00  0.00    -0.203 NA
ATOM      7  C   UNL     1       7.398   5.280  27.267  0.00  0.00    +0.224 A 
ATOM      8  N   UNL     1       8.257   6.330  26.937  0.00  0.00    -0.282 N 
ATOM      9  H   UNL     1       8.200   7.053  27.639  0.00  0.00    +0.155 HD
ATOM     10  N   UNL     1       7.118   4.304  26.394  0.00  0.00    -0.181 NA
ENDROOT
BRANCH   8  11
ATOM     11  C   UNL     1       9.118   6.504  25.857  0.00  0.00    +0.062 A 
ATOM     12  C   UNL     1       8.576   6.871  24.624  0.00  0.00    +0.026 A 
ATOM     13  C   UNL     1       9.365   6.929  23.460  0.00  0.00    +0.014 A 
ATOM     14  C   UNL     1      10.729   6.537  23.463  0.00  0.00    +0.028 A 
ATOM     15  C   UNL     1      11.599   6.465  22.319  0.00  0.00    +0.154 A 
ATOM     16  C   UNL     1      12.925   5.934  22.366  0.00  0.00    +0.155 A 
ATOM     17  C   UNL     1      13.375   5.493  23.601  0.00  0.00    +0.148 A 
ATOM     18  C   UNL     1      12.557   5.624  24.730  0.00  0.00    +0.042 A 
ATOM     19  C   UNL     1      11.262   6.154  24.704  0.00  0.00    +0.017 A 
ATOM     20  C   UNL     1      10.488   6.247  25.890  0.00  0.00    +0.146 A 
BRANCH  17  21
ATOM     21  S   UNL     1      14.899   4.663  23.961  0.00  0.00    +0.112 S 
ATOM     22  O   UNL     1      15.076   4.353  25.355  0.00  0.00    -0.142 OA
ATOM     23  O   UNL     1      15.931   5.370  23.229  0.00  0.00    -0.142 OA
BRANCH  21  24
ATOM     24  O   UNL     1      14.721   3.260  23.168  0.00  0.00    -0.250 OA
ATOM     25  H   UNL     1      13.823   2.912  23.355  0.00  0.00    +0.245 HD
ENDBRANCH  21  24
ENDBRANCH  17  21
BRANCH  20  26
ATOM     26  S   UNL     1      11.382   6.531  27.426  0.00  0.00    +0.112 S 
ATOM     27  O   UNL     1      10.472   7.107  28.389  0.00  0.00    -0.142 OA
ATOM     28  O   UNL     1      12.676   7.108  27.130  0.00  0.00    -0.142 OA
BRANCH  26  29
ATOM     29  O   UNL     1      11.712   5.017  27.917  0.00  0.00    -0.250 OA
ATOM     30  H   UNL     1      11.852   5.000  28.887  0.00  0.00    +0.245 HD
ENDBRANCH  26  29
ENDBRANCH  20  26
BRANCH  15  31
ATOM     31  O   UNL     1      11.151   6.890  21.084  0.00  0.00    -0.504 OA
ATOM     32  H   UNL     1      11.789   7.494  20.679  0.00  0.00    +0.292 HD
ENDBRANCH  15  31
BRANCH  16  33
ATOM     33  N   UNL     1      13.606   5.727  21.155  0.00  0.00    -0.143 NA
ATOM     34  N   UNL     1      13.460   4.580  20.683  0.00  0.00    -0.145 NA
BRANCH  34  35
ATOM     35  C   UNL     1      13.972   4.489  19.356  0.00  0.00    +0.129 A 
ATOM     36  C   UNL     1      15.200   3.844  19.120  0.00  0.00    +0.144 A 
ATOM     37  C   UNL     1      15.779   3.800  17.843  0.00  0.00    +0.049 A 
ATOM     38  C   UNL     1      15.123   4.386  16.763  0.00  0.00    +0.033 A 
ATOM     39  C   UNL     1      13.875   4.970  16.967  0.00  0.00    +0.119 A 
ATOM     40  C   UNL     1      13.297   5.010  18.239  0.00  0.00    +0.062 A 
BRANCH  39  41
ATOM     41  S   UNL     1      13.026   5.769  15.636  0.00  0.00    +0.110 S 
ATOM     42  O   UNL     1      14.006   6.157  14.649  0.00  0.00    -0.142 OA
ATOM     43  O   UNL     1      12.085   6.708  16.206  0.00  0.00    -0.142 OA
BRANCH  41  44
ATOM     44  O   UNL     1      12.115   4.587  15.017  0.00  0.00    -0.250 OA
ATOM     45  H   UNL     1      11.198   4.715  15.338  0.00  0.00    +0.245 HD
ENDBRANCH  41  44
ENDBRANCH  39  41
BRANCH  36  46
ATOM     46  O   UNL     1      15.864   3.245  20.160  0.00  0.00    -0.505 OA
ATOM     47  H   UNL     1      16.781   3.084  19.882  0.00  0.00    +0.292 HD
ENDBRANCH  36  46
ENDBRANCH  34  35
ENDBRANCH  16  33
ENDBRANCH   8  11
BRANCH   1  55
ATOM     48  C   UNL     1       3.979  -3.862  27.059  0.00  0.00    +0.155 A 
ATOM     49  C   UNL     1       5.056  -3.890  26.180  0.00  0.00    +0.148 A 
ATOM     50  C   UNL     1       5.654  -2.698  25.717  0.00  0.00    +0.042 A 
ATOM     51  C   UNL     1       5.222  -1.412  26.132  0.00  0.00    +0.017 A 
ATOM     52  C   UNL     1       4.174  -1.399  27.077  0.00  0.00    +0.028 A 
ATOM     53  C   UNL     1       3.705  -0.181  27.560  0.00  0.00    +0.014 A 
ATOM     54  C   UNL     1       4.253   1.021  27.134  0.00  0.00    +0.026 A 
ATOM     55  C   UNL     1       5.317   1.087  26.224  0.00  0.00    +0.062 A 
ATOM     56  C   UNL     1       5.766  -0.146  25.702  0.00  0.00    +0.146 A 
ATOM     57  C   UNL     1       3.585  -2.597  27.526  0.00  0.00    +0.154 A 
BRANCH  49  58
ATOM     58  S   UNL     1       5.797  -5.393  25.615  0.00  0.00    +0.112 S 
ATOM     59  O   UNL     1       6.898  -5.031  24.751  0.00  0.00    -0.142 OA
ATOM     60  O   UNL     1       4.790  -6.341  25.195  0.00  0.00    -0.142 OA
BRANCH  58  61
ATOM     61  O   UNL     1       6.420  -6.027  26.966  0.00  0.00    -0.250 OA
ATOM     62  H   UNL     1       7.093  -5.407  27.318  0.00  0.00    +0.245 HD
ENDBRANCH  58  61
ENDBRANCH  49  58
BRANCH  56  63
ATOM     63  S   UNL     1       7.009  -0.155  24.423  0.00  0.00    +0.112 S 
ATOM     64  O   UNL     1       6.481  -0.876  23.287  0.00  0.00    -0.142 OA
ATOM     65  O   UNL     1       8.288  -0.498  25.013  0.00  0.00    -0.142 OA
BRANCH  63  66
ATOM     66  O   UNL     1       7.155   1.401  24.021  0.00  0.00    -0.250 OA
ATOM     67  H   UNL     1       7.851   1.797  24.587  0.00  0.00    +0.245 HD
ENDBRANCH  63  66
ENDBRANCH  56  63
BRANCH  57  68
ATOM     68  O   UNL     1       2.587  -2.500  28.478  0.00  0.00    -0.504 OA
ATOM     69  H   UNL     1       1.740  -2.360  28.007  0.00  0.00    +0.292 HD
ENDBRANCH  57  68
BRANCH  48  71
ATOM     70  N   UNL     1       2.109  -4.885  27.639  0.00  0.00    -0.145 NA
ATOM     71  N   UNL     1       3.353  -5.022  27.551  0.00  0.00    -0.143 NA
BRANCH  70  73
ATOM     72  C   UNL     1       0.998  -5.899  29.578  0.00  0.00    +0.144 A 
ATOM     73  C   UNL     1       1.532  -5.998  28.282  0.00  0.00    +0.129 A 
ATOM     74  C   UNL     1       1.474  -7.233  27.628  0.00  0.00    +0.062 A 
ATOM     75  C   UNL     1       0.975  -8.354  28.280  0.00  0.00    +0.119 A 
ATOM     76  C   UNL     1       0.443  -8.256  29.568  0.00  0.00    +0.033 A 
ATOM     77  C   UNL     1       0.450  -7.017  30.217  0.00  0.00    +0.049 A 
BRANCH  75  78
ATOM     78  S   UNL     1       1.058  -9.905  27.450  0.00  0.00    +0.110 S 
ATOM     79  O   UNL     1       0.633  -9.709  26.084  0.00  0.00    -0.142 OA
ATOM     80  O   UNL     1       0.443 -10.889  28.319  0.00  0.00    -0.142 OA
BRANCH  78  81
ATOM     81  O   UNL     1       2.636 -10.267  27.425  0.00  0.00    -0.250 OA
ATOM     82  H   UNL     1       2.959 -10.313  28.350  0.00  0.00    +0.245 HD
ENDBRANCH  78  81
ENDBRANCH  75  78
BRANCH  72  83
ATOM     83  O   UNL     1       1.046  -4.694  30.226  0.00  0.00    -0.505 OA
ATOM     84  H   UNL     1       1.246  -3.992  29.583  0.00  0.00    +0.292 HD
ENDBRANCH  72  83
ENDBRANCH  70  73
ENDBRANCH  48  71
ENDBRANCH   1  55
TORSDOF 22
ENDMDL
MODEL 2
REMARK VINA RESULT:      53.8      2.415     15.110
REMARK  Name = 
REMARK  22 active torsions:
REMARK  status: ('A' for Active; 'I' for Inactive)
REMARK    1  A    between atoms: O_1  and  C_2
REMARK    2  A    between atoms: C_5  and  S_69
REMARK    3  A    between atoms: C_7  and  N_8
REMARK    4  A    between atoms: N_9  and  C_10
REMARK    5  A    between atoms: C_11  and  O_12
REMARK    6  A    between atoms: C_16  and  N_17
REMARK    7  A    between atoms: N_21  and  C_22
REMARK    8  A    between atoms: C_23  and  S_50
REMARK    9  A    between atoms: C_28  and  O_29
REMARK   10  A    between atoms: C_30  and  N_31
REMARK   11  A    between atoms: N_32  and  C_33
REMARK   12  A    between atoms: C_35  and  S_40
REMARK   13  A    between atoms: C_38  and  O_39
REMARK   14  A    between atoms: S_40  and  O_41
REMARK   15  A    between atoms: C_44  and  S_46
REMARK   16  A    between atoms: S_46  and  O_47
REMARK   17  A    between atoms: S_50  and  O_51
REMARK   18  A    between atoms: C_57  and  S_65
REMARK   19  A    between atoms: C_60  and  S_61
REMARK   20  A    between atoms: S_61  and  O_62
REMARK   21  A    between atoms: S_65  and  O_66
REMARK   22  A    between atoms: S_69  and  O_70
REMARK                            x       y       z     vdW  Elec       q    Type
REMARK                         _______ _______ _______ _____ _____    ______ ____
ROOT
ATOM      1  N   UNL     1       8.168   4.076  25.032  0.00  0.00    -0.282 N 
ATOM      2  H   UNL     1       7.929   3.124  25.311  0.00  0.00    +0.155 HD
ATOM      3  C   UNL     1       7.192   4.972  25.496  0.00  0.00    +0.224 A 
ATOM      4  N   UNL     1       7.297   6.258  25.179  0.00  0.00    -0.203 NA
ATOM      5  C   UNL     1       6.342   7.054  25.614  0.00  0.00    +0.228 A 
ATOM      6  N   UNL     1       5.315   6.680  26.352  0.00  0.00    -0.203 NA
ATOM      7  C   UNL     1       5.266   5.380  26.617  0.00  0.00    +0.224 A 
ATOM      8  N   UNL     1       4.193   5.013  27.429  0.00  0.00    -0.282 N 
ATOM      9  H   UNL     1       3.724   5.838  27.774  0.00  0.00    +0.155 HD
ATOM     10  N   UNL     1       6.181   4.488  26.219  0.00  0.00    -0.181 NA
ENDROOT
BRANCH   8  11
ATOM     11  C   UNL     1       3.713   3.760  27.802  0.00  0.00    +0.062 A 
ATOM     12  C   UNL     1       3.288   3.572  29.119  0.00  0.00    +0.026 A 
ATOM     13  C   UNL     1       2.923   2.302  29.601  0.00  0.00    +0.014 A 
ATOM     14  C   UNL     1       3.048   1.135  28.802  0.00  0.00    +0.028 A 
ATOM     15  C   UNL     1       2.798  -0.218  29.221  0.00  0.00    +0.154 A 
ATOM     16  C   UNL     1       3.070  -1.361  28.408  0.00  0.00    +0.155 A 
ATOM     17  C   UNL     1       3.584  -1.117  27.144  0.00  0.00    +0.148 A 
ATOM     18  C   UNL     1       3.766   0.200  26.706  0.00  0.00    +0.042 A 
ATOM     19  C   UNL     1       3.491   1.331  27.484  0.00  0.00    +0.017 A 
ATOM     20  C   UNL     1       3.708   2.637  26.974  0.00  0.00    +0.146 A 
BRANCH  17  21
ATOM     21  S   UNL     1       4.153  -2.308  25.962  0.00  0.00    +0.112 S 
ATOM     22  O   UNL     1       4.797  -3.451  26.554  0.00  0.00    -0.142 OA
ATOM     23  O   UNL     1       4.810  -1.557  24.910  0.00  0.00    -0.142 OA
BRANCH  21  24
ATOM     24  O   UNL     1       2.767  -2.820  25.295  0.00  0.00    -0.250 OA
ATOM     25  H   UNL     1       2.366  -2.071  24.804  0.00  0.00    +0.245 HD
ENDBRANCH  21  24
ENDBRANCH  17  21
BRANCH  20  26
ATOM     26  S   UNL     1       3.475   2.871  25.205  0.00  0.00    +0.112 S 
ATOM     27  O   UNL     1       4.387   3.896  24.752  0.00  0.00    -0.142 OA
ATOM     28  O   UNL     1       2.060   2.897  24.906  0.00  0.00    -0.142 OA
BRANCH  26  29
ATOM     29  O   UNL     1       3.997   1.456  24.598  0.00  0.00    -0.250 OA
ATOM     30  H   UNL     1       4.913   1.278  24.896  0.00  0.00    +0.245 HD
ENDBRANCH  26  29
ENDBRANCH  20  26
BRANCH  15  31
ATOM     31  O   UNL     1       2.299  -0.467  30.485  0.00  0.00    -0.504 OA
ATOM     32  H   UNL     1       2.307  -1.417  30.673  0.00  0.00    +0.292 HD
ENDBRANCH  15  31
BRANCH  16  33
ATOM     33  N   UNL     1       2.977  -2.636  28.992  0.00  0.00    -0.143 NA
ATOM     34  N   UNL     1       3.269  -3.569  28.216  0.00  0.00    -0.145 NA
BRANCH  34  35
ATOM     35  C   UNL     1       3.384  -4.810  28.908  0.00  0.00    +0.129 A 
ATOM     36  C   UNL     1       4.533  -5.086  29.671  0.00  0.00    +0.144 A 
ATOM     37  C   UNL     1       4.724  -6.323  30.302  0.00  0.00    +0.049 A 
ATOM     38  C   UNL     1       3.746  -7.311  30.203  0.00  0.00    +0.033 A 
ATOM     39  C   UNL     1       2.572  -7.031  29.507  0.00  0.00    +0.119 A 
ATOM     40  C   UNL     1       2.382  -5.796  28.881  0.00  0.00    +0.062 A 
BRANCH  39  41
ATOM     41  S   UNL     1       1.323  -8.269  29.311  0.00  0.00    +0.110 S 
ATOM     42  O   UNL     1       0.796  -8.164  27.971  0.00  0.00    -0.142 OA
ATOM     43  O   UNL     1       0.475  -8.239  30.483  0.00  0.00    -0.142 OA
BRANCH  41  44
ATOM     44  O   UNL     1       2.152  -9.651  29.430  0.00  0.00    -0.250 OA
ATOM     45  H   UNL     1       1.574 -10.376  29.115  0.00  0.00    +0.245 HD
ENDBRANCH  41  44
ENDBRANCH  39  41
BRANCH  36  46
ATOM     46  O   UNL     1       5.508  -4.129  29.800  0.00  0.00    -0.505 OA
ATOM     47  H   UNL     1       6.075  -4.164  29.012  0.00  0.00    +0.292 HD
ENDBRANCH  36  46
ENDBRANCH  34  35
ENDBRANCH  16  33
ENDBRANCH   8  11
BRANCH   1  55
ATOM     48  C   UNL     1      13.281   4.954  20.973  0.00  0.00    +0.155 A 
ATOM     49  C   UNL     1      13.576   5.555  22.192  0.00  0.00    +0.148 A 
ATOM     50  C   UNL     1      12.639   5.571  23.246  0.00  0.00    +0.042 A 
ATOM     51  C   UNL     1      11.362   4.960  23.147  0.00  0.00    +0.017 A 
ATOM     52  C   UNL     1      11.101   4.294  21.930  0.00  0.00    +0.028 A 
ATOM     53  C   UNL     1       9.883   3.643  21.756  0.00  0.00    +0.014 A 
ATOM     54  C   UNL     1       8.923   3.633  22.758  0.00  0.00    +0.026 A 
ATOM     55  C   UNL     1       9.122   4.242  24.003  0.00  0.00    +0.062 A 
ATOM     56  C   UNL     1      10.341   4.939  24.167  0.00  0.00    +0.146 A 
ATOM     57  C   UNL     1      12.045   4.291  20.886  0.00  0.00    +0.154 A 
BRANCH  49  58
ATOM     58  S   UNL     1      15.144   6.293  22.545  0.00  0.00    +0.112 S 
ATOM     59  O   UNL     1      14.979   7.108  23.728  0.00  0.00    -0.142 OA
ATOM     60  O   UNL     1      15.749   6.824  21.344  0.00  0.00    -0.142 OA
BRANCH  58  61
ATOM     61  O   UNL     1      16.066   5.027  22.944  0.00  0.00    -0.250 OA
ATOM     62  H   UNL     1      16.831   4.994  22.331  0.00  0.00    +0.245 HD
ENDBRANCH  58  61
ENDBRANCH  49  58
BRANCH  56  63
ATOM     63  S   UNL     1      10.621   5.876  25.658  0.00  0.00    +0.112 S 
ATOM     64  O   UNL     1      11.470   6.999  25.330  0.00  0.00    -0.142 OA
ATOM     65  O   UNL     1      10.951   4.962  26.734  0.00  0.00    -0.142 OA
BRANCH  63  66
ATOM     66  O   UNL     1       9.155   6.434  26.039  0.00  0.00    -0.250 OA
ATOM     67  H   UNL     1       8.491   5.788  25.718  0.00  0.00    +0.245 HD
ENDBRANCH  63  66
ENDBRANCH  56  63
BRANCH  57  68
ATOM     68  O   UNL     1      11.728   3.587  19.739  0.00  0.00    -0.504 OA
ATOM     69  H   UNL     1      10.770   3.707  19.573  0.00  0.00    +0.292 HD
ENDBRANCH  57  68
BRANCH  48  71
ATOM     70  N   UNL     1      13.625   4.561  18.827  0.00  0.00    -0.145 NA
ATOM     71  N   UNL     1      14.184   4.909  19.895  0.00  0.00    -0.143 NA
BRANCH  70  73
ATOM     72  C   UNL     1      15.782   3.685  18.050  0.00  0.00    +0.144 A 
ATOM     73  C   UNL     1      14.579   4.370  17.808  0.00  0.00    +0.129 A 
ATOM     74  C   UNL     1      14.337   4.860  16.521  0.00  0.00    +0.062 A 
ATOM     75  C   UNL     1      15.302   4.743  15.528  0.00  0.00    +0.119 A 
ATOM     76  C   UNL     1      16.497   4.061  15.767  0.00  0.00    +0.033 A 
ATOM     77  C   UNL     1      16.734   3.523  17.036  0.00  0.00    +0.049 A 
BRANCH  75  78
ATOM     78  S   UNL     1      14.989   5.501  13.970  0.00  0.00    +0.110 S 
ATOM     79  O   UNL     1      14.696   4.462  13.012  0.00  0.00    -0.142 OA
ATOM     80  O   UNL     1      16.034   6.482  13.754  0.00  0.00    -0.142 OA
BRANCH  78  81
ATOM     81  O   UNL     1      13.630   6.352  14.200  0.00  0.00    -0.250 OA
ATOM     82  H   UNL     1      13.157   6.421  13.343  0.00  0.00    +0.245 HD
ENDBRANCH  78  81
ENDBRANCH  75  78
BRANCH  72  83
ATOM     83  O   UNL     1      16.028   3.197  19.306  0.00  0.00    -0.505 OA
ATOM     84  H   UNL     1      15.960   2.227  19.292  0.00  0.00    +0.292 HD
ENDBRANCH  72  83
ENDBRANCH  70  73
ENDBRANCH  48  71
ENDBRANCH   1  55
TORSDOF 22
ENDMDL
