MODEL 1
REMARK VINA RESULT:      -7.4      0.000      0.000
REMARK  Name = 
REMARK  8 active torsions:
REMARK  status: ('A' for Active; 'I' for Inactive)
REMARK    1  A    between atoms: C_2  and  N_3
REMARK    2  A    between atoms: C_2  and  C_4
REMARK    3  A    between atoms: C_2  and  C_20
REMARK    4  A    between atoms: C_4  and  O_5
REMARK    5  A    between atoms: O_5  and  C_6
REMARK    6  A    between atoms: C_10  and  C_11
REMARK    7  A    between atoms: C_12  and  C_13
REMARK    8  A    between atoms: C_20  and  C_21
REMARK                            x       y       z     vdW  Elec       q    Type
REMARK                         _______ _______ _______ _____ _____    ______ ____
ROOT
ATOM      1  C   UNL     1       6.193  -5.152  27.695  0.00  0.00    +0.247 C 
ENDROOT
BRANCH   1   2
ATOM      2  C   UNL     1       5.409  -6.179  26.860  0.00  0.00    +0.093 C 
BRANCH   2   3
ATOM      3  N   UNL     1       4.904  -7.257  27.730  0.00  0.00    -0.324 NA
ATOM      4  H   UNL     1       4.989  -6.960  28.704  0.00  0.00    +0.119 HD
ATOM      5  H   UNL     1       3.906  -7.382  27.552  0.00  0.00    +0.119 HD
ENDBRANCH   2   3
BRANCH   2   6
ATOM      6  C   UNL     1       4.260  -5.416  26.148  0.00  0.00    +0.059 C 
BRANCH   6   7
ATOM      7  C   UNL     1       4.727  -4.497  25.066  0.00  0.00    -0.021 A 
ATOM      8  C   UNL     1       5.422  -4.868  23.872  0.00  0.00    +0.003 A 
ATOM      9  C   UNL     1       5.821  -6.100  23.313  0.00  0.00    +0.010 A 
ATOM     10  C   UNL     1       6.617  -6.106  22.163  0.00  0.00    +0.001 A 
ATOM     11  C   UNL     1       7.006  -4.911  21.564  0.00  0.00    +0.002 A 
ATOM     12  C   UNL     1       6.580  -3.678  22.070  0.00  0.00    +0.026 A 
ATOM     13  C   UNL     1       5.782  -3.691  23.220  0.00  0.00    +0.047 A 
ATOM     14  N   UNL     1       5.221  -2.651  23.923  0.00  0.00    -0.360 N 
ATOM     15  H   UNL     1       5.293  -1.678  23.661  0.00  0.00    +0.165 HD
ATOM     16  C   UNL     1       4.589  -3.123  25.041  0.00  0.00    +0.087 A 
ENDBRANCH   6   7
ENDBRANCH   2   6
ENDBRANCH   1   2
BRANCH   1  17
ATOM     17  O   UNL     1       7.615  -5.354  27.643  0.00  0.00    -0.489 OA
BRANCH  17  18
ATOM     18  C   UNL     1       8.217  -4.746  26.564  0.00  0.00    +0.139 A 
ATOM     19  C   UNL     1       8.127  -3.353  26.483  0.00  0.00    +0.056 A 
ATOM     20  C   UNL     1       8.720  -2.674  25.409  0.00  0.00    -0.003 A 
ATOM     21  C   UNL     1       9.370  -3.449  24.447  0.00  0.00    +0.118 A 
ATOM     22  N   UNL     1       9.484  -4.791  24.488  0.00  0.00    -0.259 NA
ATOM     23  C   UNL     1       8.907  -5.402  25.546  0.00  0.00    +0.156 A 
BRANCH  20  24
ATOM     24  C   UNL     1       8.659  -1.220  25.194  0.00  0.00    +0.010 C 
ATOM     25  C   UNL     1       9.706  -0.443  24.880  0.00  0.00    +0.008 C 
BRANCH  25  26
ATOM     26  C   UNL     1       9.595   0.998  24.584  0.00  0.00    -0.022 A 
ATOM     27  C   UNL     1      10.607   1.610  23.841  0.00  0.00    +0.027 A 
ATOM     28  C   UNL     1      10.511   2.966  23.571  0.00  0.00    +0.111 A 
ATOM     29  N   UNL     1       9.493   3.745  23.991  0.00  0.00    -0.263 NA
ATOM     30  C   UNL     1       8.530   3.139  24.716  0.00  0.00    +0.111 A 
ATOM     31  C   UNL     1       8.539   1.791  25.038  0.00  0.00    +0.027 A 
ENDBRANCH  25  26
ENDBRANCH  20  24
ENDBRANCH  17  18
ENDBRANCH   1  17
TORSDOF 8
ENDMDL
MODEL 2
REMARK VINA RESULT:      -7.0      2.646      7.490
REMARK  Name = 
REMARK  8 active torsions:
REMARK  status: ('A' for Active; 'I' for Inactive)
REMARK    1  A    between atoms: C_2  and  N_3
REMARK    2  A    between atoms: C_2  and  C_4
REMARK    3  A    between atoms: C_2  and  C_20
REMARK    4  A    between atoms: C_4  and  O_5
REMARK    5  A    between atoms: O_5  and  C_6
REMARK    6  A    between atoms: C_10  and  C_11
REMARK    7  A    between atoms: C_12  and  C_13
REMARK    8  A    between atoms: C_20  and  C_21
REMARK                            x       y       z     vdW  Elec       q    Type
REMARK                         _______ _______ _______ _____ _____    ______ ____
ROOT
ATOM      1  C   UNL     1       8.997   0.340  21.654  0.00  0.00    +0.247 C 
ENDROOT
BRANCH   1   2
ATOM      2  C   UNL     1       9.813   1.269  22.571  0.00  0.00    +0.093 C 
BRANCH   2   3
ATOM      3  N   UNL     1      10.279   2.445  21.813  0.00  0.00    -0.324 NA
ATOM      4  H   UNL     1       9.962   3.291  22.292  0.00  0.00    +0.119 HD
ATOM      5  H   UNL     1      11.300   2.466  21.836  0.00  0.00    +0.119 HD
ENDBRANCH   2   3
BRANCH   2   6
ATOM      6  C   UNL     1       8.899   1.665  23.761  0.00  0.00    +0.059 C 
BRANCH   6   7
ATOM      7  C   UNL     1       8.765   0.597  24.799  0.00  0.00    -0.021 A 
ATOM      8  C   UNL     1       7.623  -0.233  25.026  0.00  0.00    +0.003 A 
ATOM      9  C   UNL     1       6.373  -0.377  24.389  0.00  0.00    +0.010 A 
ATOM     10  C   UNL     1       5.406  -1.215  24.954  0.00  0.00    +0.001 A 
ATOM     11  C   UNL     1       5.673  -1.913  26.129  0.00  0.00    +0.002 A 
ATOM     12  C   UNL     1       6.924  -1.827  26.750  0.00  0.00    +0.026 A 
ATOM     13  C   UNL     1       7.880  -0.987  26.170  0.00  0.00    +0.047 A 
ATOM     14  N   UNL     1       9.173  -0.716  26.550  0.00  0.00    -0.360 N 
ATOM     15  H   UNL     1       9.641  -1.146  27.336  0.00  0.00    +0.165 HD
ATOM     16  C   UNL     1       9.715   0.241  25.736  0.00  0.00    +0.087 A 
ENDBRANCH   6   7
ENDBRANCH   2   6
ENDBRANCH   1   2
BRANCH   1  17
ATOM     17  O   UNL     1       9.660  -0.906  21.385  0.00  0.00    -0.489 OA
BRANCH  17  18
ATOM     18  C   UNL     1       9.370  -1.892  22.301  0.00  0.00    +0.139 A 
ATOM     19  C   UNL     1       8.134  -2.533  22.181  0.00  0.00    +0.056 A 
ATOM     20  C   UNL     1       7.779  -3.547  23.083  0.00  0.00    -0.003 A 
ATOM     21  C   UNL     1       8.698  -3.855  24.087  0.00  0.00    +0.118 A 
ATOM     22  N   UNL     1       9.901  -3.266  24.237  0.00  0.00    -0.259 NA
ATOM     23  C   UNL     1      10.204  -2.303  23.339  0.00  0.00    +0.156 A 
BRANCH  20  24
ATOM     24  C   UNL     1       6.495  -4.264  23.082  0.00  0.00    +0.010 C 
ATOM     25  C   UNL     1       6.059  -5.065  24.066  0.00  0.00    +0.008 C 
BRANCH  25  26
ATOM     26  C   UNL     1       4.727  -5.698  24.074  0.00  0.00    -0.022 A 
ATOM     27  C   UNL     1       3.686  -5.079  23.378  0.00  0.00    +0.027 A 
ATOM     28  C   UNL     1       2.430  -5.665  23.393  0.00  0.00    +0.111 A 
ATOM     29  N   UNL     1       2.143  -6.807  24.050  0.00  0.00    -0.263 NA
ATOM     30  C   UNL     1       3.157  -7.386  24.725  0.00  0.00    +0.111 A 
ATOM     31  C   UNL     1       4.445  -6.875  24.772  0.00  0.00    +0.027 A 
ENDBRANCH  25  26
ENDBRANCH  20  24
ENDBRANCH  17  18
ENDBRANCH   1  17
TORSDOF 8
ENDMDL
MODEL 3
REMARK VINA RESULT:      -6.9      1.963      3.451
REMARK  Name = 
REMARK  8 active torsions:
REMARK  status: ('A' for Active; 'I' for Inactive)
REMARK    1  A    between atoms: C_2  and  N_3
REMARK    2  A    between atoms: C_2  and  C_4
REMARK    3  A    between atoms: C_2  and  C_20
REMARK    4  A    between atoms: C_4  and  O_5
REMARK    5  A    between atoms: O_5  and  C_6
REMARK    6  A    between atoms: C_10  and  C_11
REMARK    7  A    between atoms: C_12  and  C_13
REMARK    8  A    between atoms: C_20  and  C_21
REMARK                            x       y       z     vdW  Elec       q    Type
REMARK                         _______ _______ _______ _____ _____    ______ ____
ROOT
ATOM      1  C   UNL     1       4.218  -4.653  23.540  0.00  0.00    +0.247 C 
ENDROOT
BRANCH   1   2
ATOM      2  C   UNL     1       5.199  -5.771  23.936  0.00  0.00    +0.093 C 
BRANCH   2   3
ATOM      3  N   UNL     1       4.558  -7.089  23.770  0.00  0.00    -0.324 NA
ATOM      4  H   UNL     1       4.579  -7.342  22.779  0.00  0.00    +0.119 HD
ATOM      5  H   UNL     1       5.116  -7.789  24.259  0.00  0.00    +0.119 HD
ENDBRANCH   2   3
BRANCH   2   6
ATOM      6  C   UNL     1       6.460  -5.618  23.044  0.00  0.00    +0.059 C 
BRANCH   6   7
ATOM      7  C   UNL     1       7.571  -4.861  23.696  0.00  0.00    -0.021 A 
ATOM      8  C   UNL     1       8.149  -3.634  23.243  0.00  0.00    +0.003 A 
ATOM      9  C   UNL     1       7.875  -2.758  22.172  0.00  0.00    +0.010 A 
ATOM     10  C   UNL     1       8.732  -1.680  21.929  0.00  0.00    +0.001 A 
ATOM     11  C   UNL     1       9.843  -1.463  22.739  0.00  0.00    +0.002 A 
ATOM     12  C   UNL     1      10.108  -2.288  23.838  0.00  0.00    +0.026 A 
ATOM     13  C   UNL     1       9.237  -3.359  24.068  0.00  0.00    +0.047 A 
ATOM     14  N   UNL     1       9.244  -4.312  25.059  0.00  0.00    -0.360 N 
ATOM     15  H   UNL     1       9.910  -4.343  25.819  0.00  0.00    +0.165 HD
ATOM     16  C   UNL     1       8.250  -5.227  24.842  0.00  0.00    +0.087 A 
ENDBRANCH   6   7
ENDBRANCH   2   6
ENDBRANCH   1   2
BRANCH   1  17
ATOM     17  O   UNL     1       3.780  -3.869  24.661  0.00  0.00    -0.489 OA
BRANCH  17  18
ATOM     18  C   UNL     1       4.807  -3.237  25.326  0.00  0.00    +0.139 A 
ATOM     19  C   UNL     1       5.300  -2.056  24.763  0.00  0.00    +0.056 A 
ATOM     20  C   UNL     1       6.346  -1.363  25.392  0.00  0.00    -0.003 A 
ATOM     21  C   UNL     1       6.860  -1.917  26.565  0.00  0.00    +0.118 A 
ATOM     22  N   UNL     1       6.412  -3.050  27.144  0.00  0.00    -0.259 NA
ATOM     23  C   UNL     1       5.397  -3.676  26.509  0.00  0.00    +0.156 A 
BRANCH  20  24
ATOM     24  C   UNL     1       6.973  -0.137  24.878  0.00  0.00    +0.010 C 
ATOM     25  C   UNL     1       8.040   0.469  25.421  0.00  0.00    +0.008 C 
BRANCH  25  26
ATOM     26  C   UNL     1       8.698   1.648  24.829  0.00  0.00    -0.022 A 
ATOM     27  C   UNL     1       9.973   1.498  24.277  0.00  0.00    +0.027 A 
ATOM     28  C   UNL     1      10.600   2.606  23.731  0.00  0.00    +0.111 A 
ATOM     29  N   UNL     1      10.054   3.840  23.702  0.00  0.00    -0.263 NA
ATOM     30  C   UNL     1       8.828   3.969  24.249  0.00  0.00    +0.111 A 
ATOM     31  C   UNL     1       8.123   2.921  24.821  0.00  0.00    +0.027 A 
ENDBRANCH  25  26
ENDBRANCH  20  24
ENDBRANCH  17  18
ENDBRANCH   1  17
TORSDOF 8
ENDMDL
MODEL 4
REMARK VINA RESULT:      -6.9      2.780      5.528
REMARK  Name = 
REMARK  8 active torsions:
REMARK  status: ('A' for Active; 'I' for Inactive)
REMARK    1  A    between atoms: C_2  and  N_3
REMARK    2  A    between atoms: C_2  and  C_4
REMARK    3  A    between atoms: C_2  and  C_20
REMARK    4  A    between atoms: C_4  and  O_5
REMARK    5  A    between atoms: O_5  and  C_6
REMARK    6  A    between atoms: C_10  and  C_11
REMARK    7  A    between atoms: C_12  and  C_13
REMARK    8  A    between atoms: C_20  and  C_21
REMARK                            x       y       z     vdW  Elec       q    Type
REMARK                         _______ _______ _______ _____ _____    ______ ____
ROOT
ATOM      1  C   UNL     1       7.304  -3.536  24.300  0.00  0.00    +0.247 C 
ENDROOT
BRANCH   1   2
ATOM      2  C   UNL     1       8.410  -2.734  25.009  0.00  0.00    +0.093 C 
BRANCH   2   3
ATOM      3  N   UNL     1       8.672  -3.305  26.343  0.00  0.00    -0.324 NA
ATOM      4  H   UNL     1       8.450  -4.303  26.323  0.00  0.00    +0.119 HD
ATOM      5  H   UNL     1       9.671  -3.235  26.540  0.00  0.00    +0.119 HD
ENDBRANCH   2   3
BRANCH   2   6
ATOM      6  C   UNL     1       9.667  -2.775  24.099  0.00  0.00    +0.059 C 
BRANCH   6   7
ATOM      7  C   UNL     1       9.692  -1.702  23.059  0.00  0.00    -0.021 A 
ATOM      8  C   UNL     1      10.081  -0.339  23.248  0.00  0.00    +0.003 A 
ATOM      9  C   UNL     1      10.582   0.395  24.343  0.00  0.00    +0.010 A 
ATOM     10  C   UNL     1      10.745   1.778  24.226  0.00  0.00    +0.001 A 
ATOM     11  C   UNL     1      10.427   2.431  23.038  0.00  0.00    +0.002 A 
ATOM     12  C   UNL     1       9.977   1.718  21.922  0.00  0.00    +0.026 A 
ATOM     13  C   UNL     1       9.822   0.334  22.055  0.00  0.00    +0.047 A 
ATOM     14  N   UNL     1       9.412  -0.607  21.141  0.00  0.00    -0.360 N 
ATOM     15  H   UNL     1       9.183  -0.406  20.177  0.00  0.00    +0.165 HD
ATOM     16  C   UNL     1       9.323  -1.836  21.734  0.00  0.00    +0.087 A 
ENDBRANCH   6   7
ENDBRANCH   2   6
ENDBRANCH   1   2
BRANCH   1  17
ATOM     17  O   UNL     1       6.406  -2.706  23.545  0.00  0.00    -0.489 OA
BRANCH  17  18
ATOM     18  C   UNL     1       6.019  -1.566  24.212  0.00  0.00    +0.139 A 
ATOM     19  C   UNL     1       6.529  -0.350  23.747  0.00  0.00    +0.056 A 
ATOM     20  C   UNL     1       6.172   0.849  24.383  0.00  0.00    -0.003 A 
ATOM     21  C   UNL     1       5.319   0.755  25.484  0.00  0.00    +0.118 A 
ATOM     22  N   UNL     1       4.800  -0.394  25.961  0.00  0.00    -0.259 NA
ATOM     23  C   UNL     1       5.163  -1.522  25.311  0.00  0.00    +0.156 A 
BRANCH  20  24
ATOM     24  C   UNL     1       6.673   2.180  24.013  0.00  0.00    +0.010 C 
ATOM     25  C   UNL     1       7.285   3.033  24.848  0.00  0.00    +0.008 C 
BRANCH  25  26
ATOM     26  C   UNL     1       7.855   4.325  24.423  0.00  0.00    -0.022 A 
ATOM     27  C   UNL     1       7.511   4.828  23.166  0.00  0.00    +0.027 A 
ATOM     28  C   UNL     1       8.055   6.036  22.758  0.00  0.00    +0.111 A 
ATOM     29  N   UNL     1       8.912   6.764  23.504  0.00  0.00    -0.263 NA
ATOM     30  C   UNL     1       9.241   6.258  24.710  0.00  0.00    +0.111 A 
ATOM     31  C   UNL     1       8.752   5.058  25.204  0.00  0.00    +0.027 A 
ENDBRANCH  25  26
ENDBRANCH  20  24
ENDBRANCH  17  18
ENDBRANCH   1  17
TORSDOF 8
ENDMDL
MODEL 5
REMARK VINA RESULT:      -6.8      2.143      3.821
REMARK  Name = 
REMARK  8 active torsions:
REMARK  status: ('A' for Active; 'I' for Inactive)
REMARK    1  A    between atoms: C_2  and  N_3
REMARK    2  A    between atoms: C_2  and  C_4
REMARK    3  A    between atoms: C_2  and  C_20
REMARK    4  A    between atoms: C_4  and  O_5
REMARK    5  A    between atoms: O_5  and  C_6
REMARK    6  A    between atoms: C_10  and  C_11
REMARK    7  A    between atoms: C_12  and  C_13
REMARK    8  A    between atoms: C_20  and  C_21
REMARK                            x       y       z     vdW  Elec       q    Type
REMARK                         _______ _______ _______ _____ _____    ______ ____
ROOT
ATOM      1  C   UNL     1       3.214  -5.485  23.906  0.00  0.00    +0.247 C 
ENDROOT
BRANCH   1   2
ATOM      2  C   UNL     1       2.827  -4.383  24.908  0.00  0.00    +0.093 C 
BRANCH   2   3
ATOM      3  N   UNL     1       1.373  -4.142  24.857  0.00  0.00    -0.324 NA
ATOM      4  H   UNL     1       1.010  -4.506  23.974  0.00  0.00    +0.119 HD
ATOM      5  H   UNL     1       0.926  -4.683  25.598  0.00  0.00    +0.119 HD
ENDBRANCH   2   3
BRANCH   2   6
ATOM      6  C   UNL     1       3.294  -4.849  26.312  0.00  0.00    +0.059 C 
BRANCH   6   7
ATOM      7  C   UNL     1       4.775  -5.022  26.428  0.00  0.00    -0.021 A 
ATOM      8  C   UNL     1       5.749  -3.981  26.531  0.00  0.00    +0.003 A 
ATOM      9  C   UNL     1       5.678  -2.575  26.613  0.00  0.00    +0.010 A 
ATOM     10  C   UNL     1       6.856  -1.823  26.576  0.00  0.00    +0.001 A 
ATOM     11  C   UNL     1       8.094  -2.452  26.469  0.00  0.00    +0.002 A 
ATOM     12  C   UNL     1       8.194  -3.847  26.438  0.00  0.00    +0.026 A 
ATOM     13  C   UNL     1       7.005  -4.583  26.479  0.00  0.00    +0.047 A 
ATOM     14  N   UNL     1       6.801  -5.943  26.472  0.00  0.00    -0.360 N 
ATOM     15  H   UNL     1       7.540  -6.632  26.466  0.00  0.00    +0.165 HD
ATOM     16  C   UNL     1       5.462  -6.220  26.434  0.00  0.00    +0.087 A 
ENDBRANCH   6   7
ENDBRANCH   2   6
ENDBRANCH   1   2
BRANCH   1  17
ATOM     17  O   UNL     1       3.765  -4.966  22.685  0.00  0.00    -0.489 OA
BRANCH  17  18
ATOM     18  C   UNL     1       5.126  -4.772  22.735  0.00  0.00    +0.139 A 
ATOM     19  C   UNL     1       5.582  -3.451  22.786  0.00  0.00    +0.056 A 
ATOM     20  C   UNL     1       6.959  -3.186  22.839  0.00  0.00    -0.003 A 
ATOM     21  C   UNL     1       7.819  -4.284  22.819  0.00  0.00    +0.118 A 
ATOM     22  N   UNL     1       7.423  -5.572  22.774  0.00  0.00    -0.259 NA
ATOM     23  C   UNL     1       6.089  -5.780  22.735  0.00  0.00    +0.156 A 
BRANCH  20  24
ATOM     24  C   UNL     1       7.558  -1.843  22.856  0.00  0.00    +0.010 C 
ATOM     25  C   UNL     1       8.828  -1.570  23.189  0.00  0.00    +0.008 C 
BRANCH  25  26
ATOM     26  C   UNL     1       9.422  -0.222  23.110  0.00  0.00    -0.022 A 
ATOM     27  C   UNL     1      10.007   0.321  24.256  0.00  0.00    +0.027 A 
ATOM     28  C   UNL     1      10.555   1.592  24.188  0.00  0.00    +0.111 A 
ATOM     29  N   UNL     1      10.555   2.352  23.073  0.00  0.00    -0.263 NA
ATOM     30  C   UNL     1       9.977   1.815  21.979  0.00  0.00    +0.111 A 
ATOM     31  C   UNL     1       9.400   0.554  21.950  0.00  0.00    +0.027 A 
ENDBRANCH  25  26
ENDBRANCH  20  24
ENDBRANCH  17  18
ENDBRANCH   1  17
TORSDOF 8
ENDMDL
MODEL 6
REMARK VINA RESULT:      -6.6      1.689      2.240
REMARK  Name = 
REMARK  8 active torsions:
REMARK  status: ('A' for Active; 'I' for Inactive)
REMARK    1  A    between atoms: C_2  and  N_3
REMARK    2  A    between atoms: C_2  and  C_4
REMARK    3  A    between atoms: C_2  and  C_20
REMARK    4  A    between atoms: C_4  and  O_5
REMARK    5  A    between atoms: O_5  and  C_6
REMARK    6  A    between atoms: C_10  and  C_11
REMARK    7  A    between atoms: C_12  and  C_13
REMARK    8  A    between atoms: C_20  and  C_21
REMARK                            x       y       z     vdW  Elec       q    Type
REMARK                         _______ _______ _______ _____ _____    ______ ____
ROOT
ATOM      1  C   UNL     1       4.200  -4.088  27.443  0.00  0.00    +0.247 C 
ENDROOT
BRANCH   1   2
ATOM      2  C   UNL     1       3.239  -5.177  26.934  0.00  0.00    +0.093 C 
BRANCH   2   3
ATOM      3  N   UNL     1       1.995  -5.164  27.726  0.00  0.00    -0.324 NA
ATOM      4  H   UNL     1       1.937  -6.034  28.260  0.00  0.00    +0.119 HD
ATOM      5  H   UNL     1       2.051  -4.408  28.410  0.00  0.00    +0.119 HD
ENDBRANCH   2   3
BRANCH   2   6
ATOM      6  C   UNL     1       2.977  -4.898  25.430  0.00  0.00    +0.059 C 
BRANCH   6   7
ATOM      7  C   UNL     1       4.080  -5.354  24.531  0.00  0.00    -0.021 A 
ATOM      8  C   UNL     1       4.954  -4.523  23.763  0.00  0.00    +0.003 A 
ATOM      9  C   UNL     1       5.117  -3.128  23.632  0.00  0.00    +0.010 A 
ATOM     10  C   UNL     1       6.003  -2.626  22.674  0.00  0.00    +0.001 A 
ATOM     11  C   UNL     1       6.729  -3.491  21.859  0.00  0.00    +0.002 A 
ATOM     12  C   UNL     1       6.624  -4.878  22.005  0.00  0.00    +0.026 A 
ATOM     13  C   UNL     1       5.734  -5.363  22.971  0.00  0.00    +0.047 A 
ATOM     14  N   UNL     1       5.435  -6.654  23.334  0.00  0.00    -0.360 N 
ATOM     15  H   UNL     1       5.875  -7.476  22.943  0.00  0.00    +0.165 HD
ATOM     16  C   UNL     1       4.435  -6.663  24.268  0.00  0.00    +0.087 A 
ENDBRANCH   6   7
ENDBRANCH   2   6
ENDBRANCH   1   2
BRANCH   1  17
ATOM     17  O   UNL     1       5.417  -4.624  27.987  0.00  0.00    -0.489 OA
BRANCH  17  18
ATOM     18  C   UNL     1       6.491  -4.527  27.132  0.00  0.00    +0.139 A 
ATOM     19  C   UNL     1       6.885  -3.242  26.744  0.00  0.00    +0.056 A 
ATOM     20  C   UNL     1       7.973  -3.075  25.874  0.00  0.00    -0.003 A 
ATOM     21  C   UNL     1       8.608  -4.232  25.420  0.00  0.00    +0.118 A 
ATOM     22  N   UNL     1       8.265  -5.488  25.772  0.00  0.00    -0.259 NA
ATOM     23  C   UNL     1       7.218  -5.600  26.619  0.00  0.00    +0.156 A 
BRANCH  20  24
ATOM     24  C   UNL     1       8.454  -1.782  25.366  0.00  0.00    +0.010 C 
ATOM     25  C   UNL     1       9.211  -1.618  24.270  0.00  0.00    +0.008 C 
BRANCH  25  26
ATOM     26  C   UNL     1       9.601  -0.300  23.737  0.00  0.00    -0.022 A 
ATOM     27  C   UNL     1       9.403  -0.040  22.379  0.00  0.00    +0.027 A 
ATOM     28  C   UNL     1       9.780   1.194  21.872  0.00  0.00    +0.111 A 
ATOM     29  N   UNL     1      10.340   2.171  22.615  0.00  0.00    -0.263 NA
ATOM     30  C   UNL     1      10.534   1.899  23.921  0.00  0.00    +0.111 A 
ATOM     31  C   UNL     1      10.192   0.695  24.519  0.00  0.00    +0.027 A 
ENDBRANCH  25  26
ENDBRANCH  20  24
ENDBRANCH  17  18
ENDBRANCH   1  17
TORSDOF 8
ENDMDL
MODEL 7
REMARK VINA RESULT:      -6.6      2.621      7.715
REMARK  Name = 
REMARK  8 active torsions:
REMARK  status: ('A' for Active; 'I' for Inactive)
REMARK    1  A    between atoms: C_2  and  N_3
REMARK    2  A    between atoms: C_2  and  C_4
REMARK    3  A    between atoms: C_2  and  C_20
REMARK    4  A    between atoms: C_4  and  O_5
REMARK    5  A    between atoms: O_5  and  C_6
REMARK    6  A    between atoms: C_10  and  C_11
REMARK    7  A    between atoms: C_12  and  C_13
REMARK    8  A    between atoms: C_20  and  C_21
REMARK                            x       y       z     vdW  Elec       q    Type
REMARK                         _______ _______ _______ _____ _____    ______ ____
ROOT
ATOM      1  C   UNL     1      10.379   2.302  22.795  0.00  0.00    +0.247 C 
ENDROOT
BRANCH   1   2
ATOM      2  C   UNL     1      10.007   3.514  23.669  0.00  0.00    +0.093 C 
BRANCH   2   3
ATOM      3  N   UNL     1      10.973   4.607  23.453  0.00  0.00    -0.324 NA
ATOM      4  H   UNL     1      11.802   4.227  22.992  0.00  0.00    +0.119 HD
ATOM      5  H   UNL     1      10.565   5.281  22.802  0.00  0.00    +0.119 HD
ENDBRANCH   2   3
BRANCH   2   6
ATOM      6  C   UNL     1       8.560   3.929  23.293  0.00  0.00    +0.059 C 
BRANCH   6   7
ATOM      7  C   UNL     1       7.591   2.791  23.281  0.00  0.00    -0.021 A 
ATOM      8  C   UNL     1       7.180   2.008  24.405  0.00  0.00    +0.003 A 
ATOM      9  C   UNL     1       7.459   2.054  25.787  0.00  0.00    +0.010 A 
ATOM     10  C   UNL     1       6.983   1.036  26.619  0.00  0.00    +0.001 A 
ATOM     11  C   UNL     1       6.230  -0.012  26.095  0.00  0.00    +0.002 A 
ATOM     12  C   UNL     1       5.897  -0.053  24.737  0.00  0.00    +0.026 A 
ATOM     13  C   UNL     1       6.379   0.976  23.920  0.00  0.00    +0.047 A 
ATOM     14  N   UNL     1       6.208   1.196  22.574  0.00  0.00    -0.360 N 
ATOM     15  H   UNL     1       5.644   0.617  21.967  0.00  0.00    +0.165 HD
ATOM     16  C   UNL     1       6.938   2.282  22.175  0.00  0.00    +0.087 A 
ENDBRANCH   6   7
ENDBRANCH   2   6
ENDBRANCH   1   2
BRANCH   1  17
ATOM     17  O   UNL     1      10.713   1.137  23.564  0.00  0.00    -0.489 OA
BRANCH  17  18
ATOM     18  C   UNL     1      10.011   0.012  23.194  0.00  0.00    +0.139 A 
ATOM     19  C   UNL     1       9.532  -0.809  24.219  0.00  0.00    +0.056 A 
ATOM     20  C   UNL     1       8.808  -1.970  23.908  0.00  0.00    -0.003 A 
ATOM     21  C   UNL     1       8.616  -2.256  22.555  0.00  0.00    +0.118 A 
ATOM     22  N   UNL     1       9.055  -1.490  21.536  0.00  0.00    -0.259 NA
ATOM     23  C   UNL     1       9.738  -0.377  21.884  0.00  0.00    +0.156 A 
BRANCH  20  24
ATOM     24  C   UNL     1       8.290  -2.930  24.894  0.00  0.00    +0.010 C 
ATOM     25  C   UNL     1       7.153  -3.629  24.765  0.00  0.00    +0.008 C 
BRANCH  25  26
ATOM     26  C   UNL     1       6.708  -4.650  25.731  0.00  0.00    -0.022 A 
ATOM     27  C   UNL     1       5.670  -5.511  25.367  0.00  0.00    +0.027 A 
ATOM     28  C   UNL     1       5.241  -6.464  26.278  0.00  0.00    +0.111 A 
ATOM     29  N   UNL     1       5.763  -6.611  27.512  0.00  0.00    -0.263 NA
ATOM     30  C   UNL     1       6.757  -5.765  27.851  0.00  0.00    +0.111 A 
ATOM     31  C   UNL     1       7.252  -4.779  27.011  0.00  0.00    +0.027 A 
ENDBRANCH  25  26
ENDBRANCH  20  24
ENDBRANCH  17  18
ENDBRANCH   1  17
TORSDOF 8
ENDMDL
MODEL 8
REMARK VINA RESULT:      -6.5      2.840      5.191
REMARK  Name = 
REMARK  8 active torsions:
REMARK  status: ('A' for Active; 'I' for Inactive)
REMARK    1  A    between atoms: C_2  and  N_3
REMARK    2  A    between atoms: C_2  and  C_4
REMARK    3  A    between atoms: C_2  and  C_20
REMARK    4  A    between atoms: C_4  and  O_5
REMARK    5  A    between atoms: O_5  and  C_6
REMARK    6  A    between atoms: C_10  and  C_11
REMARK    7  A    between atoms: C_12  and  C_13
REMARK    8  A    between atoms: C_20  and  C_21
REMARK                            x       y       z     vdW  Elec       q    Type
REMARK                         _______ _______ _______ _____ _____    ______ ____
ROOT
ATOM      1  C   UNL     1       5.680  -2.722  23.335  0.00  0.00    +0.247 C 
ENDROOT
BRANCH   1   2
ATOM      2  C   UNL     1       6.873  -3.682  23.181  0.00  0.00    +0.093 C 
BRANCH   2   3
ATOM      3  N   UNL     1       6.437  -4.927  22.522  0.00  0.00    -0.324 NA
ATOM      4  H   UNL     1       7.255  -5.388  22.116  0.00  0.00    +0.119 HD
ATOM      5  H   UNL     1       6.070  -5.563  23.231  0.00  0.00    +0.119 HD
ENDBRANCH   2   3
BRANCH   2   6
ATOM      6  C   UNL     1       7.964  -2.939  22.365  0.00  0.00    +0.059 C 
BRANCH   6   7
ATOM      7  C   UNL     1       8.762  -1.966  23.173  0.00  0.00    -0.021 A 
ATOM      8  C   UNL     1       9.064  -0.613  22.823  0.00  0.00    +0.003 A 
ATOM      9  C   UNL     1       8.711   0.223  21.744  0.00  0.00    +0.010 A 
ATOM     10  C   UNL     1       9.293   1.490  21.636  0.00  0.00    +0.001 A 
ATOM     11  C   UNL     1      10.207   1.932  22.589  0.00  0.00    +0.002 A 
ATOM     12  C   UNL     1      10.534   1.142  23.696  0.00  0.00    +0.026 A 
ATOM     13  C   UNL     1       9.940  -0.122  23.789  0.00  0.00    +0.047 A 
ATOM     14  N   UNL     1      10.065  -1.094  24.753  0.00  0.00    -0.360 N 
ATOM     15  H   UNL     1      10.620  -1.000  25.593  0.00  0.00    +0.165 HD
ATOM     16  C   UNL     1       9.366  -2.213  24.390  0.00  0.00    +0.087 A 
ENDBRANCH   6   7
ENDBRANCH   2   6
ENDBRANCH   1   2
BRANCH   1  17
ATOM     17  O   UNL     1       5.294  -2.521  24.704  0.00  0.00    -0.489 OA
BRANCH  17  18
ATOM     18  C   UNL     1       5.924  -1.454  25.302  0.00  0.00    +0.139 A 
ATOM     19  C   UNL     1       5.950  -0.248  24.595  0.00  0.00    +0.056 A 
ATOM     20  C   UNL     1       6.577   0.877  25.150  0.00  0.00    -0.003 A 
ATOM     21  C   UNL     1       7.170   0.721  26.404  0.00  0.00    +0.118 A 
ATOM     22  N   UNL     1       7.164  -0.420  27.123  0.00  0.00    -0.259 NA
ATOM     23  C   UNL     1       6.540  -1.474  26.553  0.00  0.00    +0.156 A 
BRANCH  20  24
ATOM     24  C   UNL     1       6.704   2.184  24.488  0.00  0.00    +0.010 C 
ATOM     25  C   UNL     1       7.664   3.086  24.740  0.00  0.00    +0.008 C 
BRANCH  25  26
ATOM     26  C   UNL     1       7.814   4.350  23.994  0.00  0.00    -0.022 A 
ATOM     27  C   UNL     1       7.100   4.514  22.805  0.00  0.00    +0.027 A 
ATOM     28  C   UNL     1       7.248   5.696  22.095  0.00  0.00    +0.111 A 
ATOM     29  N   UNL     1       8.052   6.708  22.480  0.00  0.00    -0.263 NA
ATOM     30  C   UNL     1       8.742   6.527  23.625  0.00  0.00    +0.111 A 
ATOM     31  C   UNL     1       8.662   5.381  24.402  0.00  0.00    +0.027 A 
ENDBRANCH  25  26
ENDBRANCH  20  24
ENDBRANCH  17  18
ENDBRANCH   1  17
TORSDOF 8
ENDMDL
MODEL 9
REMARK VINA RESULT:      -6.5      2.711      7.557
REMARK  Name = 
REMARK  8 active torsions:
REMARK  status: ('A' for Active; 'I' for Inactive)
REMARK    1  A    between atoms: C_2  and  N_3
REMARK    2  A    between atoms: C_2  and  C_4
REMARK    3  A    between atoms: C_2  and  C_20
REMARK    4  A    between atoms: C_4  and  O_5
REMARK    5  A    between atoms: O_5  and  C_6
REMARK    6  A    between atoms: C_10  and  C_11
REMARK    7  A    between atoms: C_12  and  C_13
REMARK    8  A    between atoms: C_20  and  C_21
REMARK                            x       y       z     vdW  Elec       q    Type
REMARK                         _______ _______ _______ _____ _____    ______ ____
ROOT
ATOM      1  C   UNL     1       8.824   2.116  22.349  0.00  0.00    +0.247 C 
ENDROOT
BRANCH   1   2
ATOM      2  C   UNL     1      10.211   2.477  22.909  0.00  0.00    +0.093 C 
BRANCH   2   3
ATOM      3  N   UNL     1      10.224   3.882  23.360  0.00  0.00    -0.324 NA
ATOM      4  H   UNL     1       9.291   4.126  23.701  0.00  0.00    +0.119 HD
ATOM      5  H   UNL     1      10.854   3.963  24.159  0.00  0.00    +0.119 HD
ENDBRANCH   2   3
BRANCH   2   6
ATOM      6  C   UNL     1      10.515   1.489  24.067  0.00  0.00    +0.059 C 
BRANCH   6   7
ATOM      7  C   UNL     1      10.253   0.059  23.722  0.00  0.00    -0.021 A 
ATOM      8  C   UNL     1       9.650  -0.926  24.566  0.00  0.00    +0.003 A 
ATOM      9  C   UNL     1       9.091  -0.898  25.860  0.00  0.00    +0.010 A 
ATOM     10  C   UNL     1       8.691  -2.096  26.462  0.00  0.00    +0.001 A 
ATOM     11  C   UNL     1       8.830  -3.307  25.789  0.00  0.00    +0.002 A 
ATOM     12  C   UNL     1       9.334  -3.354  24.485  0.00  0.00    +0.026 A 
ATOM     13  C   UNL     1       9.727  -2.147  23.898  0.00  0.00    +0.047 A 
ATOM     14  N   UNL     1      10.240  -1.892  22.648  0.00  0.00    -0.360 N 
ATOM     15  H   UNL     1      10.380  -2.592  21.933  0.00  0.00    +0.165 HD
ATOM     16  C   UNL     1      10.568  -0.568  22.532  0.00  0.00    +0.087 A 
ENDBRANCH   6   7
ENDBRANCH   2   6
ENDBRANCH   1   2
BRANCH   1  17
ATOM     17  O   UNL     1       7.763   2.888  22.936  0.00  0.00    -0.489 OA
BRANCH  17  18
ATOM     18  C   UNL     1       6.968   2.166  23.797  0.00  0.00    +0.139 A 
ATOM     19  C   UNL     1       6.848   0.794  23.556  0.00  0.00    +0.056 A 
ATOM     20  C   UNL     1       6.053   0.001  24.398  0.00  0.00    -0.003 A 
ATOM     21  C   UNL     1       5.396   0.648  25.445  0.00  0.00    +0.118 A 
ATOM     22  N   UNL     1       5.487   1.965  25.716  0.00  0.00    -0.259 NA
ATOM     23  C   UNL     1       6.272   2.687  24.886  0.00  0.00    +0.156 A 
BRANCH  20  24
ATOM     24  C   UNL     1       5.818  -1.440  24.223  0.00  0.00    +0.010 C 
ATOM     25  C   UNL     1       6.172  -2.153  23.143  0.00  0.00    +0.008 C 
BRANCH  25  26
ATOM     26  C   UNL     1       6.002  -3.614  23.038  0.00  0.00    -0.022 A 
ATOM     27  C   UNL     1       6.397  -4.252  21.859  0.00  0.00    +0.027 A 
ATOM     28  C   UNL     1       6.227  -5.623  21.752  0.00  0.00    +0.111 A 
ATOM     29  N   UNL     1       5.693  -6.392  22.724  0.00  0.00    -0.263 NA
ATOM     30  C   UNL     1       5.308  -5.758  23.851  0.00  0.00    +0.111 A 
ATOM     31  C   UNL     1       5.434  -4.392  24.050  0.00  0.00    +0.027 A 
ENDBRANCH  25  26
ENDBRANCH  20  24
ENDBRANCH  17  18
ENDBRANCH   1  17
TORSDOF 8
ENDMDL
