MODEL 1
REMARK VINA RESULT:      -7.8      0.000      0.000
REMARK  Name = 
REMARK  6 active torsions:
REMARK  status: ('A' for Active; 'I' for Inactive)
REMARK    1  A    between atoms: C_1  and  N_2
REMARK    2  A    between atoms: C_3  and  C_5
REMARK    3  A    between atoms: C_7  and  N_8
REMARK    4  A    between atoms: N_8  and  C_9
REMARK    5  A    between atoms: N_13  and  C_18
REMARK    6  A    between atoms: C_24  and  C_25
REMARK                            x       y       z     vdW  Elec       q    Type
REMARK                         _______ _______ _______ _____ _____    ______ ____
ROOT
ATOM      1  C   UNL     1       8.199   1.237  23.384  0.00  0.00    +0.137 A 
ATOM      2  N   UNL     1       9.143   1.234  22.405  0.00  0.00    -0.220 NA
ATOM      3  C   UNL     1       9.390   0.107  21.724  0.00  0.00    +0.225 A 
ATOM      4  N   UNL     1       8.787  -1.074  21.867  0.00  0.00    -0.216 NA
ATOM      5  C   UNL     1       7.827  -1.055  22.814  0.00  0.00    +0.168 A 
ATOM      6  N   UNL     1       6.996  -2.099  23.216  0.00  0.00    -0.214 N 
ATOM      7  N   UNL     1       6.166  -1.703  24.233  0.00  0.00    -0.172 NA
ATOM      8  C   UNL     1       6.474  -0.423  24.438  0.00  0.00    +0.148 A 
ATOM      9  C   UNL     1       7.491   0.044  23.591  0.00  0.00    +0.079 A 
ENDROOT
BRANCH   6  10
ATOM     10  C   UNL     1       6.929  -3.435  22.718  0.00  0.00    +0.068 A 
ATOM     11  C   UNL     1       6.135  -3.771  21.614  0.00  0.00    +0.028 A 
ATOM     12  C   UNL     1       6.092  -5.087  21.147  0.00  0.00    +0.002 A 
ATOM     13  C   UNL     1       6.840  -6.077  21.775  0.00  0.00    +0.000 A 
ATOM     14  C   UNL     1       7.630  -5.756  22.877  0.00  0.00    +0.002 A 
ATOM     15  C   UNL     1       7.675  -4.443  23.350  0.00  0.00    +0.028 A 
ENDBRANCH   6  10
BRANCH   1  16
ATOM     16  N   UNL     1       7.958   2.393  24.146  0.00  0.00    -0.299 N 
ATOM     17  H   UNL     1       7.745   2.207  25.116  0.00  0.00    +0.154 HD
BRANCH  16  23
ATOM     18  C   UNL     1      10.127   5.387  23.584  0.00  0.00    +0.038 A 
ATOM     19  C   UNL     1       9.179   6.378  23.353  0.00  0.00    +0.013 A 
ATOM     20  C   UNL     1       7.824   6.046  23.356  0.00  0.00    +0.006 A 
ATOM     21  C   UNL     1       7.395   4.724  23.597  0.00  0.00    -0.029 A 
ATOM     22  C   UNL     1       5.914   4.467  23.508  0.00  0.00    +0.045 C 
ATOM     23  C   UNL     1       8.349   3.728  23.901  0.00  0.00    +0.036 A 
ATOM     24  C   UNL     1       9.707   4.089  23.882  0.00  0.00    +0.036 A 
BRANCH  18  28
ATOM     25  C   UNL     1      13.625   5.700  22.185  0.00  0.00    +0.128 C 
ATOM     26  N   UNL     1      12.247   5.337  22.386  0.00  0.00    -0.314 N 
ATOM     27  H   UNL     1      11.719   4.992  21.594  0.00  0.00    +0.149 HD
ATOM     28  C   UNL     1      11.573   5.729  23.526  0.00  0.00    +0.244 C 
ATOM     29  O   UNL     1      12.093   6.362  24.439  0.00  0.00    -0.270 OA
ENDBRANCH  18  28
ENDBRANCH  16  23
ENDBRANCH   1  16
TORSDOF 4
ENDMDL
MODEL 2
REMARK VINA RESULT:      -7.8      3.988      9.103
REMARK  Name = 
REMARK  6 active torsions:
REMARK  status: ('A' for Active; 'I' for Inactive)
REMARK    1  A    between atoms: C_1  and  N_2
REMARK    2  A    between atoms: C_3  and  C_5
REMARK    3  A    between atoms: C_7  and  N_8
REMARK    4  A    between atoms: N_8  and  C_9
REMARK    5  A    between atoms: N_13  and  C_18
REMARK    6  A    between atoms: C_24  and  C_25
REMARK                            x       y       z     vdW  Elec       q    Type
REMARK                         _______ _______ _______ _____ _____    ______ ____
ROOT
ATOM      1  C   UNL     1       9.571  -2.637  24.017  0.00  0.00    +0.137 A 
ATOM      2  N   UNL     1      10.162  -2.465  22.804  0.00  0.00    -0.220 NA
ATOM      3  C   UNL     1      10.297  -1.231  22.300  0.00  0.00    +0.225 A 
ATOM      4  N   UNL     1       9.932  -0.080  22.866  0.00  0.00    -0.216 NA
ATOM      5  C   UNL     1       9.380  -0.254  24.084  0.00  0.00    +0.168 A 
ATOM      6  N   UNL     1       8.899   0.721  24.956  0.00  0.00    -0.214 N 
ATOM      7  N   UNL     1       8.380   0.152  26.091  0.00  0.00    -0.172 NA
ATOM      8  C   UNL     1       8.558  -1.157  25.921  0.00  0.00    +0.148 A 
ATOM      9  C   UNL     1       9.175  -1.478  24.702  0.00  0.00    +0.079 A 
ENDROOT
BRANCH   6  10
ATOM     10  C   UNL     1       8.891   2.140  24.800  0.00  0.00    +0.068 A 
ATOM     11  C   UNL     1       9.803   2.794  23.961  0.00  0.00    +0.028 A 
ATOM     12  C   UNL     1       9.768   4.184  23.826  0.00  0.00    +0.002 A 
ATOM     13  C   UNL     1       8.825   4.932  24.523  0.00  0.00    +0.000 A 
ATOM     14  C   UNL     1       7.916   4.293  25.364  0.00  0.00    +0.002 A 
ATOM     15  C   UNL     1       7.948   2.904  25.505  0.00  0.00    +0.028 A 
ENDBRANCH   6  10
BRANCH   1  16
ATOM     16  N   UNL     1       9.371  -3.923  24.544  0.00  0.00    -0.299 N 
ATOM     17  H   UNL     1      10.190  -4.316  24.986  0.00  0.00    +0.154 HD
BRANCH  16  23
ATOM     18  C   UNL     1       6.659  -5.389  26.663  0.00  0.00    +0.038 A 
ATOM     19  C   UNL     1       5.743  -5.795  25.699  0.00  0.00    +0.013 A 
ATOM     20  C   UNL     1       6.013  -5.558  24.351  0.00  0.00    +0.006 A 
ATOM     21  C   UNL     1       7.203  -4.919  23.945  0.00  0.00    -0.029 A 
ATOM     22  C   UNL     1       7.357  -4.651  22.471  0.00  0.00    +0.045 C 
ATOM     23  C   UNL     1       8.168  -4.566  24.912  0.00  0.00    +0.036 A 
ATOM     24  C   UNL     1       7.866  -4.810  26.264  0.00  0.00    +0.036 A 
BRANCH  18  28
ATOM     25  C   UNL     1       4.902  -4.976  29.984  0.00  0.00    +0.128 C 
ATOM     26  N   UNL     1       5.349  -4.796  28.628  0.00  0.00    -0.314 N 
ATOM     27  H   UNL     1       4.776  -4.243  28.001  0.00  0.00    +0.149 HD
ATOM     28  C   UNL     1       6.347  -5.592  28.103  0.00  0.00    +0.244 C 
ATOM     29  O   UNL     1       6.936  -6.456  28.744  0.00  0.00    -0.270 OA
ENDBRANCH  18  28
ENDBRANCH  16  23
ENDBRANCH   1  16
TORSDOF 4
ENDMDL
MODEL 3
REMARK VINA RESULT:      -7.7      4.268      9.771
REMARK  Name = 
REMARK  6 active torsions:
REMARK  status: ('A' for Active; 'I' for Inactive)
REMARK    1  A    between atoms: C_1  and  N_2
REMARK    2  A    between atoms: C_3  and  C_5
REMARK    3  A    between atoms: C_7  and  N_8
REMARK    4  A    between atoms: N_8  and  C_9
REMARK    5  A    between atoms: N_13  and  C_18
REMARK    6  A    between atoms: C_24  and  C_25
REMARK                            x       y       z     vdW  Elec       q    Type
REMARK                         _______ _______ _______ _____ _____    ______ ____
ROOT
ATOM      1  C   UNL     1       8.017  -3.499  23.828  0.00  0.00    +0.137 A 
ATOM      2  N   UNL     1       7.862  -3.381  22.481  0.00  0.00    -0.220 NA
ATOM      3  C   UNL     1       8.023  -2.187  21.897  0.00  0.00    +0.225 A 
ATOM      4  N   UNL     1       8.358  -1.037  22.483  0.00  0.00    -0.216 NA
ATOM      5  C   UNL     1       8.546  -1.168  23.812  0.00  0.00    +0.168 A 
ATOM      6  N   UNL     1       8.910  -0.184  24.729  0.00  0.00    -0.214 N 
ATOM      7  N   UNL     1       8.972  -0.695  26.000  0.00  0.00    -0.172 NA
ATOM      8  C   UNL     1       8.666  -1.983  25.859  0.00  0.00    +0.148 A 
ATOM      9  C   UNL     1       8.395  -2.345  24.529  0.00  0.00    +0.079 A 
ENDROOT
BRANCH   6  10
ATOM     10  C   UNL     1       9.200   1.195  24.499  0.00  0.00    +0.068 A 
ATOM     11  C   UNL     1       8.342   2.212  24.936  0.00  0.00    +0.028 A 
ATOM     12  C   UNL     1       8.655   3.553  24.698  0.00  0.00    +0.002 A 
ATOM     13  C   UNL     1       9.824   3.890  24.025  0.00  0.00    +0.000 A 
ATOM     14  C   UNL     1      10.683   2.887  23.581  0.00  0.00    +0.002 A 
ATOM     15  C   UNL     1      10.375   1.545  23.813  0.00  0.00    +0.028 A 
ENDBRANCH   6  10
BRANCH   1  16
ATOM     16  N   UNL     1       7.803  -4.730  24.471  0.00  0.00    -0.299 N 
ATOM     17  H   UNL     1       8.632  -5.119  24.896  0.00  0.00    +0.154 HD
BRANCH  16  23
ATOM     18  C   UNL     1       4.361  -6.192  24.536  0.00  0.00    +0.038 A 
ATOM     19  C   UNL     1       4.203  -6.471  25.889  0.00  0.00    +0.013 A 
ATOM     20  C   UNL     1       5.248  -6.200  26.773  0.00  0.00    +0.006 A 
ATOM     21  C   UNL     1       6.462  -5.641  26.321  0.00  0.00    -0.029 A 
ATOM     22  C   UNL     1       7.546  -5.456  27.350  0.00  0.00    +0.045 C 
ATOM     23  C   UNL     1       6.602  -5.291  24.960  0.00  0.00    +0.036 A 
ATOM     24  C   UNL     1       5.536  -5.583  24.092  0.00  0.00    +0.036 A 
BRANCH  18  28
ATOM     25  C   UNL     1       1.500  -8.121  22.992  0.00  0.00    +0.128 C 
ATOM     26  N   UNL     1       2.632  -7.738  23.794  0.00  0.00    -0.314 N 
ATOM     27  H   UNL     1       2.814  -8.252  24.648  0.00  0.00    +0.149 HD
ATOM     28  C   UNL     1       3.268  -6.530  23.586  0.00  0.00    +0.244 C 
ATOM     29  O   UNL     1       2.950  -5.737  22.705  0.00  0.00    -0.270 OA
ENDBRANCH  18  28
ENDBRANCH  16  23
ENDBRANCH   1  16
TORSDOF 4
ENDMDL
MODEL 4
REMARK VINA RESULT:      -7.7      3.294      8.885
REMARK  Name = 
REMARK  6 active torsions:
REMARK  status: ('A' for Active; 'I' for Inactive)
REMARK    1  A    between atoms: C_1  and  N_2
REMARK    2  A    between atoms: C_3  and  C_5
REMARK    3  A    between atoms: C_7  and  N_8
REMARK    4  A    between atoms: N_8  and  C_9
REMARK    5  A    between atoms: N_13  and  C_18
REMARK    6  A    between atoms: C_24  and  C_25
REMARK                            x       y       z     vdW  Elec       q    Type
REMARK                         _______ _______ _______ _____ _____    ______ ____
ROOT
ATOM      1  C   UNL     1       9.313  -1.602  23.270  0.00  0.00    +0.137 A 
ATOM      2  N   UNL     1       9.552  -1.594  21.931  0.00  0.00    -0.220 NA
ATOM      3  C   UNL     1       9.445  -0.449  21.244  0.00  0.00    +0.225 A 
ATOM      4  N   UNL     1       9.141   0.758  21.723  0.00  0.00    -0.216 NA
ATOM      5  C   UNL     1       8.941   0.750  23.057  0.00  0.00    +0.168 A 
ATOM      6  N   UNL     1       8.622   1.826  23.884  0.00  0.00    -0.214 N 
ATOM      7  N   UNL     1       8.466   1.418  25.183  0.00  0.00    -0.172 NA
ATOM      8  C   UNL     1       8.705   0.108  25.154  0.00  0.00    +0.148 A 
ATOM      9  C   UNL     1       9.011  -0.370  23.870  0.00  0.00    +0.079 A 
ENDROOT
BRANCH   6  10
ATOM     10  C   UNL     1       8.451   3.202  23.541  0.00  0.00    +0.068 A 
ATOM     11  C   UNL     1       7.420   3.628  22.694  0.00  0.00    +0.028 A 
ATOM     12  C   UNL     1       7.276   4.981  22.380  0.00  0.00    +0.002 A 
ATOM     13  C   UNL     1       8.157   5.920  22.907  0.00  0.00    +0.000 A 
ATOM     14  C   UNL     1       9.190   5.507  23.747  0.00  0.00    +0.002 A 
ATOM     15  C   UNL     1       9.340   4.155  24.063  0.00  0.00    +0.028 A 
ENDBRANCH   6  10
BRANCH   1  16
ATOM     16  N   UNL     1       9.369  -2.799  24.003  0.00  0.00    -0.299 N 
ATOM     17  H   UNL     1      10.223  -2.918  24.528  0.00  0.00    +0.154 HD
BRANCH  16  23
ATOM     18  C   UNL     1       6.054  -4.527  24.130  0.00  0.00    +0.038 A 
ATOM     19  C   UNL     1       6.204  -5.334  25.253  0.00  0.00    +0.013 A 
ATOM     20  C   UNL     1       7.413  -5.325  25.949  0.00  0.00    +0.006 A 
ATOM     21  C   UNL     1       8.486  -4.505  25.540  0.00  0.00    -0.029 A 
ATOM     22  C   UNL     1       9.767  -4.627  26.323  0.00  0.00    +0.045 C 
ATOM     23  C   UNL     1       8.316  -3.633  24.443  0.00  0.00    +0.036 A 
ATOM     24  C   UNL     1       7.091  -3.670  23.755  0.00  0.00    +0.036 A 
BRANCH  18  28
ATOM     25  C   UNL     1       2.413  -5.195  23.362  0.00  0.00    +0.128 C 
ATOM     26  N   UNL     1       3.712  -5.177  23.983  0.00  0.00    -0.314 N 
ATOM     27  H   UNL     1       3.778  -5.402  24.969  0.00  0.00    +0.149 HD
ATOM     28  C   UNL     1       4.786  -4.578  23.355  0.00  0.00    +0.244 C 
ATOM     29  O   UNL     1       4.724  -4.069  22.240  0.00  0.00    -0.270 OA
ENDBRANCH  18  28
ENDBRANCH  16  23
ENDBRANCH   1  16
TORSDOF 4
ENDMDL
MODEL 5
REMARK VINA RESULT:      -7.6      3.580      9.156
REMARK  Name = 
REMARK  6 active torsions:
REMARK  status: ('A' for Active; 'I' for Inactive)
REMARK    1  A    between atoms: C_1  and  N_2
REMARK    2  A    between atoms: C_3  and  C_5
REMARK    3  A    between atoms: C_7  and  N_8
REMARK    4  A    between atoms: N_8  and  C_9
REMARK    5  A    between atoms: N_13  and  C_18
REMARK    6  A    between atoms: C_24  and  C_25
REMARK                            x       y       z     vdW  Elec       q    Type
REMARK                         _______ _______ _______ _____ _____    ______ ____
ROOT
ATOM      1  C   UNL     1       8.141  -1.482  23.510  0.00  0.00    +0.137 A 
ATOM      2  N   UNL     1       6.924  -1.029  23.106  0.00  0.00    -0.220 NA
ATOM      3  C   UNL     1       6.706   0.289  23.005  0.00  0.00    +0.225 A 
ATOM      4  N   UNL     1       7.575   1.274  23.237  0.00  0.00    -0.216 NA
ATOM      5  C   UNL     1       8.790   0.817  23.602  0.00  0.00    +0.168 A 
ATOM      6  N   UNL     1       9.930   1.559  23.907  0.00  0.00    -0.214 N 
ATOM      7  N   UNL     1      10.969   0.739  24.265  0.00  0.00    -0.172 NA
ATOM      8  C   UNL     1      10.474  -0.494  24.163  0.00  0.00    +0.148 A 
ATOM      9  C   UNL     1       9.131  -0.518  23.753  0.00  0.00    +0.079 A 
ENDROOT
BRANCH   6  10
ATOM     10  C   UNL     1      10.111   2.975  23.888  0.00  0.00    +0.068 A 
ATOM     11  C   UNL     1       9.106   3.853  24.314  0.00  0.00    +0.028 A 
ATOM     12  C   UNL     1       9.315   5.234  24.287  0.00  0.00    +0.002 A 
ATOM     13  C   UNL     1      10.525   5.751  23.836  0.00  0.00    +0.000 A 
ATOM     14  C   UNL     1      11.531   4.887  23.405  0.00  0.00    +0.002 A 
ATOM     15  C   UNL     1      11.328   3.506  23.428  0.00  0.00    +0.028 A 
ENDBRANCH   6  10
BRANCH   1  16
ATOM     16  N   UNL     1       8.379  -2.857  23.671  0.00  0.00    -0.299 N 
ATOM     17  H   UNL     1       9.358  -3.100  23.721  0.00  0.00    +0.154 HD
BRANCH  16  23
ATOM     18  C   UNL     1       6.551  -5.063  26.077  0.00  0.00    +0.038 A 
ATOM     19  C   UNL     1       5.773  -5.829  25.215  0.00  0.00    +0.013 A 
ATOM     20  C   UNL     1       5.834  -5.593  23.841  0.00  0.00    +0.006 A 
ATOM     21  C   UNL     1       6.678  -4.597  23.307  0.00  0.00    -0.029 A 
ATOM     22  C   UNL     1       6.612  -4.382  21.818  0.00  0.00    +0.045 C 
ATOM     23  C   UNL     1       7.522  -3.864  24.170  0.00  0.00    +0.036 A 
ATOM     24  C   UNL     1       7.432  -4.117  25.550  0.00  0.00    +0.036 A 
BRANCH  18  28
ATOM     25  C   UNL     1       5.130  -4.880  29.575  0.00  0.00    +0.128 C 
ATOM     26  N   UNL     1       5.380  -4.662  28.174  0.00  0.00    -0.314 N 
ATOM     27  H   UNL     1       4.649  -4.244  27.613  0.00  0.00    +0.149 HD
ATOM     28  C   UNL     1       6.445  -5.276  27.545  0.00  0.00    +0.244 C 
ATOM     29  O   UNL     1       7.253  -5.997  28.122  0.00  0.00    -0.270 OA
ENDBRANCH  18  28
ENDBRANCH  16  23
ENDBRANCH   1  16
TORSDOF 4
ENDMDL
MODEL 6
REMARK VINA RESULT:      -7.6      3.335      4.712
REMARK  Name = 
REMARK  6 active torsions:
REMARK  status: ('A' for Active; 'I' for Inactive)
REMARK    1  A    between atoms: C_1  and  N_2
REMARK    2  A    between atoms: C_3  and  C_5
REMARK    3  A    between atoms: C_7  and  N_8
REMARK    4  A    between atoms: N_8  and  C_9
REMARK    5  A    between atoms: N_13  and  C_18
REMARK    6  A    between atoms: C_24  and  C_25
REMARK                            x       y       z     vdW  Elec       q    Type
REMARK                         _______ _______ _______ _____ _____    ______ ____
ROOT
ATOM      1  C   UNL     1       8.688  -1.235  25.754  0.00  0.00    +0.137 A 
ATOM      2  N   UNL     1       7.777  -0.412  26.339  0.00  0.00    -0.220 NA
ATOM      3  C   UNL     1       6.687  -0.933  26.919  0.00  0.00    +0.225 A 
ATOM      4  N   UNL     1       6.365  -2.223  27.027  0.00  0.00    -0.216 NA
ATOM      5  C   UNL     1       7.290  -3.035  26.477  0.00  0.00    +0.168 A 
ATOM      6  N   UNL     1       7.284  -4.428  26.419  0.00  0.00    -0.214 N 
ATOM      7  N   UNL     1       8.385  -4.896  25.748  0.00  0.00    -0.172 NA
ATOM      8  C   UNL     1       9.066  -3.802  25.416  0.00  0.00    +0.148 A 
ATOM      9  C   UNL     1       8.447  -2.615  25.840  0.00  0.00    +0.079 A 
ENDROOT
BRANCH   6  10
ATOM     10  C   UNL     1       6.323  -5.344  26.943  0.00  0.00    +0.068 A 
ATOM     11  C   UNL     1       5.374  -5.966  26.122  0.00  0.00    +0.028 A 
ATOM     12  C   UNL     1       4.448  -6.861  26.663  0.00  0.00    +0.002 A 
ATOM     13  C   UNL     1       4.460  -7.143  28.026  0.00  0.00    +0.000 A 
ATOM     14  C   UNL     1       5.397  -6.527  28.853  0.00  0.00    +0.002 A 
ATOM     15  C   UNL     1       6.324  -5.630  28.318  0.00  0.00    +0.028 A 
ENDBRANCH   6  10
BRANCH   1  16
ATOM     16  N   UNL     1       9.813  -0.710  25.096  0.00  0.00    -0.299 N 
ATOM     17  H   UNL     1      10.650  -1.261  25.215  0.00  0.00    +0.154 HD
BRANCH  16  23
ATOM     18  C   UNL     1      10.390   2.422  23.134  0.00  0.00    +0.038 A 
ATOM     19  C   UNL     1      10.082   2.003  21.845  0.00  0.00    +0.013 A 
ATOM     20  C   UNL     1       9.711   0.676  21.623  0.00  0.00    +0.006 A 
ATOM     21  C   UNL     1       9.634  -0.249  22.686  0.00  0.00    -0.029 A 
ATOM     22  C   UNL     1       9.292  -1.669  22.322  0.00  0.00    +0.045 C 
ATOM     23  C   UNL     1       9.878   0.187  24.007  0.00  0.00    +0.036 A 
ATOM     24  C   UNL     1      10.259   1.527  24.198  0.00  0.00    +0.036 A 
BRANCH  18  28
ATOM     25  C   UNL     1      10.166   6.125  23.858  0.00  0.00    +0.128 C 
ATOM     26  N   UNL     1       9.842   4.760  23.537  0.00  0.00    -0.314 N 
ATOM     27  H   UNL     1       8.886   4.449  23.662  0.00  0.00    +0.149 HD
ATOM     28  C   UNL     1      10.839   3.821  23.363  0.00  0.00    +0.244 C 
ATOM     29  O   UNL     1      12.037   4.080  23.428  0.00  0.00    -0.270 OA
ENDBRANCH  18  28
ENDBRANCH  16  23
ENDBRANCH   1  16
TORSDOF 4
ENDMDL
MODEL 7
REMARK VINA RESULT:      -7.6      3.318      9.352
REMARK  Name = 
REMARK  6 active torsions:
REMARK  status: ('A' for Active; 'I' for Inactive)
REMARK    1  A    between atoms: C_1  and  N_2
REMARK    2  A    between atoms: C_3  and  C_5
REMARK    3  A    between atoms: C_7  and  N_8
REMARK    4  A    between atoms: N_8  and  C_9
REMARK    5  A    between atoms: N_13  and  C_18
REMARK    6  A    between atoms: C_24  and  C_25
REMARK                            x       y       z     vdW  Elec       q    Type
REMARK                         _______ _______ _______ _____ _____    ______ ____
ROOT
ATOM      1  C   UNL     1       7.651   0.009  23.589  0.00  0.00    +0.137 A 
ATOM      2  N   UNL     1       7.119   0.292  24.809  0.00  0.00    -0.220 NA
ATOM      3  C   UNL     1       7.541   1.371  25.483  0.00  0.00    +0.225 A 
ATOM      4  N   UNL     1       8.445   2.269  25.090  0.00  0.00    -0.216 NA
ATOM      5  C   UNL     1       8.941   2.003  23.865  0.00  0.00    +0.168 A 
ATOM      6  N   UNL     1       9.887   2.730  23.144  0.00  0.00    -0.214 N 
ATOM      7  N   UNL     1      10.163   2.125  21.945  0.00  0.00    -0.172 NA
ATOM      8  C   UNL     1       9.380   1.048  21.924  0.00  0.00    +0.148 A 
ATOM      9  C   UNL     1       8.594   0.914  23.080  0.00  0.00    +0.079 A 
ENDROOT
BRANCH   6  10
ATOM     10  C   UNL     1      10.549   3.944  23.502  0.00  0.00    +0.068 A 
ATOM     11  C   UNL     1       9.856   5.019  24.073  0.00  0.00    +0.028 A 
ATOM     12  C   UNL     1      10.532   6.193  24.415  0.00  0.00    +0.002 A 
ATOM     13  C   UNL     1      11.900   6.305  24.193  0.00  0.00    +0.000 A 
ATOM     14  C   UNL     1      12.599   5.243  23.621  0.00  0.00    +0.002 A 
ATOM     15  C   UNL     1      11.929   4.068  23.275  0.00  0.00    +0.028 A 
ENDBRANCH   6  10
BRANCH   1  16
ATOM     16  N   UNL     1       7.262  -1.143  22.886  0.00  0.00    -0.299 N 
ATOM     17  H   UNL     1       7.330  -1.053  21.883  0.00  0.00    +0.154 HD
BRANCH  16  23
ATOM     18  C   UNL     1       5.887  -4.533  23.667  0.00  0.00    +0.038 A 
ATOM     19  C   UNL     1       7.017  -5.189  24.144  0.00  0.00    +0.013 A 
ATOM     20  C   UNL     1       8.238  -4.515  24.178  0.00  0.00    +0.006 A 
ATOM     21  C   UNL     1       8.348  -3.177  23.746  0.00  0.00    -0.029 A 
ATOM     22  C   UNL     1       9.727  -2.572  23.762  0.00  0.00    +0.045 C 
ATOM     23  C   UNL     1       7.191  -2.484  23.327  0.00  0.00    +0.036 A 
ATOM     24  C   UNL     1       5.976  -3.190  23.295  0.00  0.00    +0.036 A 
BRANCH  18  28
ATOM     25  C   UNL     1       3.303  -7.217  24.310  0.00  0.00    +0.128 C 
ATOM     26  N   UNL     1       4.533  -6.472  24.251  0.00  0.00    -0.314 N 
ATOM     27  H   UNL     1       5.279  -6.721  24.889  0.00  0.00    +0.149 HD
ATOM     28  C   UNL     1       4.596  -5.267  23.579  0.00  0.00    +0.244 C 
ATOM     29  O   UNL     1       3.651  -4.779  22.968  0.00  0.00    -0.270 OA
ENDBRANCH  18  28
ENDBRANCH  16  23
ENDBRANCH   1  16
TORSDOF 4
ENDMDL
MODEL 8
REMARK VINA RESULT:      -7.6      4.397      9.809
REMARK  Name = 
REMARK  6 active torsions:
REMARK  status: ('A' for Active; 'I' for Inactive)
REMARK    1  A    between atoms: C_1  and  N_2
REMARK    2  A    between atoms: C_3  and  C_5
REMARK    3  A    between atoms: C_7  and  N_8
REMARK    4  A    between atoms: N_8  and  C_9
REMARK    5  A    between atoms: N_13  and  C_18
REMARK    6  A    between atoms: C_24  and  C_25
REMARK                            x       y       z     vdW  Elec       q    Type
REMARK                         _______ _______ _______ _____ _____    ______ ____
ROOT
ATOM      1  C   UNL     1       8.216  -3.128  25.078  0.00  0.00    +0.137 A 
ATOM      2  N   UNL     1       8.318  -2.870  26.409  0.00  0.00    -0.220 NA
ATOM      3  C   UNL     1       8.642  -1.638  26.824  0.00  0.00    +0.225 A 
ATOM      4  N   UNL     1       8.867  -0.562  26.068  0.00  0.00    -0.216 NA
ATOM      5  C   UNL     1       8.727  -0.816  24.751  0.00  0.00    +0.168 A 
ATOM      6  N   UNL     1       8.876   0.070  23.685  0.00  0.00    -0.214 N 
ATOM      7  N   UNL     1       8.686  -0.567  22.486  0.00  0.00    -0.172 NA
ATOM      8  C   UNL     1       8.406  -1.827  22.816  0.00  0.00    +0.148 A 
ATOM      9  C   UNL     1       8.410  -2.049  24.203  0.00  0.00    +0.079 A 
ENDROOT
BRANCH   6  10
ATOM     10  C   UNL     1       9.185   1.464  23.713  0.00  0.00    +0.068 A 
ATOM     11  C   UNL     1      10.460   1.943  23.385  0.00  0.00    +0.028 A 
ATOM     12  C   UNL     1      10.731   3.313  23.418  0.00  0.00    +0.002 A 
ATOM     13  C   UNL     1       9.735   4.215  23.776  0.00  0.00    +0.000 A 
ATOM     14  C   UNL     1       8.464   3.750  24.109  0.00  0.00    +0.002 A 
ATOM     15  C   UNL     1       8.188   2.381  24.080  0.00  0.00    +0.028 A 
ENDBRANCH   6  10
BRANCH   1  16
ATOM     16  N   UNL     1       7.928  -4.424  24.617  0.00  0.00    -0.299 N 
ATOM     17  H   UNL     1       8.744  -4.958  24.359  0.00  0.00    +0.154 HD
BRANCH  16  23
ATOM     18  C   UNL     1       5.307  -6.435  26.373  0.00  0.00    +0.038 A 
ATOM     19  C   UNL     1       4.458  -6.764  25.321  0.00  0.00    +0.013 A 
ATOM     20  C   UNL     1       4.741  -6.294  24.038  0.00  0.00    +0.006 A 
ATOM     21  C   UNL     1       5.877  -5.498  23.784  0.00  0.00    -0.029 A 
ATOM     22  C   UNL     1       6.045  -4.990  22.376  0.00  0.00    +0.045 C 
ATOM     23  C   UNL     1       6.780  -5.219  24.833  0.00  0.00    +0.036 A 
ATOM     24  C   UNL     1       6.465  -5.697  26.117  0.00  0.00    +0.036 A 
BRANCH  18  28
ATOM     25  C   UNL     1       3.212  -7.251  29.412  0.00  0.00    +0.128 C 
ATOM     26  N   UNL     1       3.658  -6.756  28.136  0.00  0.00    -0.314 N 
ATOM     27  H   UNL     1       2.961  -6.519  27.440  0.00  0.00    +0.149 HD
ATOM     28  C   UNL     1       4.978  -6.888  27.750  0.00  0.00    +0.244 C 
ATOM     29  O   UNL     1       5.847  -7.386  28.459  0.00  0.00    -0.270 OA
ENDBRANCH  18  28
ENDBRANCH  16  23
ENDBRANCH   1  16
TORSDOF 4
ENDMDL
MODEL 9
REMARK VINA RESULT:      -7.5      3.393      5.179
REMARK  Name = 
REMARK  6 active torsions:
REMARK  status: ('A' for Active; 'I' for Inactive)
REMARK    1  A    between atoms: C_1  and  N_2
REMARK    2  A    between atoms: C_3  and  C_5
REMARK    3  A    between atoms: C_7  and  N_8
REMARK    4  A    between atoms: N_8  and  C_9
REMARK    5  A    between atoms: N_13  and  C_18
REMARK    6  A    between atoms: C_24  and  C_25
REMARK                            x       y       z     vdW  Elec       q    Type
REMARK                         _______ _______ _______ _____ _____    ______ ____
ROOT
ATOM      1  C   UNL     1       6.574  -2.615  23.101  0.00  0.00    +0.137 A 
ATOM      2  N   UNL     1       6.960  -3.186  21.928  0.00  0.00    -0.220 NA
ATOM      3  C   UNL     1       6.276  -4.231  21.442  0.00  0.00    +0.225 A 
ATOM      4  N   UNL     1       5.194  -4.806  21.967  0.00  0.00    -0.216 NA
ATOM      5  C   UNL     1       4.795  -4.212  23.110  0.00  0.00    +0.168 A 
ATOM      6  N   UNL     1       3.705  -4.541  23.914  0.00  0.00    -0.214 N 
ATOM      7  N   UNL     1       3.641  -3.726  25.015  0.00  0.00    -0.172 NA
ATOM      8  C   UNL     1       4.673  -2.895  24.876  0.00  0.00    +0.148 A 
ATOM      9  C   UNL     1       5.426  -3.137  23.717  0.00  0.00    +0.079 A 
ENDROOT
BRANCH   6  10
ATOM     10  C   UNL     1       2.725  -5.562  23.724  0.00  0.00    +0.068 A 
ATOM     11  C   UNL     1       1.531  -5.319  23.032  0.00  0.00    +0.028 A 
ATOM     12  C   UNL     1       0.593  -6.340  22.859  0.00  0.00    +0.002 A 
ATOM     13  C   UNL     1       0.837  -7.610  23.372  0.00  0.00    +0.000 A 
ATOM     14  C   UNL     1       2.019  -7.862  24.065  0.00  0.00    +0.002 A 
ATOM     15  C   UNL     1       2.960  -6.846  24.244  0.00  0.00    +0.028 A 
ENDBRANCH   6  10
BRANCH   1  16
ATOM     16  N   UNL     1       7.304  -1.552  23.657  0.00  0.00    -0.299 N 
ATOM     17  H   UNL     1       7.702  -1.757  24.562  0.00  0.00    +0.154 HD
BRANCH  16  23
ATOM     18  C   UNL     1       7.784   1.905  22.310  0.00  0.00    +0.038 A 
ATOM     19  C   UNL     1       9.076   1.829  21.803  0.00  0.00    +0.013 A 
ATOM     20  C   UNL     1       9.796   0.641  21.933  0.00  0.00    +0.006 A 
ATOM     21  C   UNL     1       9.235  -0.489  22.564  0.00  0.00    -0.029 A 
ATOM     22  C   UNL     1      10.127  -1.694  22.711  0.00  0.00    +0.045 C 
ATOM     23  C   UNL     1       7.900  -0.441  23.019  0.00  0.00    +0.036 A 
ATOM     24  C   UNL     1       7.201   0.772  22.882  0.00  0.00    +0.036 A 
BRANCH  18  28
ATOM     25  C   UNL     1       7.182   5.626  22.022  0.00  0.00    +0.128 C 
ATOM     26  N   UNL     1       7.799   4.338  22.202  0.00  0.00    -0.314 N 
ATOM     27  H   UNL     1       8.803   4.263  22.088  0.00  0.00    +0.149 HD
ATOM     28  C   UNL     1       7.036   3.187  22.221  0.00  0.00    +0.244 C 
ATOM     29  O   UNL     1       5.812   3.181  22.128  0.00  0.00    -0.270 OA
ENDBRANCH  18  28
ENDBRANCH  16  23
ENDBRANCH   1  16
TORSDOF 4
ENDMDL
