MODEL 1
REMARK VINA RESULT:      -7.7      0.000      0.000
REMARK  Name = 
REMARK  10 active torsions:
REMARK  status: ('A' for Active; 'I' for Inactive)
REMARK    1  A    between atoms: C_1  and  C_2
REMARK    2  A    between atoms: C_2  and  C_3
REMARK    3  A    between atoms: C_2  and  C_4
REMARK    4  A    between atoms: C_4  and  C_5
REMARK    5  A    between atoms: C_5  and  N_6
REMARK    6  A    between atoms: C_12  and  O_13
REMARK    7  A    between atoms: C_14  and  C_17
REMARK    8  A    between atoms: C_22  and  N_23
REMARK    9  A    between atoms: N_23  and  S_24
REMARK   10  A    between atoms: S_24  and  C_25
REMARK                            x       y       z     vdW  Elec       q    Type
REMARK                         _______ _______ _______ _____ _____    ______ ____
ROOT
ATOM      1  C   UNL     1       8.063  -0.515  24.277  0.00  0.00    +0.351 C 
ATOM      2  N   UNL     1       9.014  -1.352  24.880  0.00  0.00    -0.090 N 
ATOM      3  H   UNL     1       9.987  -1.070  24.725  0.00  0.00    +0.326 HD
ATOM      4  S   UNL     1       8.877  -3.000  24.919  0.00  0.00    +0.136 S 
ATOM      5  O   UNL     1      10.031  -3.519  24.216  0.00  0.00    -0.130 OA
ATOM      6  O   UNL     1       8.583  -3.388  26.278  0.00  0.00    -0.130 OA
ATOM      7  C   UNL     1       7.469  -3.345  23.958  0.00  0.00    +0.181 A 
ATOM      8  C   UNL     1       7.047  -4.676  23.834  0.00  0.00    +0.059 A 
ATOM      9  C   UNL     1       5.866  -4.946  23.154  0.00  0.00    +0.050 A 
ATOM     10  C   UNL     1       5.162  -3.913  22.542  0.00  0.00    +0.029 A 
ATOM     11  C   UNL     1       5.603  -2.593  22.682  0.00  0.00    +0.059 A 
ATOM     12  C   UNL     1       6.746  -2.283  23.430  0.00  0.00    +0.205 A 
ATOM     13  N   UNL     1       7.035  -0.929  23.616  0.00  0.00    -0.037 NA
ENDROOT
BRANCH   1  17
ATOM     14  N   UNL     1       9.679   2.884  23.662  0.00  0.00    -0.244 N 
ATOM     15  C   UNL     1       9.505   1.507  23.645  0.00  0.00    +0.285 A 
ATOM     16  O   UNL     1      10.221   0.747  22.990  0.00  0.00    -0.265 OA
ATOM     17  C   UNL     1       8.391   0.926  24.427  0.00  0.00    +0.176 A 
ATOM     18  C   UNL     1       7.703   1.694  25.282  0.00  0.00    +0.162 A 
ATOM     19  C   UNL     1       7.997   3.072  25.402  0.00  0.00    +0.106 A 
ATOM     20  C   UNL     1       7.521   4.101  26.197  0.00  0.00    +0.033 A 
ATOM     21  C   UNL     1       8.229   5.278  25.854  0.00  0.00    +0.022 A 
ATOM     22  C   UNL     1       9.130   4.940  24.868  0.00  0.00    +0.111 A 
ATOM     23  N   UNL     1       8.960   3.615  24.581  0.00  0.00    -0.253 N 
BRANCH  18  24
ATOM     24  O   UNL     1       6.720   1.189  26.104  0.00  0.00    -0.504 OA
ATOM     25  H   UNL     1       7.091   1.011  26.984  0.00  0.00    +0.292 HD
ENDBRANCH  18  24
BRANCH  14  26
ATOM     26  C   UNL     1      10.643   3.453  22.720  0.00  0.00    +0.146 C 
BRANCH  26  27
ATOM     27  C   UNL     1      11.903   4.017  23.401  0.00  0.00    +0.026 C 
BRANCH  27  29
ATOM     28  C   UNL     1      12.421   6.290  24.412  0.00  0.00    +0.007 C 
ATOM     29  C   UNL     1      12.169   5.508  23.124  0.00  0.00    -0.015 C 
ATOM     30  C   UNL     1      13.365   5.661  22.181  0.00  0.00    +0.007 C 
ENDBRANCH  27  29
ENDBRANCH  26  27
ENDBRANCH  14  26
ENDBRANCH   1  17
BRANCH   9  31
ATOM     31  N   UNL     1       5.298  -6.249  23.167  0.00  0.00    -0.221 N 
ATOM     32  H   UNL     1       5.116  -6.649  22.244  0.00  0.00    +0.173 HD
BRANCH  31  33
ATOM     33  S   UNL     1       3.992  -6.568  24.184  0.00  0.00    +0.040 S 
ATOM     34  O   UNL     1       3.953  -5.458  25.111  0.00  0.00    -0.155 OA
ATOM     35  O   UNL     1       4.036  -7.937  24.642  0.00  0.00    -0.155 OA
ATOM     36  C   UNL     1       2.633  -6.367  23.054  0.00  0.00    +0.218 C 
ENDBRANCH  31  33
ENDBRANCH   9  31
TORSDOF 7
ENDMDL
MODEL 2
REMARK VINA RESULT:      -7.4      2.334      2.662
REMARK  Name = 
REMARK  10 active torsions:
REMARK  status: ('A' for Active; 'I' for Inactive)
REMARK    1  A    between atoms: C_1  and  C_2
REMARK    2  A    between atoms: C_2  and  C_3
REMARK    3  A    between atoms: C_2  and  C_4
REMARK    4  A    between atoms: C_4  and  C_5
REMARK    5  A    between atoms: C_5  and  N_6
REMARK    6  A    between atoms: C_12  and  O_13
REMARK    7  A    between atoms: C_14  and  C_17
REMARK    8  A    between atoms: C_22  and  N_23
REMARK    9  A    between atoms: N_23  and  S_24
REMARK   10  A    between atoms: S_24  and  C_25
REMARK                            x       y       z     vdW  Elec       q    Type
REMARK                         _______ _______ _______ _____ _____    ______ ____
ROOT
ATOM      1  C   UNL     1       7.491   0.355  23.792  0.00  0.00    +0.351 C 
ATOM      2  N   UNL     1       8.493  -0.434  23.208  0.00  0.00    -0.090 N 
ATOM      3  H   UNL     1       8.793  -0.119  22.280  0.00  0.00    +0.326 HD
ATOM      4  S   UNL     1       8.525  -2.084  23.310  0.00  0.00    +0.136 S 
ATOM      5  O   UNL     1       8.452  -2.575  21.950  0.00  0.00    -0.130 OA
ATOM      6  O   UNL     1       9.610  -2.454  24.189  0.00  0.00    -0.130 OA
ATOM      7  C   UNL     1       7.037  -2.501  24.107  0.00  0.00    +0.181 A 
ATOM      8  C   UNL     1       6.781  -3.849  24.394  0.00  0.00    +0.059 A 
ATOM      9  C   UNL     1       5.645  -4.178  25.122  0.00  0.00    +0.050 A 
ATOM     10  C   UNL     1       4.740  -3.185  25.488  0.00  0.00    +0.029 A 
ATOM     11  C   UNL     1       5.019  -1.847  25.191  0.00  0.00    +0.059 A 
ATOM     12  C   UNL     1       6.198  -1.480  24.529  0.00  0.00    +0.205 A 
ATOM     13  N   UNL     1       6.446  -0.111  24.390  0.00  0.00    -0.037 NA
ENDROOT
BRANCH   1  17
ATOM     14  N   UNL     1       9.220   3.753  23.846  0.00  0.00    -0.244 N 
ATOM     15  C   UNL     1       8.931   2.438  24.183  0.00  0.00    +0.285 A 
ATOM     16  O   UNL     1       9.647   1.761  24.923  0.00  0.00    -0.265 OA
ATOM     17  C   UNL     1       7.722   1.810  23.604  0.00  0.00    +0.176 A 
ATOM     18  C   UNL     1       6.832   2.559  22.940  0.00  0.00    +0.162 A 
ATOM     19  C   UNL     1       7.068   3.938  22.737  0.00  0.00    +0.106 A 
ATOM     20  C   UNL     1       6.353   4.970  22.151  0.00  0.00    +0.033 A 
ATOM     21  C   UNL     1       7.123   6.153  22.267  0.00  0.00    +0.022 A 
ATOM     22  C   UNL     1       8.283   5.821  22.932  0.00  0.00    +0.111 A 
ATOM     23  N   UNL     1       8.254   4.477  23.183  0.00  0.00    -0.253 N 
BRANCH  18  24
ATOM     24  O   UNL     1       5.645   2.048  22.463  0.00  0.00    -0.504 OA
ATOM     25  H   UNL     1       4.968   2.094  23.157  0.00  0.00    +0.292 HD
ENDBRANCH  18  24
BRANCH  14  26
ATOM     26  C   UNL     1      10.522   4.283  24.251  0.00  0.00    +0.146 C 
BRANCH  26  27
ATOM     27  C   UNL     1      11.602   4.150  23.162  0.00  0.00    +0.026 C 
BRANCH  27  29
ATOM     28  C   UNL     1      13.298   5.639  21.998  0.00  0.00    +0.007 C 
ATOM     29  C   UNL     1      12.807   5.091  23.336  0.00  0.00    -0.015 C 
ATOM     30  C   UNL     1      12.439   6.249  24.267  0.00  0.00    +0.007 C 
ENDBRANCH  27  29
ENDBRANCH  26  27
ENDBRANCH  14  26
ENDBRANCH   1  17
BRANCH   9  31
ATOM     31  N   UNL     1       5.442  -5.501  25.602  0.00  0.00    -0.221 N 
ATOM     32  H   UNL     1       4.484  -5.849  25.514  0.00  0.00    +0.173 HD
BRANCH  31  33
ATOM     33  S   UNL     1       6.061  -5.934  27.108  0.00  0.00    +0.040 S 
ATOM     34  O   UNL     1       7.499  -5.919  26.947  0.00  0.00    -0.155 OA
ATOM     35  O   UNL     1       5.367  -7.093  27.621  0.00  0.00    -0.155 OA
ATOM     36  C   UNL     1       5.618  -4.507  28.074  0.00  0.00    +0.218 C 
ENDBRANCH  31  33
ENDBRANCH   9  31
TORSDOF 7
ENDMDL
MODEL 3
REMARK VINA RESULT:      -7.4      2.028      3.577
REMARK  Name = 
REMARK  10 active torsions:
REMARK  status: ('A' for Active; 'I' for Inactive)
REMARK    1  A    between atoms: C_1  and  C_2
REMARK    2  A    between atoms: C_2  and  C_3
REMARK    3  A    between atoms: C_2  and  C_4
REMARK    4  A    between atoms: C_4  and  C_5
REMARK    5  A    between atoms: C_5  and  N_6
REMARK    6  A    between atoms: C_12  and  O_13
REMARK    7  A    between atoms: C_14  and  C_17
REMARK    8  A    between atoms: C_22  and  N_23
REMARK    9  A    between atoms: N_23  and  S_24
REMARK   10  A    between atoms: S_24  and  C_25
REMARK                            x       y       z     vdW  Elec       q    Type
REMARK                         _______ _______ _______ _____ _____    ______ ____
ROOT
ATOM      1  C   UNL     1       8.661   0.874  24.495  0.00  0.00    +0.351 C 
ATOM      2  N   UNL     1       8.385   0.519  25.824  0.00  0.00    -0.090 N 
ATOM      3  H   UNL     1       9.068   0.866  26.506  0.00  0.00    +0.326 HD
ATOM      4  S   UNL     1       7.810  -0.966  26.267  0.00  0.00    +0.136 S 
ATOM      5  O   UNL     1       8.801  -1.536  27.155  0.00  0.00    -0.130 OA
ATOM      6  O   UNL     1       6.434  -0.806  26.674  0.00  0.00    -0.130 OA
ATOM      7  C   UNL     1       7.818  -1.894  24.796  0.00  0.00    +0.181 A 
ATOM      8  C   UNL     1       7.330  -3.208  24.826  0.00  0.00    +0.059 A 
ATOM      9  C   UNL     1       7.238  -3.918  23.635  0.00  0.00    +0.050 A 
ATOM     10  C   UNL     1       7.699  -3.353  22.449  0.00  0.00    +0.029 A 
ATOM     11  C   UNL     1       8.179  -2.039  22.446  0.00  0.00    +0.059 A 
ATOM     12  C   UNL     1       8.208  -1.272  23.618  0.00  0.00    +0.205 A 
ATOM     13  N   UNL     1       8.586   0.067  23.490  0.00  0.00    -0.037 NA
ENDROOT
BRANCH   1  17
ATOM     14  N   UNL     1       8.712   4.674  24.796  0.00  0.00    -0.244 N 
ATOM     15  C   UNL     1       8.209   3.382  24.761  0.00  0.00    +0.285 A 
ATOM     16  O   UNL     1       7.049   3.103  25.075  0.00  0.00    -0.265 OA
ATOM     17  C   UNL     1       9.113   2.282  24.358  0.00  0.00    +0.176 A 
ATOM     18  C   UNL     1      10.319   2.561  23.847  0.00  0.00    +0.162 A 
ATOM     19  C   UNL     1      10.759   3.901  23.744  0.00  0.00    +0.106 A 
ATOM     20  C   UNL     1      11.894   4.515  23.239  0.00  0.00    +0.033 A 
ATOM     21  C   UNL     1      11.747   5.912  23.415  0.00  0.00    +0.022 A 
ATOM     22  C   UNL     1      10.522   6.122  24.011  0.00  0.00    +0.111 A 
ATOM     23  N   UNL     1       9.948   4.901  24.233  0.00  0.00    -0.253 N 
BRANCH  18  24
ATOM     24  O   UNL     1      11.164   1.585  23.367  0.00  0.00    -0.504 OA
ATOM     25  H   UNL     1      10.648   0.910  22.898  0.00  0.00    +0.292 HD
ENDBRANCH  18  24
BRANCH  14  26
ATOM     26  C   UNL     1       7.873   5.709  25.400  0.00  0.00    +0.146 C 
BRANCH  26  27
ATOM     27  C   UNL     1       7.237   6.660  24.369  0.00  0.00    +0.026 C 
BRANCH  27  29
ATOM     28  C   UNL     1       5.129   6.310  22.996  0.00  0.00    +0.007 C 
ATOM     29  C   UNL     1       6.607   5.958  23.152  0.00  0.00    -0.015 C 
ATOM     30  C   UNL     1       7.367   6.332  21.878  0.00  0.00    +0.007 C 
ENDBRANCH  27  29
ENDBRANCH  26  27
ENDBRANCH  14  26
ENDBRANCH   1  17
BRANCH   9  31
ATOM     31  N   UNL     1       6.575  -5.175  23.583  0.00  0.00    -0.221 N 
ATOM     32  H   UNL     1       7.163  -5.961  23.300  0.00  0.00    +0.173 HD
BRANCH  31  33
ATOM     33  S   UNL     1       5.081  -5.285  22.811  0.00  0.00    +0.040 S 
ATOM     34  O   UNL     1       5.354  -5.929  21.544  0.00  0.00    -0.155 OA
ATOM     35  O   UNL     1       4.383  -4.022  22.886  0.00  0.00    -0.155 OA
ATOM     36  C   UNL     1       4.257  -6.475  23.846  0.00  0.00    +0.218 C 
ENDBRANCH  31  33
ENDBRANCH   9  31
TORSDOF 7
ENDMDL
MODEL 4
REMARK VINA RESULT:      -7.3      2.543      3.554
REMARK  Name = 
REMARK  10 active torsions:
REMARK  status: ('A' for Active; 'I' for Inactive)
REMARK    1  A    between atoms: C_1  and  C_2
REMARK    2  A    between atoms: C_2  and  C_3
REMARK    3  A    between atoms: C_2  and  C_4
REMARK    4  A    between atoms: C_4  and  C_5
REMARK    5  A    between atoms: C_5  and  N_6
REMARK    6  A    between atoms: C_12  and  O_13
REMARK    7  A    between atoms: C_14  and  C_17
REMARK    8  A    between atoms: C_22  and  N_23
REMARK    9  A    between atoms: N_23  and  S_24
REMARK   10  A    between atoms: S_24  and  C_25
REMARK                            x       y       z     vdW  Elec       q    Type
REMARK                         _______ _______ _______ _____ _____    ______ ____
ROOT
ATOM      1  C   UNL     1       7.395   1.584  23.492  0.00  0.00    +0.351 C 
ATOM      2  N   UNL     1       8.597   1.260  22.845  0.00  0.00    -0.090 N 
ATOM      3  H   UNL     1       8.776   1.795  21.989  0.00  0.00    +0.326 HD
ATOM      4  S   UNL     1       9.163  -0.287  22.703  0.00  0.00    +0.136 S 
ATOM      5  O   UNL     1       9.249  -0.558  21.283  0.00  0.00    -0.130 OA
ATOM      6  O   UNL     1      10.311  -0.421  23.568  0.00  0.00    -0.130 OA
ATOM      7  C   UNL     1       7.894  -1.279  23.358  0.00  0.00    +0.181 A 
ATOM      8  C   UNL     1       8.090  -2.665  23.429  0.00  0.00    +0.059 A 
ATOM      9  C   UNL     1       7.123  -3.450  24.046  0.00  0.00    +0.050 A 
ATOM     10  C   UNL     1       5.947  -2.870  24.511  0.00  0.00    +0.029 A 
ATOM     11  C   UNL     1       5.776  -1.484  24.430  0.00  0.00    +0.059 A 
ATOM     12  C   UNL     1       6.769  -0.659  23.886  0.00  0.00    +0.205 A 
ATOM     13  N   UNL     1       6.560   0.721  23.963  0.00  0.00    -0.037 NA
ENDROOT
BRANCH   1  17
ATOM     14  N   UNL     1       7.963   5.314  24.044  0.00  0.00    -0.244 N 
ATOM     15  C   UNL     1       8.129   3.942  24.175  0.00  0.00    +0.285 A 
ATOM     16  O   UNL     1       9.075   3.434  24.781  0.00  0.00    -0.265 OA
ATOM     17  C   UNL     1       7.141   3.047  23.532  0.00  0.00    +0.176 A 
ATOM     18  C   UNL     1       6.014   3.555  23.017  0.00  0.00    +0.162 A 
ATOM     19  C   UNL     1       5.787   4.951  23.031  0.00  0.00    +0.106 A 
ATOM     20  C   UNL     1       4.742   5.769  22.634  0.00  0.00    +0.033 A 
ATOM     21  C   UNL     1       5.106   7.108  22.919  0.00  0.00    +0.022 A 
ATOM     22  C   UNL     1       6.357   7.077  23.495  0.00  0.00    +0.111 A 
ATOM     23  N   UNL     1       6.772   5.774  23.529  0.00  0.00    -0.253 N 
BRANCH  18  24
ATOM     24  O   UNL     1       5.017   2.763  22.493  0.00  0.00    -0.504 OA
ATOM     25  H   UNL     1       4.697   3.149  21.661  0.00  0.00    +0.292 HD
ENDBRANCH  18  24
BRANCH  14  26
ATOM     26  C   UNL     1       9.057   6.172  24.498  0.00  0.00    +0.146 C 
BRANCH  26  27
ATOM     27  C   UNL     1      10.233   6.239  23.506  0.00  0.00    +0.026 C 
BRANCH  27  29
ATOM     28  C   UNL     1      12.566   5.406  22.944  0.00  0.00    +0.007 C 
ATOM     29  C   UNL     1      11.570   5.715  24.061  0.00  0.00    -0.015 C 
ATOM     30  C   UNL     1      12.174   6.738  25.026  0.00  0.00    +0.007 C 
ENDBRANCH  27  29
ENDBRANCH  26  27
ENDBRANCH  14  26
ENDBRANCH   1  17
BRANCH   9  31
ATOM     31  N   UNL     1       7.362  -4.826  24.314  0.00  0.00    -0.221 N 
ATOM     32  H   UNL     1       6.532  -5.421  24.284  0.00  0.00    +0.173 HD
BRANCH  31  33
ATOM     33  S   UNL     1       8.311  -5.253  25.640  0.00  0.00    +0.040 S 
ATOM     34  O   UNL     1       9.563  -5.713  25.080  0.00  0.00    -0.155 OA
ATOM     35  O   UNL     1       7.549  -6.064  26.561  0.00  0.00    -0.155 OA
ATOM     36  C   UNL     1       8.607  -3.657  26.367  0.00  0.00    +0.218 C 
ENDBRANCH  31  33
ENDBRANCH   9  31
TORSDOF 7
ENDMDL
MODEL 5
REMARK VINA RESULT:      -7.3      1.570      2.995
REMARK  Name = 
REMARK  10 active torsions:
REMARK  status: ('A' for Active; 'I' for Inactive)
REMARK    1  A    between atoms: C_1  and  C_2
REMARK    2  A    between atoms: C_2  and  C_3
REMARK    3  A    between atoms: C_2  and  C_4
REMARK    4  A    between atoms: C_4  and  C_5
REMARK    5  A    between atoms: C_5  and  N_6
REMARK    6  A    between atoms: C_12  and  O_13
REMARK    7  A    between atoms: C_14  and  C_17
REMARK    8  A    between atoms: C_22  and  N_23
REMARK    9  A    between atoms: N_23  and  S_24
REMARK   10  A    between atoms: S_24  and  C_25
REMARK                            x       y       z     vdW  Elec       q    Type
REMARK                         _______ _______ _______ _____ _____    ______ ____
ROOT
ATOM      1  C   UNL     1       8.051  -0.981  23.884  0.00  0.00    +0.351 C 
ATOM      2  N   UNL     1       8.894  -1.742  24.706  0.00  0.00    -0.090 N 
ATOM      3  H   UNL     1       9.891  -1.531  24.603  0.00  0.00    +0.326 HD
ATOM      4  S   UNL     1       8.660  -3.352  25.005  0.00  0.00    +0.136 S 
ATOM      5  O   UNL     1       9.841  -4.031  24.513  0.00  0.00    -0.130 OA
ATOM      6  O   UNL     1       8.224  -3.491  26.374  0.00  0.00    -0.130 OA
ATOM      7  C   UNL     1       7.326  -3.796  23.981  0.00  0.00    +0.181 A 
ATOM      8  C   UNL     1       6.842  -5.110  24.038  0.00  0.00    +0.059 A 
ATOM      9  C   UNL     1       5.712  -5.443  23.301  0.00  0.00    +0.050 A 
ATOM     10  C   UNL     1       5.126  -4.501  22.460  0.00  0.00    +0.029 A 
ATOM     11  C   UNL     1       5.628  -3.196  22.422  0.00  0.00    +0.059 A 
ATOM     12  C   UNL     1       6.715  -2.811  23.217  0.00  0.00    +0.205 A 
ATOM     13  N   UNL     1       7.063  -1.458  23.203  0.00  0.00    -0.037 NA
ENDROOT
BRANCH   1  17
ATOM     14  N   UNL     1       7.813   2.821  24.060  0.00  0.00    -0.244 N 
ATOM     15  C   UNL     1       7.408   1.499  23.937  0.00  0.00    +0.285 A 
ATOM     16  O   UNL     1       6.224   1.156  23.943  0.00  0.00    -0.265 OA
ATOM     17  C   UNL     1       8.445   0.450  23.824  0.00  0.00    +0.176 A 
ATOM     18  C   UNL     1       9.727   0.794  23.641  0.00  0.00    +0.162 A 
ATOM     19  C   UNL     1      10.104   2.157  23.613  0.00  0.00    +0.106 A 
ATOM     20  C   UNL     1      11.297   2.830  23.406  0.00  0.00    +0.033 A 
ATOM     21  C   UNL     1      11.032   4.218  23.490  0.00  0.00    +0.022 A 
ATOM     22  C   UNL     1       9.684   4.363  23.734  0.00  0.00    +0.111 A 
ATOM     23  N   UNL     1       9.140   3.113  23.837  0.00  0.00    -0.253 N 
BRANCH  18  24
ATOM     24  O   UNL     1      10.721  -0.137  23.434  0.00  0.00    -0.504 OA
ATOM     25  H   UNL     1      11.187   0.063  22.606  0.00  0.00    +0.292 HD
ENDBRANCH  18  24
BRANCH  14  26
ATOM     26  C   UNL     1       6.788   3.813  24.386  0.00  0.00    +0.146 C 
BRANCH  26  27
ATOM     27  C   UNL     1       6.174   4.487  23.146  0.00  0.00    +0.026 C 
BRANCH  27  29
ATOM     28  C   UNL     1       6.890   6.564  24.421  0.00  0.00    +0.007 C 
ATOM     29  C   UNL     1       6.301   6.021  23.121  0.00  0.00    -0.015 C 
ATOM     30  C   UNL     1       7.168   6.456  21.937  0.00  0.00    +0.007 C 
ENDBRANCH  27  29
ENDBRANCH  26  27
ENDBRANCH  14  26
ENDBRANCH   1  17
BRANCH   9  31
ATOM     31  N   UNL     1       5.071  -6.701  23.473  0.00  0.00    -0.221 N 
ATOM     32  H   UNL     1       4.800  -7.169  22.606  0.00  0.00    +0.173 HD
BRANCH  31  33
ATOM     33  S   UNL     1       3.826  -6.842  24.600  0.00  0.00    +0.040 S 
ATOM     34  O   UNL     1       3.324  -8.190  24.445  0.00  0.00    -0.155 OA
ATOM     35  O   UNL     1       2.952  -5.694  24.528  0.00  0.00    -0.155 OA
ATOM     36  C   UNL     1       4.745  -6.788  26.122  0.00  0.00    +0.218 C 
ENDBRANCH  31  33
ENDBRANCH   9  31
TORSDOF 7
ENDMDL
MODEL 6
REMARK VINA RESULT:      -7.2      2.285      3.020
REMARK  Name = 
REMARK  10 active torsions:
REMARK  status: ('A' for Active; 'I' for Inactive)
REMARK    1  A    between atoms: C_1  and  C_2
REMARK    2  A    between atoms: C_2  and  C_3
REMARK    3  A    between atoms: C_2  and  C_4
REMARK    4  A    between atoms: C_4  and  C_5
REMARK    5  A    between atoms: C_5  and  N_6
REMARK    6  A    between atoms: C_12  and  O_13
REMARK    7  A    between atoms: C_14  and  C_17
REMARK    8  A    between atoms: C_22  and  N_23
REMARK    9  A    between atoms: N_23  and  S_24
REMARK   10  A    between atoms: S_24  and  C_25
REMARK                            x       y       z     vdW  Elec       q    Type
REMARK                         _______ _______ _______ _____ _____    ______ ____
ROOT
ATOM      1  C   UNL     1       6.599  -1.879  25.279  0.00  0.00    +0.351 C 
ATOM      2  N   UNL     1       6.980  -2.571  26.438  0.00  0.00    -0.090 N 
ATOM      3  H   UNL     1       7.941  -2.388  26.744  0.00  0.00    +0.326 HD
ATOM      4  S   UNL     1       6.552  -4.139  26.741  0.00  0.00    +0.136 S 
ATOM      5  O   UNL     1       7.789  -4.883  26.846  0.00  0.00    -0.130 OA
ATOM      6  O   UNL     1       5.580  -4.135  27.809  0.00  0.00    -0.130 OA
ATOM      7  C   UNL     1       5.740  -4.658  25.294  0.00  0.00    +0.181 A 
ATOM      8  C   UNL     1       5.201  -5.951  25.250  0.00  0.00    +0.059 A 
ATOM      9  C   UNL     1       4.462  -6.334  24.137  0.00  0.00    +0.050 A 
ATOM     10  C   UNL     1       4.333  -5.469  23.055  0.00  0.00    +0.029 A 
ATOM     11  C   UNL     1       4.879  -4.183  23.124  0.00  0.00    +0.059 A 
ATOM     12  C   UNL     1       5.559  -3.742  24.266  0.00  0.00    +0.205 A 
ATOM     13  N   UNL     1       5.958  -2.403  24.289  0.00  0.00    -0.037 NA
ENDROOT
BRANCH   1  17
ATOM     14  N   UNL     1       8.875   1.151  24.852  0.00  0.00    -0.244 N 
ATOM     15  C   UNL     1       8.494  -0.171  25.032  0.00  0.00    +0.285 A 
ATOM     16  O   UNL     1       9.287  -1.113  24.977  0.00  0.00    -0.265 OA
ATOM     17  C   UNL     1       7.064  -0.468  25.273  0.00  0.00    +0.176 A 
ATOM     18  C   UNL     1       6.205   0.532  25.510  0.00  0.00    +0.162 A 
ATOM     19  C   UNL     1       6.643   1.875  25.476  0.00  0.00    +0.106 A 
ATOM     20  C   UNL     1       6.041   3.101  25.712  0.00  0.00    +0.033 A 
ATOM     21  C   UNL     1       7.018   4.108  25.526  0.00  0.00    +0.022 A 
ATOM     22  C   UNL     1       8.197   3.477  25.193  0.00  0.00    +0.111 A 
ATOM     23  N   UNL     1       7.952   2.133  25.136  0.00  0.00    -0.253 N 
BRANCH  18  24
ATOM     24  O   UNL     1       4.884   0.311  25.834  0.00  0.00    -0.504 OA
ATOM     25  H   UNL     1       4.813  -0.482  26.390  0.00  0.00    +0.292 HD
ENDBRANCH  18  24
BRANCH  14  26
ATOM     26  C   UNL     1      10.244   1.403  24.404  0.00  0.00    +0.146 C 
BRANCH  26  27
ATOM     27  C   UNL     1      10.322   2.270  23.134  0.00  0.00    +0.026 C 
BRANCH  27  29
ATOM     28  C   UNL     1      10.031   0.076  21.886  0.00  0.00    +0.007 C 
ATOM     29  C   UNL     1       9.800   1.586  21.857  0.00  0.00    -0.015 C 
ATOM     30  C   UNL     1       8.309   1.880  21.678  0.00  0.00    +0.007 C 
ENDBRANCH  27  29
ENDBRANCH  26  27
ENDBRANCH  14  26
ENDBRANCH   1  17
BRANCH   9  31
ATOM     31  N   UNL     1       3.737  -7.558  24.128  0.00  0.00    -0.221 N 
ATOM     32  H   UNL     1       4.025  -8.224  23.408  0.00  0.00    +0.173 HD
BRANCH  31  33
ATOM     33  S   UNL     1       2.055  -7.517  24.214  0.00  0.00    +0.040 S 
ATOM     34  O   UNL     1       1.601  -7.618  22.844  0.00  0.00    -0.155 OA
ATOM     35  O   UNL     1       1.623  -6.443  25.078  0.00  0.00    -0.155 OA
ATOM     36  C   UNL     1       1.723  -9.077  25.002  0.00  0.00    +0.218 C 
ENDBRANCH  31  33
ENDBRANCH   9  31
TORSDOF 7
ENDMDL
MODEL 7
REMARK VINA RESULT:      -7.2      3.475      9.976
REMARK  Name = 
REMARK  10 active torsions:
REMARK  status: ('A' for Active; 'I' for Inactive)
REMARK    1  A    between atoms: C_1  and  C_2
REMARK    2  A    between atoms: C_2  and  C_3
REMARK    3  A    between atoms: C_2  and  C_4
REMARK    4  A    between atoms: C_4  and  C_5
REMARK    5  A    between atoms: C_5  and  N_6
REMARK    6  A    between atoms: C_12  and  O_13
REMARK    7  A    between atoms: C_14  and  C_17
REMARK    8  A    between atoms: C_22  and  N_23
REMARK    9  A    between atoms: N_23  and  S_24
REMARK   10  A    between atoms: S_24  and  C_25
REMARK                            x       y       z     vdW  Elec       q    Type
REMARK                         _______ _______ _______ _____ _____    ______ ____
ROOT
ATOM      1  C   UNL     1       6.202  -4.165  26.073  0.00  0.00    +0.351 C 
ATOM      2  N   UNL     1       6.770  -4.801  24.959  0.00  0.00    -0.090 N 
ATOM      3  H   UNL     1       6.897  -5.812  25.066  0.00  0.00    +0.326 HD
ATOM      4  S   UNL     1       7.997  -4.143  24.067  0.00  0.00    +0.136 S 
ATOM      5  O   UNL     1       9.108  -5.065  24.164  0.00  0.00    -0.130 OA
ATOM      6  O   UNL     1       7.454  -3.747  22.789  0.00  0.00    -0.130 OA
ATOM      7  C   UNL     1       8.432  -2.693  24.924  0.00  0.00    +0.181 A 
ATOM      8  C   UNL     1       9.428  -1.866  24.387  0.00  0.00    +0.059 A 
ATOM      9  C   UNL     1       9.706  -0.656  25.012  0.00  0.00    +0.050 A 
ATOM     10  C   UNL     1       9.057  -0.318  26.195  0.00  0.00    +0.029 A 
ATOM     11  C   UNL     1       8.066  -1.160  26.710  0.00  0.00    +0.059 A 
ATOM     12  C   UNL     1       7.708  -2.346  26.056  0.00  0.00    +0.205 A 
ATOM     13  N   UNL     1       6.623  -3.055  26.579  0.00  0.00    -0.037 NA
ENDROOT
BRANCH   1  17
ATOM     14  N   UNL     1       2.843  -5.940  26.401  0.00  0.00    -0.244 N 
ATOM     15  C   UNL     1       3.809  -5.070  25.917  0.00  0.00    +0.285 A 
ATOM     16  O   UNL     1       3.668  -4.418  24.880  0.00  0.00    -0.265 OA
ATOM     17  C   UNL     1       5.080  -4.938  26.665  0.00  0.00    +0.176 A 
ATOM     18  C   UNL     1       5.202  -5.492  27.878  0.00  0.00    +0.162 A 
ATOM     19  C   UNL     1       4.143  -6.252  28.427  0.00  0.00    +0.106 A 
ATOM     20  C   UNL     1       3.936  -6.900  29.634  0.00  0.00    +0.033 A 
ATOM     21  C   UNL     1       2.649  -7.488  29.597  0.00  0.00    +0.022 A 
ATOM     22  C   UNL     1       2.094  -7.177  28.375  0.00  0.00    +0.111 A 
ATOM     23  N   UNL     1       3.015  -6.458  27.666  0.00  0.00    -0.253 N 
BRANCH  18  24
ATOM     24  O   UNL     1       6.323  -5.323  28.659  0.00  0.00    -0.504 OA
ATOM     25  H   UNL     1       7.115  -5.552  28.146  0.00  0.00    +0.292 HD
ENDBRANCH  18  24
BRANCH  14  26
ATOM     26  C   UNL     1       1.693  -6.217  25.540  0.00  0.00    +0.146 C 
BRANCH  26  27
ATOM     27  C   UNL     1       1.891  -7.443  24.630  0.00  0.00    +0.026 C 
BRANCH  27  29
ATOM     28  C   UNL     1       1.143  -8.248  22.340  0.00  0.00    +0.007 C 
ATOM     29  C   UNL     1       1.841  -7.136  23.122  0.00  0.00    -0.015 C 
ATOM     30  C   UNL     1       1.126  -5.805  22.881  0.00  0.00    +0.007 C 
ENDBRANCH  27  29
ENDBRANCH  26  27
ENDBRANCH  14  26
ENDBRANCH   1  17
BRANCH   9  31
ATOM     31  N   UNL     1      10.565   0.299  24.403  0.00  0.00    -0.221 N 
ATOM     32  H   UNL     1      11.313   0.651  25.004  0.00  0.00    +0.173 HD
BRANCH  31  33
ATOM     33  S   UNL     1       9.890   1.580  23.540  0.00  0.00    +0.040 S 
ATOM     34  O   UNL     1      10.874   2.639  23.599  0.00  0.00    -0.155 OA
ATOM     35  O   UNL     1       8.521   1.793  23.949  0.00  0.00    -0.155 OA
ATOM     36  C   UNL     1       9.915   0.921  21.888  0.00  0.00    +0.218 C 
ENDBRANCH  31  33
ENDBRANCH   9  31
TORSDOF 7
ENDMDL
MODEL 8
REMARK VINA RESULT:      -7.1      2.845      9.659
REMARK  Name = 
REMARK  10 active torsions:
REMARK  status: ('A' for Active; 'I' for Inactive)
REMARK    1  A    between atoms: C_1  and  C_2
REMARK    2  A    between atoms: C_2  and  C_3
REMARK    3  A    between atoms: C_2  and  C_4
REMARK    4  A    between atoms: C_4  and  C_5
REMARK    5  A    between atoms: C_5  and  N_6
REMARK    6  A    between atoms: C_12  and  O_13
REMARK    7  A    between atoms: C_14  and  C_17
REMARK    8  A    between atoms: C_22  and  N_23
REMARK    9  A    between atoms: N_23  and  S_24
REMARK   10  A    between atoms: S_24  and  C_25
REMARK                            x       y       z     vdW  Elec       q    Type
REMARK                         _______ _______ _______ _____ _____    ______ ____
ROOT
ATOM      1  C   UNL     1       7.581  -2.180  24.269  0.00  0.00    +0.351 C 
ATOM      2  N   UNL     1       8.432  -2.458  23.189  0.00  0.00    -0.090 N 
ATOM      3  H   UNL     1       8.912  -3.361  23.250  0.00  0.00    +0.326 HD
ATOM      4  S   UNL     1       9.399  -1.320  22.479  0.00  0.00    +0.136 S 
ATOM      5  O   UNL     1      10.760  -1.785  22.644  0.00  0.00    -0.130 OA
ATOM      6  O   UNL     1       8.854  -1.026  21.174  0.00  0.00    -0.130 OA
ATOM      7  C   UNL     1       9.198   0.100  23.463  0.00  0.00    +0.181 A 
ATOM      8  C   UNL     1       9.861   1.277  23.090  0.00  0.00    +0.059 A 
ATOM      9  C   UNL     1       9.623   2.440  23.812  0.00  0.00    +0.050 A 
ATOM     10  C   UNL     1       8.801   2.408  24.934  0.00  0.00    +0.029 A 
ATOM     11  C   UNL     1       8.150   1.220  25.285  0.00  0.00    +0.059 A 
ATOM     12  C   UNL     1       8.308   0.053  24.527  0.00  0.00    +0.205 A 
ATOM     13  N   UNL     1       7.521  -1.046  24.883  0.00  0.00    -0.037 NA
ENDROOT
BRANCH   1  17
ATOM     14  N   UNL     1       5.174  -5.132  24.088  0.00  0.00    -0.244 N 
ATOM     15  C   UNL     1       5.782  -3.930  23.753  0.00  0.00    +0.285 A 
ATOM     16  O   UNL     1       5.549  -3.329  22.702  0.00  0.00    -0.265 OA
ATOM     17  C   UNL     1       6.778  -3.358  24.686  0.00  0.00    +0.176 A 
ATOM     18  C   UNL     1       6.930  -3.886  25.907  0.00  0.00    +0.162 A 
ATOM     19  C   UNL     1       6.186  -5.025  26.292  0.00  0.00    +0.106 A 
ATOM     20  C   UNL     1       6.077  -5.766  27.457  0.00  0.00    +0.033 A 
ATOM     21  C   UNL     1       5.142  -6.804  27.226  0.00  0.00    +0.022 A 
ATOM     22  C   UNL     1       4.692  -6.667  25.931  0.00  0.00    +0.111 A 
ATOM     23  N   UNL     1       5.350  -5.610  25.367  0.00  0.00    -0.253 N 
BRANCH  18  24
ATOM     24  O   UNL     1       7.771  -3.338  26.851  0.00  0.00    -0.504 OA
ATOM     25  H   UNL     1       8.354  -4.028  27.207  0.00  0.00    +0.292 HD
ENDBRANCH  18  24
BRANCH  14  26
ATOM     26  C   UNL     1       4.361  -5.785  23.062  0.00  0.00    +0.146 C 
BRANCH  26  27
ATOM     27  C   UNL     1       2.860  -5.461  23.173  0.00  0.00    +0.026 C 
BRANCH  27  29
ATOM     28  C   UNL     1       2.049  -7.809  23.703  0.00  0.00    +0.007 C 
ATOM     29  C   UNL     1       1.923  -6.612  22.763  0.00  0.00    -0.015 C 
ATOM     30  C   UNL     1       0.473  -6.123  22.736  0.00  0.00    +0.007 C 
ENDBRANCH  27  29
ENDBRANCH  26  27
ENDBRANCH  14  26
ENDBRANCH   1  17
BRANCH   9  31
ATOM     31  N   UNL     1      10.116   3.695  23.359  0.00  0.00    -0.221 N 
ATOM     32  H   UNL     1      11.125   3.823  23.460  0.00  0.00    +0.173 HD
BRANCH  31  33
ATOM     33  S   UNL     1       9.322   5.107  23.824  0.00  0.00    +0.040 S 
ATOM     34  O   UNL     1      10.114   6.187  23.274  0.00  0.00    -0.155 OA
ATOM     35  O   UNL     1       8.985   5.053  25.228  0.00  0.00    -0.155 OA
ATOM     36  C   UNL     1       7.835   4.989  22.855  0.00  0.00    +0.218 C 
ENDBRANCH  31  33
ENDBRANCH   9  31
TORSDOF 7
ENDMDL
MODEL 9
REMARK VINA RESULT:      -7.1      3.225      9.287
REMARK  Name = 
REMARK  10 active torsions:
REMARK  status: ('A' for Active; 'I' for Inactive)
REMARK    1  A    between atoms: C_1  and  C_2
REMARK    2  A    between atoms: C_2  and  C_3
REMARK    3  A    between atoms: C_2  and  C_4
REMARK    4  A    between atoms: C_4  and  C_5
REMARK    5  A    between atoms: C_5  and  N_6
REMARK    6  A    between atoms: C_12  and  O_13
REMARK    7  A    between atoms: C_14  and  C_17
REMARK    8  A    between atoms: C_22  and  N_23
REMARK    9  A    between atoms: N_23  and  S_24
REMARK   10  A    between atoms: S_24  and  C_25
REMARK                            x       y       z     vdW  Elec       q    Type
REMARK                         _______ _______ _______ _____ _____    ______ ____
ROOT
ATOM      1  C   UNL     1       7.260  -1.587  23.997  0.00  0.00    +0.351 C 
ATOM      2  N   UNL     1       8.643  -1.663  23.771  0.00  0.00    -0.090 N 
ATOM      3  H   UNL     1       9.140  -2.302  24.400  0.00  0.00    +0.326 HD
ATOM      4  S   UNL     1       9.576  -0.349  23.405  0.00  0.00    +0.136 S 
ATOM      5  O   UNL     1      10.557  -0.240  24.465  0.00  0.00    -0.130 OA
ATOM      6  O   UNL     1       9.970  -0.455  22.020  0.00  0.00    -0.130 OA
ATOM      7  C   UNL     1       8.495   1.007  23.541  0.00  0.00    +0.181 A 
ATOM      8  C   UNL     1       8.978   2.288  23.239  0.00  0.00    +0.059 A 
ATOM      9  C   UNL     1       8.093   3.359  23.245  0.00  0.00    +0.050 A 
ATOM     10  C   UNL     1       6.768   3.166  23.625  0.00  0.00    +0.029 A 
ATOM     11  C   UNL     1       6.310   1.878  23.920  0.00  0.00    +0.059 A 
ATOM     12  C   UNL     1       7.161   0.768  23.843  0.00  0.00    +0.205 A 
ATOM     13  N   UNL     1       6.582  -0.490  24.034  0.00  0.00    -0.037 NA
ENDROOT
BRANCH   1  17
ATOM     14  N   UNL     1       6.344  -4.842  25.759  0.00  0.00    -0.244 N 
ATOM     15  C   UNL     1       7.055  -3.693  25.442  0.00  0.00    +0.285 A 
ATOM     16  O   UNL     1       7.996  -3.276  26.121  0.00  0.00    -0.265 OA
ATOM     17  C   UNL     1       6.646  -2.915  24.251  0.00  0.00    +0.176 A 
ATOM     18  C   UNL     1       5.748  -3.424  23.397  0.00  0.00    +0.162 A 
ATOM     19  C   UNL     1       5.143  -4.675  23.656  0.00  0.00    +0.106 A 
ATOM     20  C   UNL     1       4.240  -5.477  22.977  0.00  0.00    +0.033 A 
ATOM     21  C   UNL     1       4.022  -6.640  23.755  0.00  0.00    +0.022 A 
ATOM     22  C   UNL     1       4.804  -6.530  24.883  0.00  0.00    +0.111 A 
ATOM     23  N   UNL     1       5.452  -5.327  24.829  0.00  0.00    -0.253 N 
BRANCH  18  24
ATOM     24  O   UNL     1       5.400  -2.790  22.225  0.00  0.00    -0.504 OA
ATOM     25  H   UNL     1       6.092  -2.934  21.559  0.00  0.00    +0.292 HD
ENDBRANCH  18  24
BRANCH  14  26
ATOM     26  C   UNL     1       6.622  -5.473  27.050  0.00  0.00    +0.146 C 
BRANCH  26  27
ATOM     27  C   UNL     1       5.825  -4.858  28.215  0.00  0.00    +0.026 C 
BRANCH  27  29
ATOM     28  C   UNL     1       3.301  -5.062  28.424  0.00  0.00    +0.007 C 
ATOM     29  C   UNL     1       4.459  -4.270  27.818  0.00  0.00    -0.015 C 
ATOM     30  C   UNL     1       4.371  -2.806  28.256  0.00  0.00    +0.007 C 
ENDBRANCH  27  29
ENDBRANCH  26  27
ENDBRANCH  14  26
ENDBRANCH   1  17
BRANCH   9  31
ATOM     31  N   UNL     1       8.489   4.636  22.761  0.00  0.00    -0.221 N 
ATOM     32  H   UNL     1       9.129   4.615  21.964  0.00  0.00    +0.173 HD
BRANCH  31  33
ATOM     33  S   UNL     1       8.996   5.810  23.858  0.00  0.00    +0.040 S 
ATOM     34  O   UNL     1      10.258   6.293  23.341  0.00  0.00    -0.155 OA
ATOM     35  O   UNL     1       8.868   5.321  25.211  0.00  0.00    -0.155 OA
ATOM     36  C   UNL     1       7.783   7.080  23.573  0.00  0.00    +0.218 C 
ENDBRANCH  31  33
ENDBRANCH   9  31
TORSDOF 7
ENDMDL
