MODEL 1
REMARK VINA RESULT:      -8.3      0.000      0.000
REMARK  Name = 
REMARK  2 active torsions:
REMARK  status: ('A' for Active; 'I' for Inactive)
REMARK    1  A    between atoms: C_10  and  C_12
REMARK    2  A    between atoms: C_15  and  C_18
REMARK                            x       y       z     vdW  Elec       q    Type
REMARK                         _______ _______ _______ _____ _____    ______ ____
ROOT
ATOM      1  N   UNL     1       7.928  -5.690  27.108  0.00  0.00    -0.246 N 
ATOM      2  H   UNL     1       7.442  -6.563  27.265  0.00  0.00    +0.288 HD
ATOM      3  H   UNL     1       8.721  -5.459  27.691  0.00  0.00    +0.288 HD
ATOM      4  C   UNL     1       7.512  -4.763  26.200  0.00  0.00    +0.318 C 
ATOM      5  C   UNL     1       6.354  -5.036  25.318  0.00  0.00    +0.124 A 
ATOM      6  C   UNL     1       6.212  -4.198  24.209  0.00  0.00    +0.084 A 
ATOM      7  C   UNL     1       5.131  -4.410  23.347  0.00  0.00    +0.145 A 
ATOM      8  C   UNL     1       4.174  -5.386  23.608  0.00  0.00    +0.043 A 
ATOM      9  C   UNL     1       4.319  -6.205  24.728  0.00  0.00    +0.042 A 
ATOM     10  F   UNL     1       4.978  -3.615  22.276  0.00  0.00    -0.204 F 
ATOM     11  N   UNL     1       7.181  -3.214  23.939  0.00  0.00    -0.297 N 
ATOM     12  H   UNL     1       6.852  -2.543  23.249  0.00  0.00    +0.150 HD
ATOM     13  C   UNL     1       7.741  -2.646  25.167  0.00  0.00    +0.220 C 
ATOM     14  C   UNL     1       6.741  -1.688  25.850  0.00  0.00    +0.097 C 
ATOM     15  C   UNL     1       6.450  -0.462  24.992  0.00  0.00    +0.114 C 
ATOM     16  N   UNL     1       7.679   0.238  24.614  0.00  0.00    -0.297 N 
ATOM     17  C   UNL     1       7.710   1.629  24.765  0.00  0.00    +0.248 C 
ATOM     18  O   UNL     1       6.791   2.254  25.300  0.00  0.00    -0.270 OA
ATOM     19  C   UNL     1       8.716  -0.604  24.009  0.00  0.00    +0.114 C 
ATOM     20  C   UNL     1       9.008  -1.856  24.817  0.00  0.00    +0.097 C 
ATOM     21  C   UNL     1       5.416  -6.035  25.572  0.00  0.00    +0.140 A 
ATOM     22  F   UNL     1       5.531  -6.840  26.639  0.00  0.00    -0.205 F 
ATOM     23  N   UNL     1       8.172  -3.652  26.149  0.00  0.00    -0.056 NA
ENDROOT
BRANCH  17  24
ATOM     24  C   UNL     1       8.878   2.431  24.342  0.00  0.00    +0.055 A 
ATOM     25  C   UNL     1      10.121   1.886  24.058  0.00  0.00    +0.125 A 
ATOM     26  N   UNL     1      11.215   2.613  23.719  0.00  0.00    -0.244 NA
ATOM     27  C   UNL     1      11.041   3.951  23.585  0.00  0.00    +0.140 A 
ATOM     28  C   UNL     1       9.816   4.582  23.756  0.00  0.00    +0.040 A 
ATOM     29  C   UNL     1       8.721   3.807  24.141  0.00  0.00    +0.017 A 
BRANCH  27  30
ATOM     30  C   UNL     1      12.216   4.705  23.241  0.00  0.00    +0.119 C 
ATOM     31  N   UNL     1      13.178   5.281  22.942  0.00  0.00    -0.189 NA
ENDBRANCH  27  30
ENDBRANCH  17  24
TORSDOF 2
ENDMDL
MODEL 2
REMARK VINA RESULT:      -8.1      3.268      8.970
REMARK  Name = 
REMARK  2 active torsions:
REMARK  status: ('A' for Active; 'I' for Inactive)
REMARK    1  A    between atoms: C_10  and  C_12
REMARK    2  A    between atoms: C_15  and  C_18
REMARK                            x       y       z     vdW  Elec       q    Type
REMARK                         _______ _______ _______ _____ _____    ______ ____
ROOT
ATOM      1  N   UNL     1       7.507   2.777  26.164  0.00  0.00    -0.246 N 
ATOM      2  H   UNL     1       7.999   3.652  26.036  0.00  0.00    +0.288 HD
ATOM      3  H   UNL     1       6.901   2.669  26.967  0.00  0.00    +0.288 HD
ATOM      4  C   UNL     1       7.686   1.699  25.351  0.00  0.00    +0.318 C 
ATOM      5  C   UNL     1       8.562   1.788  24.161  0.00  0.00    +0.124 A 
ATOM      6  C   UNL     1       8.423   0.770  23.214  0.00  0.00    +0.084 A 
ATOM      7  C   UNL     1       9.232   0.803  22.074  0.00  0.00    +0.145 A 
ATOM      8  C   UNL     1      10.204   1.784  21.901  0.00  0.00    +0.043 A 
ATOM      9  C   UNL     1      10.345   2.785  22.862  0.00  0.00    +0.042 A 
ATOM     10  F   UNL     1       9.112  -0.166  21.152  0.00  0.00    -0.204 F 
ATOM     11  N   UNL     1       7.437  -0.221  23.382  0.00  0.00    -0.297 N 
ATOM     12  H   UNL     1       7.585  -1.008  22.755  0.00  0.00    +0.150 HD
ATOM     13  C   UNL     1       7.234  -0.557  24.794  0.00  0.00    +0.220 C 
ATOM     14  C   UNL     1       8.399  -1.410  25.341  0.00  0.00    +0.097 C 
ATOM     15  C   UNL     1       8.477  -2.771  24.660  0.00  0.00    +0.114 C 
ATOM     16  N   UNL     1       7.206  -3.493  24.745  0.00  0.00    -0.297 N 
ATOM     17  C   UNL     1       7.245  -4.837  25.135  0.00  0.00    +0.248 C 
ATOM     18  O   UNL     1       8.285  -5.385  25.506  0.00  0.00    -0.270 OA
ATOM     19  C   UNL     1       6.029  -2.740  24.301  0.00  0.00    +0.114 C 
ATOM     20  C   UNL     1       5.937  -1.361  24.931  0.00  0.00    +0.097 C 
ATOM     21  C   UNL     1       9.514   2.790  23.983  0.00  0.00    +0.140 A 
ATOM     22  F   UNL     1       9.670   3.768  24.888  0.00  0.00    -0.205 F 
ATOM     23  N   UNL     1       7.059   0.613  25.667  0.00  0.00    -0.056 NA
ENDROOT
BRANCH  17  24
ATOM     24  C   UNL     1       6.023  -5.669  25.180  0.00  0.00    +0.055 A 
ATOM     25  C   UNL     1       5.399  -6.177  24.051  0.00  0.00    +0.125 A 
ATOM     26  N   UNL     1       4.250  -6.897  24.072  0.00  0.00    -0.244 NA
ATOM     27  C   UNL     1       3.734  -7.190  25.292  0.00  0.00    +0.140 A 
ATOM     28  C   UNL     1       4.335  -6.807  26.485  0.00  0.00    +0.040 A 
ATOM     29  C   UNL     1       5.496  -6.035  26.423  0.00  0.00    +0.017 A 
BRANCH  27  30
ATOM     30  C   UNL     1       2.508  -7.940  25.292  0.00  0.00    +0.119 C 
ATOM     31  N   UNL     1       1.540  -8.579  25.280  0.00  0.00    -0.189 NA
ENDBRANCH  27  30
ENDBRANCH  17  24
TORSDOF 2
ENDMDL
MODEL 3
REMARK VINA RESULT:      -8.0      2.342      3.507
REMARK  Name = 
REMARK  2 active torsions:
REMARK  status: ('A' for Active; 'I' for Inactive)
REMARK    1  A    between atoms: C_10  and  C_12
REMARK    2  A    between atoms: C_15  and  C_18
REMARK                            x       y       z     vdW  Elec       q    Type
REMARK                         _______ _______ _______ _____ _____    ______ ____
ROOT
ATOM      1  N   UNL     1       2.639  -4.668  23.372  0.00  0.00    -0.246 N 
ATOM      2  H   UNL     1       2.011  -5.435  23.577  0.00  0.00    +0.288 HD
ATOM      3  H   UNL     1       2.432  -4.063  22.588  0.00  0.00    +0.288 HD
ATOM      4  C   UNL     1       3.802  -4.460  24.050  0.00  0.00    +0.318 C 
ATOM      5  C   UNL     1       4.166  -5.312  25.205  0.00  0.00    +0.124 A 
ATOM      6  C   UNL     1       5.179  -4.825  26.036  0.00  0.00    +0.084 A 
ATOM      7  C   UNL     1       5.566  -5.595  27.137  0.00  0.00    +0.145 A 
ATOM      8  C   UNL     1       5.012  -6.849  27.378  0.00  0.00    +0.043 A 
ATOM      9  C   UNL     1       4.013  -7.330  26.531  0.00  0.00    +0.042 A 
ATOM     10  F   UNL     1       6.537  -5.144  27.948  0.00  0.00    -0.204 F 
ATOM     11  N   UNL     1       5.738  -3.555  25.798  0.00  0.00    -0.297 N 
ATOM     12  H   UNL     1       6.597  -3.419  26.326  0.00  0.00    +0.150 HD
ATOM     13  C   UNL     1       5.810  -3.247  24.368  0.00  0.00    +0.220 C 
ATOM     14  C   UNL     1       6.942  -4.040  23.679  0.00  0.00    +0.097 C 
ATOM     15  C   UNL     1       8.317  -3.638  24.199  0.00  0.00    +0.114 C 
ATOM     16  N   UNL     1       8.537  -2.195  24.086  0.00  0.00    -0.297 N 
ATOM     17  C   UNL     1       9.754  -1.762  23.546  0.00  0.00    +0.248 C 
ATOM     18  O   UNL     1      10.580  -2.545  23.072  0.00  0.00    -0.270 OA
ATOM     19  C   UNL     1       7.482  -1.355  24.662  0.00  0.00    +0.114 C 
ATOM     20  C   UNL     1       6.092  -1.751  24.195  0.00  0.00    +0.097 C 
ATOM     21  C   UNL     1       3.586  -6.554  25.454  0.00  0.00    +0.140 A 
ATOM     22  F   UNL     1       2.621  -7.041  24.659  0.00  0.00    -0.205 F 
ATOM     23  N   UNL     1       4.556  -3.492  23.640  0.00  0.00    -0.056 NA
ENDROOT
BRANCH  17  24
ATOM     24  C   UNL     1      10.098  -0.326  23.459  0.00  0.00    +0.055 A 
ATOM     25  C   UNL     1      10.764   0.365  24.460  0.00  0.00    +0.125 A 
ATOM     26  N   UNL     1      11.040   1.692  24.418  0.00  0.00    -0.244 NA
ATOM     27  C   UNL     1      10.701   2.351  23.282  0.00  0.00    +0.140 A 
ATOM     28  C   UNL     1      10.116   1.730  22.186  0.00  0.00    +0.040 A 
ATOM     29  C   UNL     1       9.812   0.371  22.281  0.00  0.00    +0.017 A 
BRANCH  27  30
ATOM     30  C   UNL     1      10.988   3.759  23.264  0.00  0.00    +0.119 C 
ATOM     31  N   UNL     1      11.226   4.895  23.290  0.00  0.00    -0.189 NA
ENDBRANCH  27  30
ENDBRANCH  17  24
TORSDOF 2
ENDMDL
MODEL 4
REMARK VINA RESULT:      -7.9      3.338      8.929
REMARK  Name = 
REMARK  2 active torsions:
REMARK  status: ('A' for Active; 'I' for Inactive)
REMARK    1  A    between atoms: C_10  and  C_12
REMARK    2  A    between atoms: C_15  and  C_18
REMARK                            x       y       z     vdW  Elec       q    Type
REMARK                         _______ _______ _______ _____ _____    ______ ____
ROOT
ATOM      1  N   UNL     1       8.028   2.975  25.862  0.00  0.00    -0.246 N 
ATOM      2  H   UNL     1       8.515   3.736  25.407  0.00  0.00    +0.288 HD
ATOM      3  H   UNL     1       7.603   3.137  26.766  0.00  0.00    +0.288 HD
ATOM      4  C   UNL     1       7.987   1.712  25.355  0.00  0.00    +0.318 C 
ATOM      5  C   UNL     1       8.593   1.407  24.038  0.00  0.00    +0.124 A 
ATOM      6  C   UNL     1       8.215   0.197  23.450  0.00  0.00    +0.084 A 
ATOM      7  C   UNL     1       8.763  -0.143  22.209  0.00  0.00    +0.145 A 
ATOM      8  C   UNL     1       9.715   0.664  21.591  0.00  0.00    +0.043 A 
ATOM      9  C   UNL     1      10.096   1.861  22.197  0.00  0.00    +0.042 A 
ATOM     10  F   UNL     1       8.412  -1.301  21.628  0.00  0.00    -0.204 F 
ATOM     11  N   UNL     1       7.250  -0.619  24.070  0.00  0.00    -0.297 N 
ATOM     12  H   UNL     1       7.229  -1.551  23.665  0.00  0.00    +0.150 HD
ATOM     13  C   UNL     1       7.338  -0.558  25.531  0.00  0.00    +0.220 C 
ATOM     14  C   UNL     1       8.558  -1.348  26.053  0.00  0.00    +0.097 C 
ATOM     15  C   UNL     1       8.436  -2.840  25.766  0.00  0.00    +0.114 C 
ATOM     16  N   UNL     1       7.185  -3.390  26.291  0.00  0.00    -0.297 N 
ATOM     17  C   UNL     1       7.254  -4.586  27.016  0.00  0.00    +0.248 C 
ATOM     18  O   UNL     1       8.326  -5.116  27.313  0.00  0.00    -0.270 OA
ATOM     19  C   UNL     1       5.971  -2.670  25.896  0.00  0.00    +0.114 C 
ATOM     20  C   UNL     1       6.070  -1.172  26.133  0.00  0.00    +0.097 C 
ATOM     21  C   UNL     1       9.524   2.234  23.413  0.00  0.00    +0.140 A 
ATOM     22  F   UNL     1       9.907   3.393  23.969  0.00  0.00    -0.205 F 
ATOM     23  N   UNL     1       7.400   0.809  26.070  0.00  0.00    -0.056 NA
ENDROOT
BRANCH  17  24
ATOM     24  C   UNL     1       6.037  -5.258  27.523  0.00  0.00    +0.055 A 
ATOM     25  C   UNL     1       5.476  -4.996  28.764  0.00  0.00    +0.125 A 
ATOM     26  N   UNL     1       4.392  -5.641  29.263  0.00  0.00    -0.244 NA
ATOM     27  C   UNL     1       3.790  -6.544  28.450  0.00  0.00    +0.140 A 
ATOM     28  C   UNL     1       4.218  -6.809  27.155  0.00  0.00    +0.040 A 
ATOM     29  C   UNL     1       5.359  -6.154  26.690  0.00  0.00    +0.017 A 
BRANCH  27  30
ATOM     30  C   UNL     1       2.653  -7.227  29.003  0.00  0.00    +0.119 C 
ATOM     31  N   UNL     1       1.759  -7.794  29.480  0.00  0.00    -0.189 NA
ENDBRANCH  27  30
ENDBRANCH  17  24
TORSDOF 2
ENDMDL
MODEL 5
REMARK VINA RESULT:      -7.8      3.200      5.170
REMARK  Name = 
REMARK  2 active torsions:
REMARK  status: ('A' for Active; 'I' for Inactive)
REMARK    1  A    between atoms: C_10  and  C_12
REMARK    2  A    between atoms: C_15  and  C_18
REMARK                            x       y       z     vdW  Elec       q    Type
REMARK                         _______ _______ _______ _____ _____    ______ ____
ROOT
ATOM      1  N   UNL     1       1.264  -6.663  22.486  0.00  0.00    -0.246 N 
ATOM      2  H   UNL     1       0.512  -7.303  22.711  0.00  0.00    +0.288 HD
ATOM      3  H   UNL     1       1.399  -6.385  21.523  0.00  0.00    +0.288 HD
ATOM      4  C   UNL     1       2.161  -6.221  23.410  0.00  0.00    +0.318 C 
ATOM      5  C   UNL     1       2.023  -6.593  24.837  0.00  0.00    +0.124 A 
ATOM      6  C   UNL     1       2.765  -5.835  25.747  0.00  0.00    +0.084 A 
ATOM      7  C   UNL     1       2.676  -6.150  27.107  0.00  0.00    +0.145 A 
ATOM      8  C   UNL     1       1.921  -7.230  27.554  0.00  0.00    +0.043 A 
ATOM      9  C   UNL     1       1.198  -7.989  26.633  0.00  0.00    +0.042 A 
ATOM     10  F   UNL     1       3.381  -5.434  27.996  0.00  0.00    -0.204 F 
ATOM     11  N   UNL     1       3.526  -4.739  25.299  0.00  0.00    -0.297 N 
ATOM     12  H   UNL     1       4.178  -4.419  26.010  0.00  0.00    +0.150 HD
ATOM     13  C   UNL     1       4.095  -4.974  23.969  0.00  0.00    +0.220 C 
ATOM     14  C   UNL     1       5.279  -5.962  24.032  0.00  0.00    +0.097 C 
ATOM     15  C   UNL     1       6.452  -5.397  24.824  0.00  0.00    +0.114 C 
ATOM     16  N   UNL     1       6.876  -4.094  24.308  0.00  0.00    -0.297 N 
ATOM     17  C   UNL     1       8.246  -3.887  24.110  0.00  0.00    +0.248 C 
ATOM     18  O   UNL     1       9.076  -4.788  24.251  0.00  0.00    -0.270 OA
ATOM     19  C   UNL     1       5.806  -3.104  24.158  0.00  0.00    +0.114 C 
ATOM     20  C   UNL     1       4.603  -3.643  23.404  0.00  0.00    +0.097 C 
ATOM     21  C   UNL     1       1.242  -7.659  25.278  0.00  0.00    +0.140 A 
ATOM     22  F   UNL     1       0.533  -8.404  24.417  0.00  0.00    -0.205 F 
ATOM     23  N   UNL     1       3.123  -5.469  22.982  0.00  0.00    -0.056 NA
ENDROOT
BRANCH  17  24
ATOM     24  C   UNL     1       8.777  -2.581  23.662  0.00  0.00    +0.055 A 
ATOM     25  C   UNL     1       9.379  -1.665  24.512  0.00  0.00    +0.125 A 
ATOM     26  N   UNL     1       9.824  -0.444  24.126  0.00  0.00    -0.244 NA
ATOM     27  C   UNL     1       9.731  -0.148  22.806  0.00  0.00    +0.140 A 
ATOM     28  C   UNL     1       9.230  -1.033  21.860  0.00  0.00    +0.040 A 
ATOM     29  C   UNL     1       8.747  -2.267  22.300  0.00  0.00    +0.017 A 
BRANCH  27  30
ATOM     30  C   UNL     1      10.193   1.157  22.420  0.00  0.00    +0.119 C 
ATOM     31  N   UNL     1      10.542   2.228  22.139  0.00  0.00    -0.189 NA
ENDBRANCH  27  30
ENDBRANCH  17  24
TORSDOF 2
ENDMDL
MODEL 6
REMARK VINA RESULT:      -7.6      2.092      2.672
REMARK  Name = 
REMARK  2 active torsions:
REMARK  status: ('A' for Active; 'I' for Inactive)
REMARK    1  A    between atoms: C_10  and  C_12
REMARK    2  A    between atoms: C_15  and  C_18
REMARK                            x       y       z     vdW  Elec       q    Type
REMARK                         _______ _______ _______ _____ _____    ______ ____
ROOT
ATOM      1  N   UNL     1       5.696  -6.767  22.513  0.00  0.00    -0.246 N 
ATOM      2  H   UNL     1       5.056  -7.550  22.546  0.00  0.00    +0.288 HD
ATOM      3  H   UNL     1       6.549  -6.854  21.976  0.00  0.00    +0.288 HD
ATOM      4  C   UNL     1       5.508  -5.625  23.231  0.00  0.00    +0.318 C 
ATOM      5  C   UNL     1       4.283  -5.435  24.041  0.00  0.00    +0.124 A 
ATOM      6  C   UNL     1       4.015  -4.129  24.459  0.00  0.00    +0.084 A 
ATOM      7  C   UNL     1       2.874  -3.896  25.233  0.00  0.00    +0.145 A 
ATOM      8  C   UNL     1       2.049  -4.940  25.642  0.00  0.00    +0.043 A 
ATOM      9  C   UNL     1       2.337  -6.242  25.232  0.00  0.00    +0.042 A 
ATOM     10  F   UNL     1       2.599  -2.648  25.643  0.00  0.00    -0.204 F 
ATOM     11  N   UNL     1       4.845  -3.070  24.043  0.00  0.00    -0.297 N 
ATOM     12  H   UNL     1       4.675  -2.226  24.584  0.00  0.00    +0.150 HD
ATOM     13  C   UNL     1       6.245  -3.485  23.926  0.00  0.00    +0.220 C 
ATOM     14  C   UNL     1       6.899  -3.651  25.315  0.00  0.00    +0.097 C 
ATOM     15  C   UNL     1       6.982  -2.328  26.067  0.00  0.00    +0.114 C 
ATOM     16  N   UNL     1       7.665  -1.300  25.279  0.00  0.00    -0.297 N 
ATOM     17  C   UNL     1       8.653  -0.540  25.917  0.00  0.00    +0.248 C 
ATOM     18  O   UNL     1       9.031  -0.782  27.065  0.00  0.00    -0.270 OA
ATOM     19  C   UNL     1       7.150  -1.110  23.920  0.00  0.00    +0.114 C 
ATOM     20  C   UNL     1       7.018  -2.413  23.150  0.00  0.00    +0.097 C 
ATOM     21  C   UNL     1       3.447  -6.483  24.423  0.00  0.00    +0.140 A 
ATOM     22  F   UNL     1       3.696  -7.744  24.041  0.00  0.00    -0.205 F 
ATOM     23  N   UNL     1       6.438  -4.729  23.165  0.00  0.00    -0.056 NA
ENDROOT
BRANCH  17  24
ATOM     24  C   UNL     1       9.346   0.569  25.227  0.00  0.00    +0.055 A 
ATOM     25  C   UNL     1      10.624   0.465  24.699  0.00  0.00    +0.125 A 
ATOM     26  N   UNL     1      11.293   1.488  24.110  0.00  0.00    -0.244 NA
ATOM     27  C   UNL     1      10.621   2.658  23.972  0.00  0.00    +0.140 A 
ATOM     28  C   UNL     1       9.306   2.835  24.383  0.00  0.00    +0.040 A 
ATOM     29  C   UNL     1       8.664   1.772  25.019  0.00  0.00    +0.017 A 
BRANCH  27  30
ATOM     30  C   UNL     1      11.353   3.733  23.360  0.00  0.00    +0.119 C 
ATOM     31  N   UNL     1      11.962   4.574  22.841  0.00  0.00    -0.189 NA
ENDBRANCH  27  30
ENDBRANCH  17  24
TORSDOF 2
ENDMDL
MODEL 7
REMARK VINA RESULT:      -7.6      3.541      8.878
REMARK  Name = 
REMARK  2 active torsions:
REMARK  status: ('A' for Active; 'I' for Inactive)
REMARK    1  A    between atoms: C_10  and  C_12
REMARK    2  A    between atoms: C_15  and  C_18
REMARK                            x       y       z     vdW  Elec       q    Type
REMARK                         _______ _______ _______ _____ _____    ______ ____
ROOT
ATOM      1  N   UNL     1       7.193   3.012  27.469  0.00  0.00    -0.246 N 
ATOM      2  H   UNL     1       7.518   3.971  27.476  0.00  0.00    +0.288 HD
ATOM      3  H   UNL     1       6.924   2.581  28.344  0.00  0.00    +0.288 HD
ATOM      4  C   UNL     1       7.179   2.242  26.346  0.00  0.00    +0.318 C 
ATOM      5  C   UNL     1       7.564   2.811  25.034  0.00  0.00    +0.124 A 
ATOM      6  C   UNL     1       7.200   2.068  23.908  0.00  0.00    +0.084 A 
ATOM      7  C   UNL     1       7.546   2.559  22.645  0.00  0.00    +0.145 A 
ATOM      8  C   UNL     1       8.291   3.725  22.497  0.00  0.00    +0.043 A 
ATOM      9  C   UNL     1       8.663   4.448  23.631  0.00  0.00    +0.042 A 
ATOM     10  F   UNL     1       7.205   1.859  21.551  0.00  0.00    -0.204 F 
ATOM     11  N   UNL     1       6.442   0.891  24.053  0.00  0.00    -0.297 N 
ATOM     12  H   UNL     1       6.436   0.341  23.198  0.00  0.00    +0.150 HD
ATOM     13  C   UNL     1       6.786   0.166  25.278  0.00  0.00    +0.220 C 
ATOM     14  C   UNL     1       8.147  -0.549  25.144  0.00  0.00    +0.097 C 
ATOM     15  C   UNL     1       8.115  -1.642  24.082  0.00  0.00    +0.114 C 
ATOM     16  N   UNL     1       7.035  -2.600  24.324  0.00  0.00    -0.297 N 
ATOM     17  C   UNL     1       7.343  -3.963  24.242  0.00  0.00    +0.248 C 
ATOM     18  O   UNL     1       8.496  -4.369  24.083  0.00  0.00    -0.270 OA
ATOM     19  C   UNL     1       5.708  -2.009  24.524  0.00  0.00    +0.114 C 
ATOM     20  C   UNL     1       5.708  -0.889  25.550  0.00  0.00    +0.097 C 
ATOM     21  C   UNL     1       8.286   3.995  24.895  0.00  0.00    +0.140 A 
ATOM     22  F   UNL     1       8.654   4.714  25.967  0.00  0.00    -0.205 F 
ATOM     23  N   UNL     1       6.816   1.008  26.484  0.00  0.00    -0.056 NA
ENDROOT
BRANCH  17  24
ATOM     24  C   UNL     1       6.305  -5.005  24.399  0.00  0.00    +0.055 A 
ATOM     25  C   UNL     1       5.620  -5.572  23.335  0.00  0.00    +0.125 A 
ATOM     26  N   UNL     1       4.630  -6.490  23.465  0.00  0.00    -0.244 NA
ATOM     27  C   UNL     1       4.359  -6.921  24.722  0.00  0.00    +0.140 A 
ATOM     28  C   UNL     1       5.052  -6.485  25.844  0.00  0.00    +0.040 A 
ATOM     29  C   UNL     1       6.038  -5.512  25.675  0.00  0.00    +0.017 A 
BRANCH  27  30
ATOM     30  C   UNL     1       3.297  -7.882  24.841  0.00  0.00    +0.119 C 
ATOM     31  N   UNL     1       2.467  -8.687  24.944  0.00  0.00    -0.189 NA
ENDBRANCH  27  30
ENDBRANCH  17  24
TORSDOF 2
ENDMDL
MODEL 8
REMARK VINA RESULT:      -7.4      2.543      3.530
REMARK  Name = 
REMARK  2 active torsions:
REMARK  status: ('A' for Active; 'I' for Inactive)
REMARK    1  A    between atoms: C_10  and  C_12
REMARK    2  A    between atoms: C_15  and  C_18
REMARK                            x       y       z     vdW  Elec       q    Type
REMARK                         _______ _______ _______ _____ _____    ______ ____
ROOT
ATOM      1  N   UNL     1       1.711  -2.967  26.112  0.00  0.00    -0.246 N 
ATOM      2  H   UNL     1       1.052  -3.671  26.419  0.00  0.00    +0.288 HD
ATOM      3  H   UNL     1       1.359  -2.073  25.794  0.00  0.00    +0.288 HD
ATOM      4  C   UNL     1       3.051  -3.193  26.025  0.00  0.00    +0.318 C 
ATOM      5  C   UNL     1       3.631  -4.480  26.471  0.00  0.00    +0.124 A 
ATOM      6  C   UNL     1       5.015  -4.500  26.665  0.00  0.00    +0.084 A 
ATOM      7  C   UNL     1       5.613  -5.694  27.080  0.00  0.00    +0.145 A 
ATOM      8  C   UNL     1       4.873  -6.862  27.238  0.00  0.00    +0.043 A 
ATOM      9  C   UNL     1       3.494  -6.832  27.025  0.00  0.00    +0.042 A 
ATOM     10  F   UNL     1       6.942  -5.733  27.272  0.00  0.00    -0.204 F 
ATOM     11  N   UNL     1       5.767  -3.320  26.512  0.00  0.00    -0.297 N 
ATOM     12  H   UNL     1       6.763  -3.514  26.463  0.00  0.00    +0.150 HD
ATOM     13  C   UNL     1       5.229  -2.463  25.452  0.00  0.00    +0.220 C 
ATOM     14  C   UNL     1       5.553  -3.029  24.053  0.00  0.00    +0.097 C 
ATOM     15  C   UNL     1       7.052  -3.040  23.775  0.00  0.00    +0.114 C 
ATOM     16  N   UNL     1       7.645  -1.715  23.961  0.00  0.00    -0.297 N 
ATOM     17  C   UNL     1       8.510  -1.244  22.965  0.00  0.00    +0.248 C 
ATOM     18  O   UNL     1       8.694  -1.854  21.910  0.00  0.00    -0.270 OA
ATOM     19  C   UNL     1       7.344  -1.068  25.241  0.00  0.00    +0.114 C 
ATOM     20  C   UNL     1       5.861  -1.071  25.571  0.00  0.00    +0.097 C 
ATOM     21  C   UNL     1       2.877  -5.638  26.654  0.00  0.00    +0.140 A 
ATOM     22  F   UNL     1       1.549  -5.639  26.460  0.00  0.00    -0.205 F 
ATOM     23  N   UNL     1       3.779  -2.238  25.543  0.00  0.00    -0.056 NA
ENDROOT
BRANCH  17  24
ATOM     24  C   UNL     1       9.215   0.050  23.097  0.00  0.00    +0.055 A 
ATOM     25  C   UNL     1       8.779   1.226  22.505  0.00  0.00    +0.125 A 
ATOM     26  N   UNL     1       9.441   2.407  22.574  0.00  0.00    -0.244 NA
ATOM     27  C   UNL     1      10.562   2.435  23.336  0.00  0.00    +0.140 A 
ATOM     28  C   UNL     1      11.030   1.336  24.045  0.00  0.00    +0.040 A 
ATOM     29  C   UNL     1      10.343   0.128  23.920  0.00  0.00    +0.017 A 
BRANCH  27  30
ATOM     30  C   UNL     1      11.258   3.692  23.383  0.00  0.00    +0.119 C 
ATOM     31  N   UNL     1      11.847   4.692  23.394  0.00  0.00    -0.189 NA
ENDBRANCH  27  30
ENDBRANCH  17  24
TORSDOF 2
ENDMDL
MODEL 9
REMARK VINA RESULT:      -7.3      2.204      3.024
REMARK  Name = 
REMARK  2 active torsions:
REMARK  status: ('A' for Active; 'I' for Inactive)
REMARK    1  A    between atoms: C_10  and  C_12
REMARK    2  A    between atoms: C_15  and  C_18
REMARK                            x       y       z     vdW  Elec       q    Type
REMARK                         _______ _______ _______ _____ _____    ______ ____
ROOT
ATOM      1  N   UNL     1       5.027  -5.440  22.263  0.00  0.00    -0.246 N 
ATOM      2  H   UNL     1       4.652  -6.375  22.366  0.00  0.00    +0.288 HD
ATOM      3  H   UNL     1       5.184  -5.076  21.333  0.00  0.00    +0.288 HD
ATOM      4  C   UNL     1       5.411  -4.675  23.322  0.00  0.00    +0.318 C 
ATOM      5  C   UNL     1       5.211  -5.150  24.710  0.00  0.00    +0.124 A 
ATOM      6  C   UNL     1       5.313  -4.184  25.714  0.00  0.00    +0.084 A 
ATOM      7  C   UNL     1       5.139  -4.582  27.044  0.00  0.00    +0.145 A 
ATOM      8  C   UNL     1       4.934  -5.917  27.382  0.00  0.00    +0.043 A 
ATOM      9  C   UNL     1       4.852  -6.874  26.370  0.00  0.00    +0.042 A 
ATOM     10  F   UNL     1       5.233  -3.668  28.023  0.00  0.00    -0.204 F 
ATOM     11  N   UNL     1       5.515  -2.833  25.376  0.00  0.00    -0.297 N 
ATOM     12  H   UNL     1       5.788  -2.280  26.185  0.00  0.00    +0.150 HD
ATOM     13  C   UNL     1       6.359  -2.686  24.188  0.00  0.00    +0.220 C 
ATOM     14  C   UNL     1       7.840  -2.982  24.511  0.00  0.00    +0.097 C 
ATOM     15  C   UNL     1       8.424  -1.969  25.488  0.00  0.00    +0.114 C 
ATOM     16  N   UNL     1       8.250  -0.596  25.012  0.00  0.00    -0.297 N 
ATOM     17  C   UNL     1       9.359   0.258  25.068  0.00  0.00    +0.248 C 
ATOM     18  O   UNL     1      10.479  -0.138  25.397  0.00  0.00    -0.270 OA
ATOM     19  C   UNL     1       6.883  -0.237  24.624  0.00  0.00    +0.114 C 
ATOM     20  C   UNL     1       6.253  -1.244  23.678  0.00  0.00    +0.097 C 
ATOM     21  C   UNL     1       4.978  -6.485  25.037  0.00  0.00    +0.140 A 
ATOM     22  F   UNL     1       4.890  -7.427  24.086  0.00  0.00    -0.205 F 
ATOM     23  N   UNL     1       5.948  -3.529  23.055  0.00  0.00    -0.056 NA
ENDROOT
BRANCH  17  24
ATOM     24  C   UNL     1       9.263   1.681  24.678  0.00  0.00    +0.055 A 
ATOM     25  C   UNL     1       8.256   2.530  25.113  0.00  0.00    +0.125 A 
ATOM     26  N   UNL     1       8.126   3.823  24.725  0.00  0.00    -0.244 NA
ATOM     27  C   UNL     1       9.095   4.318  23.915  0.00  0.00    +0.140 A 
ATOM     28  C   UNL     1      10.194   3.577  23.500  0.00  0.00    +0.040 A 
ATOM     29  C   UNL     1      10.274   2.239  23.889  0.00  0.00    +0.017 A 
BRANCH  27  30
ATOM     30  C   UNL     1       8.930   5.685  23.502  0.00  0.00    +0.119 C 
ATOM     31  N   UNL     1       8.769   6.776  23.140  0.00  0.00    -0.189 NA
ENDBRANCH  27  30
ENDBRANCH  17  24
TORSDOF 2
ENDMDL
