MODEL 1
REMARK VINA RESULT:      -3.9      0.000      0.000
REMARK  Name = 
REMARK  5 active torsions:
REMARK  status: ('A' for Active; 'I' for Inactive)
REMARK    1  A    between atoms: N_1  and  CA_2
REMARK    2  A    between atoms: CA_2  and  C_4
REMARK    3  A    between atoms: CA_2  and  C_8
REMARK    4  A    between atoms: C_4  and  SE_5
REMARK    5  A    between atoms: C_8  and  O_9
REMARK                            x       y       z     vdW  Elec       q    Type
REMARK                         _______ _______ _______ _____ _____    ______ ____
ROOT
ATOM      1  CA  UNL     1       8.743  -4.821  25.373  0.00  0.00    +0.000 C 
ENDROOT
BRANCH   1   2
ATOM      2  N   UNL     1       9.913  -5.700  25.260  0.00  0.00    +0.000 NA
ATOM      3  H1  UNL     1      10.765  -5.159  24.989  0.00  0.00    +0.000 HD
ATOM      4  H2  UNL     1      10.087  -6.173  26.175  0.00  0.00    +0.000 HD
ENDBRANCH   1   2
BRANCH   1   5
ATOM      5  C   UNL     1       7.678  -5.445  26.254  0.00  0.00    +0.000 C 
ATOM      6  OXT UNL     1       6.544  -5.614  25.832  0.00  0.00    +0.000 OA
BRANCH   5   7
ATOM      7  O   UNL     1       7.971  -5.843  27.510  0.00  0.00    +0.000 OA
ATOM      8  H   UNL     1       7.467  -6.533  27.962  0.00  0.00    +0.000 HD
ENDBRANCH   5   7
ENDBRANCH   1   5
BRANCH   1   9
ATOM      9  C   UNL     1       8.187  -4.449  23.983  0.00  0.00    +0.000 C 
BRANCH   9  10
ATOM     10 SE   UNL     1       8.708  -2.646  23.403  0.00  0.00    +0.000 Se
ATOM     11  O   UNL     1      10.286  -2.925  23.777  0.00  0.00    +0.000 OA
ATOM     12  O   UNL     1       8.440  -2.049  24.914  0.00  0.00    +0.000 OA
ENDBRANCH   9  10
ENDBRANCH   1   9
TORSDOF 5
ENDMDL
MODEL 2
REMARK VINA RESULT:      -3.9      4.527      6.197
REMARK  Name = 
REMARK  5 active torsions:
REMARK  status: ('A' for Active; 'I' for Inactive)
REMARK    1  A    between atoms: N_1  and  CA_2
REMARK    2  A    between atoms: CA_2  and  C_4
REMARK    3  A    between atoms: CA_2  and  C_8
REMARK    4  A    between atoms: C_4  and  SE_5
REMARK    5  A    between atoms: C_8  and  O_9
REMARK                            x       y       z     vdW  Elec       q    Type
REMARK                         _______ _______ _______ _____ _____    ______ ____
ROOT
ATOM      1  CA  UNL     1       9.064  -0.111  22.145  0.00  0.00    +0.000 C 
ENDROOT
BRANCH   1   2
ATOM      2  N   UNL     1       9.699  -0.974  21.143  0.00  0.00    +0.000 NA
ATOM      3  H1  UNL     1      10.679  -1.213  21.417  0.00  0.00    +0.000 HD
ATOM      4  H2  UNL     1       9.151  -1.858  21.041  0.00  0.00    +0.000 HD
ENDBRANCH   1   2
BRANCH   1   5
ATOM      5  C   UNL     1       9.012   1.328  21.667  0.00  0.00    +0.000 C 
ATOM      6  OXT UNL     1       7.947   1.845  21.368  0.00  0.00    +0.000 OA
BRANCH   5   7
ATOM      7  O   UNL     1      10.141   2.064  21.584  0.00  0.00    +0.000 OA
ATOM      8  H   UNL     1      10.124   3.031  21.576  0.00  0.00    +0.000 HD
ENDBRANCH   5   7
ENDBRANCH   1   5
BRANCH   1   9
ATOM      9  C   UNL     1       9.766  -0.233  23.513  0.00  0.00    +0.000 C 
BRANCH   9  10
ATOM     10 SE   UNL     1       9.223  -1.831  24.518  0.00  0.00    +0.000 Se
ATOM     11  O   UNL     1      10.247  -2.786  23.652  0.00  0.00    +0.000 OA
ATOM     12  O   UNL     1       8.011  -2.131  23.445  0.00  0.00    +0.000 OA
ENDBRANCH   9  10
ENDBRANCH   1   9
TORSDOF 5
ENDMDL
MODEL 3
REMARK VINA RESULT:      -3.8      1.931      2.045
REMARK  Name = 
REMARK  5 active torsions:
REMARK  status: ('A' for Active; 'I' for Inactive)
REMARK    1  A    between atoms: N_1  and  CA_2
REMARK    2  A    between atoms: CA_2  and  C_4
REMARK    3  A    between atoms: CA_2  and  C_8
REMARK    4  A    between atoms: C_4  and  SE_5
REMARK    5  A    between atoms: C_8  and  O_9
REMARK                            x       y       z     vdW  Elec       q    Type
REMARK                         _______ _______ _______ _____ _____    ______ ____
ROOT
ATOM      1  CA  UNL     1       9.327  -4.591  25.699  0.00  0.00    +0.000 C 
ENDROOT
BRANCH   1   2
ATOM      2  N   UNL     1       9.921  -5.855  25.247  0.00  0.00    +0.000 NA
ATOM      3  H1  UNL     1       9.983  -6.544  26.031  0.00  0.00    +0.000 HD
ATOM      4  H2  UNL     1       9.339  -6.263  24.482  0.00  0.00    +0.000 HD
ENDBRANCH   1   2
BRANCH   1   5
ATOM      5  C   UNL     1       8.225  -4.840  26.711  0.00  0.00    +0.000 C 
ATOM      6  OXT UNL     1       7.571  -3.911  27.158  0.00  0.00    +0.000 OA
BRANCH   5   7
ATOM      7  O   UNL     1       7.938  -6.095  27.118  0.00  0.00    +0.000 OA
ATOM      8  H   UNL     1       8.616  -6.781  27.185  0.00  0.00    +0.000 HD
ENDBRANCH   5   7
ENDBRANCH   1   5
BRANCH   1   9
ATOM      9  C   UNL     1       8.826  -3.751  24.506  0.00  0.00    +0.000 C 
BRANCH   9  10
ATOM     10 SE   UNL     1       7.262  -4.535  23.615  0.00  0.00    +0.000 Se
ATOM     11  O   UNL     1       8.168  -5.758  22.987  0.00  0.00    +0.000 OA
ATOM     12  O   UNL     1       7.533  -3.624  22.270  0.00  0.00    +0.000 OA
ENDBRANCH   9  10
ENDBRANCH   1   9
TORSDOF 5
ENDMDL
MODEL 4
REMARK VINA RESULT:      -3.7      4.795      6.524
REMARK  Name = 
REMARK  5 active torsions:
REMARK  status: ('A' for Active; 'I' for Inactive)
REMARK    1  A    between atoms: N_1  and  CA_2
REMARK    2  A    between atoms: CA_2  and  C_4
REMARK    3  A    between atoms: CA_2  and  C_8
REMARK    4  A    between atoms: C_4  and  SE_5
REMARK    5  A    between atoms: C_8  and  O_9
REMARK                            x       y       z     vdW  Elec       q    Type
REMARK                         _______ _______ _______ _____ _____    ______ ____
ROOT
ATOM      1  CA  UNL     1      10.280   0.625  23.474  0.00  0.00    +0.000 C 
ENDROOT
BRANCH   1   2
ATOM      2  N   UNL     1      10.649   0.616  24.895  0.00  0.00    +0.000 NA
ATOM      3  H1  UNL     1      11.396   1.319  25.095  0.00  0.00    +0.000 HD
ATOM      4  H2  UNL     1       9.811   0.836  25.478  0.00  0.00    +0.000 HD
ENDBRANCH   1   2
BRANCH   1   5
ATOM      5  C   UNL     1      10.293   2.037  22.920  0.00  0.00    +0.000 C 
ATOM      6  OXT UNL     1      10.480   2.992  23.657  0.00  0.00    +0.000 OA
BRANCH   5   7
ATOM      7  O   UNL     1      10.117   2.258  21.599  0.00  0.00    +0.000 OA
ATOM      8  H   UNL     1       9.698   1.606  21.020  0.00  0.00    +0.000 HD
ENDBRANCH   5   7
ENDBRANCH   1   5
BRANCH   1   9
ATOM      9  C   UNL     1       8.919  -0.064  23.246  0.00  0.00    +0.000 C 
BRANCH   9  10
ATOM     10 SE   UNL     1       9.081  -1.991  22.899  0.00  0.00    +0.000 Se
ATOM     11  O   UNL     1       9.505  -2.289  24.462  0.00  0.00    +0.000 OA
ATOM     12  O   UNL     1      10.665  -1.815  22.487  0.00  0.00    +0.000 OA
ENDBRANCH   9  10
ENDBRANCH   1   9
TORSDOF 5
ENDMDL
MODEL 5
REMARK VINA RESULT:      -3.7      4.352      5.423
REMARK  Name = 
REMARK  5 active torsions:
REMARK  status: ('A' for Active; 'I' for Inactive)
REMARK    1  A    between atoms: N_1  and  CA_2
REMARK    2  A    between atoms: CA_2  and  C_4
REMARK    3  A    between atoms: CA_2  and  C_8
REMARK    4  A    between atoms: C_4  and  SE_5
REMARK    5  A    between atoms: C_8  and  O_9
REMARK                            x       y       z     vdW  Elec       q    Type
REMARK                         _______ _______ _______ _____ _____    ______ ____
ROOT
ATOM      1  CA  UNL     1       9.521  -0.692  24.020  0.00  0.00    +0.000 C 
ENDROOT
BRANCH   1   2
ATOM      2  N   UNL     1      10.582   0.220  24.465  0.00  0.00    +0.000 NA
ATOM      3  H1  UNL     1      11.379  -0.308  24.888  0.00  0.00    +0.000 HD
ATOM      4  H2  UNL     1      10.934   0.774  23.652  0.00  0.00    +0.000 HD
ENDBRANCH   1   2
BRANCH   1   5
ATOM      5  C   UNL     1      10.095  -1.841  23.215  0.00  0.00    +0.000 C 
ATOM      6  OXT UNL     1      10.248  -2.941  23.724  0.00  0.00    +0.000 OA
BRANCH   5   7
ATOM      7  O   UNL     1      10.428  -1.671  21.917  0.00  0.00    +0.000 OA
ATOM      8  H   UNL     1      11.258  -2.005  21.551  0.00  0.00    +0.000 HD
ENDBRANCH   5   7
ENDBRANCH   1   5
BRANCH   1   9
ATOM      9  C   UNL     1       8.428   0.064  23.237  0.00  0.00    +0.000 C 
BRANCH   9  10
ATOM     10 SE   UNL     1       8.947   1.899  22.766  0.00  0.00    +0.000 Se
ATOM     11  O   UNL     1       7.870   1.940  21.522  0.00  0.00    +0.000 OA
ATOM     12  O   UNL     1      10.119   1.340  21.753  0.00  0.00    +0.000 OA
ENDBRANCH   9  10
ENDBRANCH   1   9
TORSDOF 5
ENDMDL
MODEL 6
REMARK VINA RESULT:      -3.7      3.886      4.785
REMARK  Name = 
REMARK  5 active torsions:
REMARK  status: ('A' for Active; 'I' for Inactive)
REMARK    1  A    between atoms: N_1  and  CA_2
REMARK    2  A    between atoms: CA_2  and  C_4
REMARK    3  A    between atoms: CA_2  and  C_8
REMARK    4  A    between atoms: C_4  and  SE_5
REMARK    5  A    between atoms: C_8  and  O_9
REMARK                            x       y       z     vdW  Elec       q    Type
REMARK                         _______ _______ _______ _____ _____    ______ ____
ROOT
ATOM      1  CA  UNL     1      10.443  -1.443  22.836  0.00  0.00    +0.000 C 
ENDROOT
BRANCH   1   2
ATOM      2  N   UNL     1      10.018  -1.544  21.435  0.00  0.00    +0.000 NA
ATOM      3  H1  UNL     1      10.836  -1.692  20.802  0.00  0.00    +0.000 HD
ATOM      4  H2  UNL     1       9.355  -2.344  21.324  0.00  0.00    +0.000 HD
ENDBRANCH   1   2
BRANCH   1   5
ATOM      5  C   UNL     1       9.585  -2.319  23.728  0.00  0.00    +0.000 C 
ATOM      6  OXT UNL     1       9.997  -3.400  24.119  0.00  0.00    +0.000 OA
BRANCH   5   7
ATOM      7  O   UNL     1       8.359  -1.908  24.119  0.00  0.00    +0.000 OA
ATOM      8  H   UNL     1       8.169  -1.656  25.033  0.00  0.00    +0.000 HD
ENDBRANCH   5   7
ENDBRANCH   1   5
BRANCH   1   9
ATOM      9  C   UNL     1      10.450   0.024  23.313  0.00  0.00    +0.000 C 
BRANCH   9  10
ATOM     10 SE   UNL     1       9.605   1.253  22.035  0.00  0.00    +0.000 Se
ATOM     11  O   UNL     1       9.401   2.402  23.197  0.00  0.00    +0.000 OA
ATOM     12  O   UNL     1       8.118   0.629  22.372  0.00  0.00    +0.000 OA
ENDBRANCH   9  10
ENDBRANCH   1   9
TORSDOF 5
ENDMDL
MODEL 7
REMARK VINA RESULT:      -3.6      5.187      6.397
REMARK  Name = 
REMARK  5 active torsions:
REMARK  status: ('A' for Active; 'I' for Inactive)
REMARK    1  A    between atoms: N_1  and  CA_2
REMARK    2  A    between atoms: CA_2  and  C_4
REMARK    3  A    between atoms: CA_2  and  C_8
REMARK    4  A    between atoms: C_4  and  SE_5
REMARK    5  A    between atoms: C_8  and  O_9
REMARK                            x       y       z     vdW  Elec       q    Type
REMARK                         _______ _______ _______ _____ _____    ______ ____
ROOT
ATOM      1  CA  UNL     1       9.605   1.107  22.631  0.00  0.00    +0.000 C 
ENDROOT
BRANCH   1   2
ATOM      2  N   UNL     1       9.692   2.075  21.530  0.00  0.00    +0.000 NA
ATOM      3  H1  UNL     1      10.413   1.786  20.830  0.00  0.00    +0.000 HD
ATOM      4  H2  UNL     1       8.766   2.149  21.053  0.00  0.00    +0.000 HD
ENDBRANCH   1   2
BRANCH   1   5
ATOM      5  C   UNL     1      10.382   1.590  23.840  0.00  0.00    +0.000 C 
ATOM      6  OXT UNL     1      11.062   2.602  23.778  0.00  0.00    +0.000 OA
BRANCH   5   7
ATOM      7  O   UNL     1      10.319   0.918  25.010  0.00  0.00    +0.000 OA
ATOM      8  H   UNL     1      10.767   1.230  25.807  0.00  0.00    +0.000 HD
ENDBRANCH   5   7
ENDBRANCH   1   5
BRANCH   1   9
ATOM      9  C   UNL     1      10.066  -0.294  22.179  0.00  0.00    +0.000 C 
BRANCH   9  10
ATOM     10 SE   UNL     1       8.907  -1.736  22.840  0.00  0.00    +0.000 Se
ATOM     11  O   UNL     1       7.971  -0.670  23.676  0.00  0.00    +0.000 OA
ATOM     12  O   UNL     1       9.871  -1.947  24.158  0.00  0.00    +0.000 OA
ENDBRANCH   9  10
ENDBRANCH   1   9
TORSDOF 5
ENDMDL
MODEL 8
REMARK VINA RESULT:      -3.5      2.535      2.701
REMARK  Name = 
REMARK  5 active torsions:
REMARK  status: ('A' for Active; 'I' for Inactive)
REMARK    1  A    between atoms: N_1  and  CA_2
REMARK    2  A    between atoms: CA_2  and  C_4
REMARK    3  A    between atoms: CA_2  and  C_8
REMARK    4  A    between atoms: C_4  and  SE_5
REMARK    5  A    between atoms: C_8  and  O_9
REMARK                            x       y       z     vdW  Elec       q    Type
REMARK                         _______ _______ _______ _____ _____    ______ ____
ROOT
ATOM      1  CA  UNL     1       8.388  -4.159  24.544  0.00  0.00    +0.000 C 
ENDROOT
BRANCH   1   2
ATOM      2  N   UNL     1       9.541  -3.420  24.016  0.00  0.00    +0.000 NA
ATOM      3  H1  UNL     1       9.895  -2.727  24.713  0.00  0.00    +0.000 HD
ATOM      4  H2  UNL     1      10.309  -4.088  23.781  0.00  0.00    +0.000 HD
ENDBRANCH   1   2
BRANCH   1   5
ATOM      5  C   UNL     1       8.836  -5.308  25.426  0.00  0.00    +0.000 C 
ATOM      6  OXT UNL     1       8.087  -5.771  26.272  0.00  0.00    +0.000 OA
BRANCH   5   7
ATOM      7  O   UNL     1      10.064  -5.849  25.277  0.00  0.00    +0.000 OA
ATOM      8  H   UNL     1      10.497  -5.913  24.414  0.00  0.00    +0.000 HD
ENDBRANCH   5   7
ENDBRANCH   1   5
BRANCH   1   9
ATOM      9  C   UNL     1       7.466  -4.641  23.405  0.00  0.00    +0.000 C 
BRANCH   9  10
ATOM     10 SE   UNL     1       6.142  -3.295  22.863  0.00  0.00    +0.000 Se
ATOM     11  O   UNL     1       5.863  -4.068  21.437  0.00  0.00    +0.000 OA
ATOM     12  O   UNL     1       7.315  -2.381  22.156  0.00  0.00    +0.000 OA
ENDBRANCH   9  10
ENDBRANCH   1   9
TORSDOF 5
ENDMDL
MODEL 9
REMARK VINA RESULT:      -3.5      1.799      2.179
REMARK  Name = 
REMARK  5 active torsions:
REMARK  status: ('A' for Active; 'I' for Inactive)
REMARK    1  A    between atoms: N_1  and  CA_2
REMARK    2  A    between atoms: CA_2  and  C_4
REMARK    3  A    between atoms: CA_2  and  C_8
REMARK    4  A    between atoms: C_4  and  SE_5
REMARK    5  A    between atoms: C_8  and  O_9
REMARK                            x       y       z     vdW  Elec       q    Type
REMARK                         _______ _______ _______ _____ _____    ______ ____
ROOT
ATOM      1  CA  UNL     1       7.063  -5.209  26.088  0.00  0.00    +0.000 C 
ENDROOT
BRANCH   1   2
ATOM      2  N   UNL     1       8.108  -5.861  26.887  0.00  0.00    +0.000 NA
ATOM      3  H1  UNL     1       8.823  -6.314  26.274  0.00  0.00    +0.000 HD
ATOM      4  H2  UNL     1       8.580  -5.154  27.494  0.00  0.00    +0.000 HD
ENDBRANCH   1   2
BRANCH   1   5
ATOM      5  C   UNL     1       5.757  -5.975  26.174  0.00  0.00    +0.000 C 
ATOM      6  OXT UNL     1       5.591  -6.825  27.036  0.00  0.00    +0.000 OA
BRANCH   5   7
ATOM      7  O   UNL     1       4.751  -5.717  25.311  0.00  0.00    +0.000 OA
ATOM      8  H   UNL     1       4.043  -5.093  25.519  0.00  0.00    +0.000 HD
ENDBRANCH   5   7
ENDBRANCH   1   5
BRANCH   1   9
ATOM      9  C   UNL     1       7.516  -5.016  24.627  0.00  0.00    +0.000 C 
BRANCH   9  10
ATOM     10 SE   UNL     1       8.915  -3.652  24.428  0.00  0.00    +0.000 Se
ATOM     11  O   UNL     1      10.090  -4.717  24.871  0.00  0.00    +0.000 OA
ATOM     12  O   UNL     1       8.726  -3.186  25.996  0.00  0.00    +0.000 OA
ENDBRANCH   9  10
ENDBRANCH   1   9
TORSDOF 5
ENDMDL
