MODEL 1
REMARK VINA RESULT:      -7.6      0.000      0.000
REMARK  Name = 
REMARK  5 active torsions:
REMARK  status: ('A' for Active; 'I' for Inactive)
REMARK    1  A    between atoms: C_1  and  N_2
REMARK    2  A    between atoms: N_2  and  S_3
REMARK    3  A    between atoms: S_3  and  C_6
REMARK    4  A    between atoms: C_9  and  C_12
REMARK    5  A    between atoms: C_15  and  C_17
REMARK                            x       y       z     vdW  Elec       q    Type
REMARK                         _______ _______ _______ _____ _____    ______ ____
ROOT
ATOM      1  C   UNL     1       7.516  -4.732  24.712  0.00  0.00    +0.136 A 
ATOM      2  O   UNL     1       7.596  -3.373  24.620  0.00  0.00    -0.455 OA
ATOM      3  C   UNL     1       8.906  -2.985  24.744  0.00  0.00    +0.130 A 
ATOM      4  C   UNL     1       9.658  -4.144  24.915  0.00  0.00    +0.050 A 
ATOM      5  C   UNL     1       8.780  -5.248  24.885  0.00  0.00    +0.050 A 
ENDROOT
BRANCH   3   6
ATOM      6  C   UNL     1       9.406  -1.656  24.704  0.00  0.00    +0.066 C 
ATOM      7  C   UNL     1       9.512  -0.847  23.642  0.00  0.00    +0.081 C 
ATOM      8  C   UNL     1       9.153  -1.029  22.196  0.00  0.00    +0.257 C 
ATOM      9  O   UNL     1       8.648  -2.004  21.670  0.00  0.00    -0.269 OA
ATOM     10  N   UNL     1       9.456   0.111  21.501  0.00  0.00    -0.261 N 
ATOM     11  H   UNL     1       9.269   0.185  20.513  0.00  0.00    +0.157 HD
ATOM     12  C   UNL     1       9.960   1.149  22.189  0.00  0.00    +0.158 C 
ATOM     13  N   UNL     1      10.241   2.274  21.654  0.00  0.00    -0.279 NA
ATOM     14  H   UNL     1      10.603   2.892  22.391  0.00  0.00    +0.189 HD
ATOM     15  S   UNL     1      10.165   0.769  23.855  0.00  0.00    -0.049 S 
ENDBRANCH   3   6
BRANCH   1  19
ATOM     16  C   UNL     1       3.736  -6.682  24.466  0.00  0.00    +0.105 A 
ATOM     17  C   UNL     1       4.398  -6.627  25.695  0.00  0.00    +0.029 A 
ATOM     18  C   UNL     1       5.621  -5.955  25.789  0.00  0.00    +0.013 A 
ATOM     19  C   UNL     1       6.183  -5.327  24.667  0.00  0.00    +0.017 A 
ATOM     20  C   UNL     1       5.456  -5.333  23.462  0.00  0.00    +0.013 A 
ATOM     21  C   UNL     1       4.239  -6.008  23.355  0.00  0.00    +0.029 A 
BRANCH  16  22
ATOM     22  S   UNL     1       2.283  -7.691  24.314  0.00  0.00    +0.058 S 
ATOM     23  O   UNL     1       2.626  -9.012  24.787  0.00  0.00    -0.153 OA
ATOM     24  O   UNL     1       1.155  -6.948  24.834  0.00  0.00    -0.153 OA
BRANCH  22  26
ATOM     25  C   UNL     1       0.923  -8.463  22.106  0.00  0.00    +0.127 C 
ATOM     26  N   UNL     1       2.107  -7.792  22.637  0.00  0.00    -0.193 NA
ATOM     27  H   UNL     1       2.390  -6.931  22.172  0.00  0.00    +0.148 HD
ENDBRANCH  22  26
ENDBRANCH  16  22
ENDBRANCH   1  19
TORSDOF 4
ENDMDL
MODEL 2
REMARK VINA RESULT:      -7.4      4.895     10.093
REMARK  Name = 
REMARK  5 active torsions:
REMARK  status: ('A' for Active; 'I' for Inactive)
REMARK    1  A    between atoms: C_1  and  N_2
REMARK    2  A    between atoms: N_2  and  S_3
REMARK    3  A    between atoms: S_3  and  C_6
REMARK    4  A    between atoms: C_9  and  C_12
REMARK    5  A    between atoms: C_15  and  C_17
REMARK                            x       y       z     vdW  Elec       q    Type
REMARK                         _______ _______ _______ _____ _____    ______ ____
ROOT
ATOM      1  C   UNL     1       9.622   0.580  22.611  0.00  0.00    +0.136 A 
ATOM      2  O   UNL     1       9.881  -0.310  23.613  0.00  0.00    -0.455 OA
ATOM      3  C   UNL     1       9.721  -1.587  23.138  0.00  0.00    +0.130 A 
ATOM      4  C   UNL     1       9.355  -1.481  21.800  0.00  0.00    +0.050 A 
ATOM      5  C   UNL     1       9.302  -0.111  21.465  0.00  0.00    +0.050 A 
ENDROOT
BRANCH   3   6
ATOM      6  C   UNL     1       9.897  -2.793  23.869  0.00  0.00    +0.066 C 
ATOM      7  C   UNL     1       9.100  -3.306  24.816  0.00  0.00    +0.081 C 
ATOM      8  C   UNL     1       7.804  -2.836  25.407  0.00  0.00    +0.257 C 
ATOM      9  O   UNL     1       7.169  -1.838  25.115  0.00  0.00    -0.269 OA
ATOM     10  N   UNL     1       7.379  -3.730  26.353  0.00  0.00    -0.261 N 
ATOM     11  H   UNL     1       6.514  -3.591  26.850  0.00  0.00    +0.157 HD
ATOM     12  C   UNL     1       8.128  -4.826  26.559  0.00  0.00    +0.158 C 
ATOM     13  N   UNL     1       7.809  -5.746  27.386  0.00  0.00    -0.279 NA
ATOM     14  H   UNL     1       8.539  -6.468  27.351  0.00  0.00    +0.189 HD
ATOM     15  S   UNL     1       9.539  -4.827  25.575  0.00  0.00    -0.049 S 
ENDBRANCH   3   6
BRANCH   1  19
ATOM     16  C   UNL     1       9.717   4.657  23.845  0.00  0.00    +0.105 A 
ATOM     17  C   UNL     1      10.918   3.962  23.687  0.00  0.00    +0.029 A 
ATOM     18  C   UNL     1      10.894   2.636  23.246  0.00  0.00    +0.013 A 
ATOM     19  C   UNL     1       9.679   2.000  22.949  0.00  0.00    +0.017 A 
ATOM     20  C   UNL     1       8.491   2.749  23.042  0.00  0.00    +0.013 A 
ATOM     21  C   UNL     1       8.503   4.071  23.490  0.00  0.00    +0.029 A 
BRANCH  16  22
ATOM     22  S   UNL     1       9.744   6.273  24.580  0.00  0.00    +0.058 S 
ATOM     23  O   UNL     1      11.130   6.652  24.729  0.00  0.00    -0.153 OA
ATOM     24  O   UNL     1       8.782   7.105  23.889  0.00  0.00    -0.153 OA
BRANCH  22  26
ATOM     25  C   UNL     1       7.753   6.311  26.410  0.00  0.00    +0.127 C 
ATOM     26  N   UNL     1       9.143   5.960  26.126  0.00  0.00    -0.193 NA
ATOM     27  H   UNL     1       9.470   5.065  26.488  0.00  0.00    +0.148 HD
ENDBRANCH  22  26
ENDBRANCH  16  22
ENDBRANCH   1  19
TORSDOF 4
ENDMDL
MODEL 3
REMARK VINA RESULT:      -7.4      3.922      9.901
REMARK  Name = 
REMARK  5 active torsions:
REMARK  status: ('A' for Active; 'I' for Inactive)
REMARK    1  A    between atoms: C_1  and  N_2
REMARK    2  A    between atoms: N_2  and  S_3
REMARK    3  A    between atoms: S_3  and  C_6
REMARK    4  A    between atoms: C_9  and  C_12
REMARK    5  A    between atoms: C_15  and  C_17
REMARK                            x       y       z     vdW  Elec       q    Type
REMARK                         _______ _______ _______ _____ _____    ______ ____
ROOT
ATOM      1  C   UNL     1       9.117  -0.815  24.123  0.00  0.00    +0.136 A 
ATOM      2  O   UNL     1       7.903  -1.327  24.480  0.00  0.00    -0.455 OA
ATOM      3  C   UNL     1       7.905  -2.684  24.277  0.00  0.00    +0.130 A 
ATOM      4  C   UNL     1       9.161  -3.020  23.783  0.00  0.00    +0.050 A 
ATOM      5  C   UNL     1       9.930  -1.839  23.695  0.00  0.00    +0.050 A 
ENDROOT
BRANCH   3   6
ATOM      6  C   UNL     1       6.831  -3.581  24.525  0.00  0.00    +0.066 C 
ATOM      7  C   UNL     1       6.722  -4.484  25.508  0.00  0.00    +0.081 C 
ATOM      8  C   UNL     1       7.630  -4.850  26.646  0.00  0.00    +0.257 C 
ATOM      9  O   UNL     1       8.707  -4.358  26.929  0.00  0.00    -0.269 OA
ATOM     10  N   UNL     1       7.056  -5.848  27.389  0.00  0.00    -0.261 N 
ATOM     11  H   UNL     1       7.512  -6.215  28.208  0.00  0.00    +0.157 HD
ATOM     12  C   UNL     1       5.840  -6.281  27.020  0.00  0.00    +0.158 C 
ATOM     13  N   UNL     1       5.191  -7.177  27.660  0.00  0.00    -0.279 NA
ATOM     14  H   UNL     1       4.295  -7.323  27.178  0.00  0.00    +0.189 HD
ATOM     15  S   UNL     1       5.280  -5.481  25.603  0.00  0.00    -0.049 S 
ENDBRANCH   3   6
BRANCH   1  19
ATOM     16  C   UNL     1       9.473   3.430  24.141  0.00  0.00    +0.105 A 
ATOM     17  C   UNL     1       8.506   2.822  24.944  0.00  0.00    +0.029 A 
ATOM     18  C   UNL     1       8.410   1.427  24.971  0.00  0.00    +0.013 A 
ATOM     19  C   UNL     1       9.282   0.634  24.209  0.00  0.00    +0.017 A 
ATOM     20  C   UNL     1      10.295   1.271  23.471  0.00  0.00    +0.013 A 
ATOM     21  C   UNL     1      10.394   2.663  23.430  0.00  0.00    +0.029 A 
BRANCH  16  22
ATOM     22  S   UNL     1       9.466   5.198  23.970  0.00  0.00    +0.058 S 
ATOM     23  O   UNL     1       8.404   5.535  23.051  0.00  0.00    -0.153 OA
ATOM     24  O   UNL     1       9.567   5.784  25.289  0.00  0.00    -0.153 OA
BRANCH  22  26
ATOM     25  C   UNL     1      12.063   5.954  23.950  0.00  0.00    +0.127 C 
ATOM     26  N   UNL     1      10.926   5.473  23.168  0.00  0.00    -0.193 NA
ATOM     27  H   UNL     1      11.122   4.752  22.475  0.00  0.00    +0.148 HD
ENDBRANCH  22  26
ENDBRANCH  16  22
ENDBRANCH   1  19
TORSDOF 4
ENDMDL
MODEL 4
REMARK VINA RESULT:      -7.2      3.038      9.356
REMARK  Name = 
REMARK  5 active torsions:
REMARK  status: ('A' for Active; 'I' for Inactive)
REMARK    1  A    between atoms: C_1  and  N_2
REMARK    2  A    between atoms: N_2  and  S_3
REMARK    3  A    between atoms: S_3  and  C_6
REMARK    4  A    between atoms: C_9  and  C_12
REMARK    5  A    between atoms: C_15  and  C_17
REMARK                            x       y       z     vdW  Elec       q    Type
REMARK                         _______ _______ _______ _____ _____    ______ ____
ROOT
ATOM      1  C   UNL     1       9.016  -1.759  24.681  0.00  0.00    +0.136 A 
ATOM      2  O   UNL     1       7.909  -2.295  25.273  0.00  0.00    -0.455 OA
ATOM      3  C   UNL     1       7.954  -3.663  25.165  0.00  0.00    +0.130 A 
ATOM      4  C   UNL     1       9.129  -3.979  24.488  0.00  0.00    +0.050 A 
ATOM      5  C   UNL     1       9.804  -2.775  24.191  0.00  0.00    +0.050 A 
ENDROOT
BRANCH   3   6
ATOM      6  C   UNL     1       6.990  -4.585  25.652  0.00  0.00    +0.066 C 
ATOM      7  C   UNL     1       6.139  -5.338  24.944  0.00  0.00    +0.081 C 
ATOM      8  C   UNL     1       5.913  -5.488  23.467  0.00  0.00    +0.257 C 
ATOM      9  O   UNL     1       6.506  -4.930  22.562  0.00  0.00    -0.269 OA
ATOM     10  N   UNL     1       4.917  -6.401  23.245  0.00  0.00    -0.261 N 
ATOM     11  H   UNL     1       4.635  -6.647  22.310  0.00  0.00    +0.157 HD
ATOM     12  C   UNL     1       4.366  -6.998  24.314  0.00  0.00    +0.158 C 
ATOM     13  N   UNL     1       3.459  -7.894  24.226  0.00  0.00    -0.279 NA
ATOM     14  H   UNL     1       3.214  -8.190  25.179  0.00  0.00    +0.189 HD
ATOM     15  S   UNL     1       5.036  -6.412  25.787  0.00  0.00    -0.049 S 
ENDBRANCH   3   6
BRANCH   1  19
ATOM     16  C   UNL     1       9.194   2.482  24.313  0.00  0.00    +0.105 A 
ATOM     17  C   UNL     1       8.166   1.903  25.061  0.00  0.00    +0.029 A 
ATOM     18  C   UNL     1       8.125   0.514  25.216  0.00  0.00    +0.013 A 
ATOM     19  C   UNL     1       9.110  -0.301  24.640  0.00  0.00    +0.017 A 
ATOM     20  C   UNL     1      10.176   0.315  23.959  0.00  0.00    +0.013 A 
ATOM     21  C   UNL     1      10.222   1.700  23.789  0.00  0.00    +0.029 A 
BRANCH  16  22
ATOM     22  S   UNL     1       9.135   4.222  23.967  0.00  0.00    +0.058 S 
ATOM     23  O   UNL     1       8.172   4.416  22.908  0.00  0.00    -0.153 OA
ATOM     24  O   UNL     1       9.061   4.935  25.224  0.00  0.00    -0.153 OA
BRANCH  22  26
ATOM     25  C   UNL     1      11.393   5.692  23.722  0.00  0.00    +0.127 C 
ATOM     26  N   UNL     1      10.665   4.495  23.306  0.00  0.00    -0.193 NA
ATOM     27  H   UNL     1      11.207   3.635  23.231  0.00  0.00    +0.148 HD
ENDBRANCH  22  26
ENDBRANCH  16  22
ENDBRANCH   1  19
TORSDOF 4
ENDMDL
MODEL 5
REMARK VINA RESULT:      -7.2      3.177      4.321
REMARK  Name = 
REMARK  5 active torsions:
REMARK  status: ('A' for Active; 'I' for Inactive)
REMARK    1  A    between atoms: C_1  and  N_2
REMARK    2  A    between atoms: N_2  and  S_3
REMARK    3  A    between atoms: S_3  and  C_6
REMARK    4  A    between atoms: C_9  and  C_12
REMARK    5  A    between atoms: C_15  and  C_17
REMARK                            x       y       z     vdW  Elec       q    Type
REMARK                         _______ _______ _______ _____ _____    ______ ____
ROOT
ATOM      1  C   UNL     1       8.716  -0.928  24.101  0.00  0.00    +0.136 A 
ATOM      2  O   UNL     1       8.182   0.323  24.212  0.00  0.00    -0.455 OA
ATOM      3  C   UNL     1       9.197   1.243  24.302  0.00  0.00    +0.130 A 
ATOM      4  C   UNL     1      10.393   0.536  24.240  0.00  0.00    +0.050 A 
ATOM      5  C   UNL     1      10.089  -0.835  24.103  0.00  0.00    +0.050 A 
ENDROOT
BRANCH   3   6
ATOM      6  C   UNL     1       9.057   2.651  24.431  0.00  0.00    +0.066 C 
ATOM      7  C   UNL     1       8.477   3.503  23.576  0.00  0.00    +0.081 C 
ATOM      8  C   UNL     1       7.793   3.299  22.256  0.00  0.00    +0.257 C 
ATOM      9  O   UNL     1       7.603   2.248  21.669  0.00  0.00    -0.269 OA
ATOM     10  N   UNL     1       7.358   4.504  21.772  0.00  0.00    -0.261 N 
ATOM     11  H   UNL     1       6.859   4.565  20.899  0.00  0.00    +0.157 HD
ATOM     12  C   UNL     1       7.572   5.594  22.526  0.00  0.00    +0.158 C 
ATOM     13  N   UNL     1       7.175   6.763  22.195  0.00  0.00    -0.279 NA
ATOM     14  H   UNL     1       7.458   7.414  22.938  0.00  0.00    +0.189 HD
ATOM     15  S   UNL     1       8.428   5.213  23.969  0.00  0.00    -0.049 S 
ENDBRANCH   3   6
BRANCH   1  19
ATOM     16  C   UNL     1       6.032  -4.214  23.716  0.00  0.00    +0.105 A 
ATOM     17  C   UNL     1       7.315  -4.435  24.223  0.00  0.00    +0.029 A 
ATOM     18  C   UNL     1       8.186  -3.354  24.387  0.00  0.00    +0.013 A 
ATOM     19  C   UNL     1       7.782  -2.051  24.059  0.00  0.00    +0.017 A 
ATOM     20  C   UNL     1       6.459  -1.849  23.626  0.00  0.00    +0.013 A 
ATOM     21  C   UNL     1       5.584  -2.922  23.449  0.00  0.00    +0.029 A 
BRANCH  16  22
ATOM     22  S   UNL     1       5.001  -5.610  23.338  0.00  0.00    +0.058 S 
ATOM     23  O   UNL     1       4.994  -6.465  24.502  0.00  0.00    -0.153 OA
ATOM     24  O   UNL     1       3.784  -5.125  22.723  0.00  0.00    -0.153 OA
BRANCH  22  26
ATOM     25  C   UNL     1       6.219  -5.661  20.923  0.00  0.00    +0.127 C 
ATOM     26  N   UNL     1       5.906  -6.394  22.147  0.00  0.00    -0.193 NA
ATOM     27  H   UNL     1       6.656  -6.957  22.547  0.00  0.00    +0.148 HD
ENDBRANCH  22  26
ENDBRANCH  16  22
ENDBRANCH   1  19
TORSDOF 4
ENDMDL
MODEL 6
REMARK VINA RESULT:      -7.2      3.954      9.745
REMARK  Name = 
REMARK  5 active torsions:
REMARK  status: ('A' for Active; 'I' for Inactive)
REMARK    1  A    between atoms: C_1  and  N_2
REMARK    2  A    between atoms: N_2  and  S_3
REMARK    3  A    between atoms: S_3  and  C_6
REMARK    4  A    between atoms: C_9  and  C_12
REMARK    5  A    between atoms: C_15  and  C_17
REMARK                            x       y       z     vdW  Elec       q    Type
REMARK                         _______ _______ _______ _____ _____    ______ ____
ROOT
ATOM      1  C   UNL     1       8.912  -0.093  23.313  0.00  0.00    +0.136 A 
ATOM      2  O   UNL     1       7.908  -0.861  22.799  0.00  0.00    -0.455 OA
ATOM      3  C   UNL     1       8.317  -2.171  22.752  0.00  0.00    +0.130 A 
ATOM      4  C   UNL     1       9.613  -2.210  23.257  0.00  0.00    +0.050 A 
ATOM      5  C   UNL     1       9.985  -0.898  23.620  0.00  0.00    +0.050 A 
ENDROOT
BRANCH   3   6
ATOM      6  C   UNL     1       7.563  -3.279  22.280  0.00  0.00    +0.066 C 
ATOM      7  C   UNL     1       6.897  -4.189  23.002  0.00  0.00    +0.081 C 
ATOM      8  C   UNL     1       6.702  -4.358  24.480  0.00  0.00    +0.257 C 
ATOM      9  O   UNL     1       7.124  -3.646  25.374  0.00  0.00    -0.269 OA
ATOM     10  N   UNL     1       5.923  -5.459  24.718  0.00  0.00    -0.261 N 
ATOM     11  H   UNL     1       5.669  -5.724  25.656  0.00  0.00    +0.157 HD
ATOM     12  C   UNL     1       5.465  -6.142  23.657  0.00  0.00    +0.158 C 
ATOM     13  N   UNL     1       4.699  -7.160  23.757  0.00  0.00    -0.279 NA
ATOM     14  H   UNL     1       4.491  -7.492  22.807  0.00  0.00    +0.189 HD
ATOM     15  S   UNL     1       6.031  -5.473  22.176  0.00  0.00    -0.049 S 
ENDBRANCH   3   6
BRANCH   1  19
ATOM     16  C   UNL     1       8.493   4.145  23.426  0.00  0.00    +0.105 A 
ATOM     17  C   UNL     1       7.935   3.431  22.363  0.00  0.00    +0.029 A 
ATOM     18  C   UNL     1       8.037   2.037  22.341  0.00  0.00    +0.013 A 
ATOM     19  C   UNL     1       8.682   1.348  23.379  0.00  0.00    +0.017 A 
ATOM     20  C   UNL     1       9.165   2.087  24.475  0.00  0.00    +0.013 A 
ATOM     21  C   UNL     1       9.077   3.480  24.503  0.00  0.00    +0.029 A 
BRANCH  16  22
ATOM     22  S   UNL     1       8.522   5.919  23.354  0.00  0.00    +0.058 S 
ATOM     23  O   UNL     1       7.575   6.403  24.331  0.00  0.00    -0.153 OA
ATOM     24  O   UNL     1       9.902   6.353  23.329  0.00  0.00    -0.153 OA
BRANCH  22  26
ATOM     25  C   UNL     1       6.591   6.935  21.755  0.00  0.00    +0.127 C 
ATOM     26  N   UNL     1       7.859   6.213  21.829  0.00  0.00    -0.193 NA
ATOM     27  H   UNL     1       8.571   6.471  21.147  0.00  0.00    +0.148 HD
ENDBRANCH  22  26
ENDBRANCH  16  22
ENDBRANCH   1  19
TORSDOF 4
ENDMDL
MODEL 7
REMARK VINA RESULT:      -7.2      1.519      2.048
REMARK  Name = 
REMARK  5 active torsions:
REMARK  status: ('A' for Active; 'I' for Inactive)
REMARK    1  A    between atoms: C_1  and  N_2
REMARK    2  A    between atoms: N_2  and  S_3
REMARK    3  A    between atoms: S_3  and  C_6
REMARK    4  A    between atoms: C_9  and  C_12
REMARK    5  A    between atoms: C_15  and  C_17
REMARK                            x       y       z     vdW  Elec       q    Type
REMARK                         _______ _______ _______ _____ _____    ______ ____
ROOT
ATOM      1  C   UNL     1       7.904  -4.084  23.933  0.00  0.00    +0.136 A 
ATOM      2  O   UNL     1       7.849  -2.974  23.141  0.00  0.00    -0.455 OA
ATOM      3  C   UNL     1       9.009  -2.254  23.285  0.00  0.00    +0.130 A 
ATOM      4  C   UNL     1       9.805  -2.946  24.193  0.00  0.00    +0.050 A 
ATOM      5  C   UNL     1       9.110  -4.107  24.594  0.00  0.00    +0.050 A 
ENDROOT
BRANCH   3   6
ATOM      6  C   UNL     1       9.339  -1.036  22.633  0.00  0.00    +0.066 C 
ATOM      7  C   UNL     1       9.478   0.179  23.178  0.00  0.00    +0.081 C 
ATOM      8  C   UNL     1       9.357   0.671  24.591  0.00  0.00    +0.257 C 
ATOM      9  O   UNL     1       9.107   0.018  25.589  0.00  0.00    -0.269 OA
ATOM     10  N   UNL     1       9.600   2.017  24.632  0.00  0.00    -0.261 N 
ATOM     11  H   UNL     1       9.581   2.525  25.502  0.00  0.00    +0.157 HD
ATOM     12  C   UNL     1       9.919   2.630  23.480  0.00  0.00    +0.158 C 
ATOM     13  N   UNL     1      10.206   3.873  23.404  0.00  0.00    -0.279 NA
ATOM     14  H   UNL     1      10.416   4.089  22.421  0.00  0.00    +0.189 HD
ATOM     15  S   UNL     1       9.898   1.538  22.150  0.00  0.00    -0.049 S 
ENDBRANCH   3   6
BRANCH   1  19
ATOM     16  C   UNL     1       4.322  -6.383  24.109  0.00  0.00    +0.105 A 
ATOM     17  C   UNL     1       4.767  -5.905  22.874  0.00  0.00    +0.029 A 
ATOM     18  C   UNL     1       5.962  -5.182  22.806  0.00  0.00    +0.013 A 
ATOM     19  C   UNL     1       6.723  -4.943  23.961  0.00  0.00    +0.017 A 
ATOM     20  C   UNL     1       6.290  -5.504  25.176  0.00  0.00    +0.013 A 
ATOM     21  C   UNL     1       5.094  -6.219  25.257  0.00  0.00    +0.029 A 
BRANCH  16  22
ATOM     22  S   UNL     1       2.717  -7.136  24.215  0.00  0.00    +0.058 S 
ATOM     23  O   UNL     1       2.906  -8.478  24.715  0.00  0.00    -0.153 OA
ATOM     24  O   UNL     1       1.812  -6.195  24.837  0.00  0.00    -0.153 OA
BRANCH  22  26
ATOM     25  C   UNL     1       1.129  -8.084  22.241  0.00  0.00    +0.127 C 
ATOM     26  N   UNL     1       2.289  -7.267  22.587  0.00  0.00    -0.193 NA
ATOM     27  H   UNL     1       2.384  -6.379  22.095  0.00  0.00    +0.148 HD
ENDBRANCH  22  26
ENDBRANCH  16  22
ENDBRANCH   1  19
TORSDOF 4
ENDMDL
MODEL 8
REMARK VINA RESULT:      -7.1      3.993      9.848
REMARK  Name = 
REMARK  5 active torsions:
REMARK  status: ('A' for Active; 'I' for Inactive)
REMARK    1  A    between atoms: C_1  and  N_2
REMARK    2  A    between atoms: N_2  and  S_3
REMARK    3  A    between atoms: S_3  and  C_6
REMARK    4  A    between atoms: C_9  and  C_12
REMARK    5  A    between atoms: C_15  and  C_17
REMARK                            x       y       z     vdW  Elec       q    Type
REMARK                         _______ _______ _______ _____ _____    ______ ____
ROOT
ATOM      1  C   UNL     1       8.824  -0.061  25.191  0.00  0.00    +0.136 A 
ATOM      2  O   UNL     1       8.683  -1.017  24.227  0.00  0.00    -0.455 OA
ATOM      3  C   UNL     1       8.589  -2.251  24.821  0.00  0.00    +0.130 A 
ATOM      4  C   UNL     1       8.671  -2.047  26.195  0.00  0.00    +0.050 A 
ATOM      5  C   UNL     1       8.810  -0.662  26.428  0.00  0.00    +0.050 A 
ENDROOT
BRANCH   3   6
ATOM      6  C   UNL     1       8.435  -3.500  24.163  0.00  0.00    +0.066 C 
ATOM      7  C   UNL     1       7.362  -3.960  23.508  0.00  0.00    +0.081 C 
ATOM      8  C   UNL     1       6.015  -3.358  23.231  0.00  0.00    +0.257 C 
ATOM      9  O   UNL     1       5.610  -2.256  23.555  0.00  0.00    -0.269 OA
ATOM     10  N   UNL     1       5.259  -4.238  22.504  0.00  0.00    -0.261 N 
ATOM     11  H   UNL     1       4.325  -4.002  22.208  0.00  0.00    +0.157 HD
ATOM     12  C   UNL     1       5.822  -5.405  22.153  0.00  0.00    +0.158 C 
ATOM     13  N   UNL     1       5.227  -6.284  21.441  0.00  0.00    -0.279 NA
ATOM     14  H   UNL     1       5.872  -7.074  21.313  0.00  0.00    +0.189 HD
ATOM     15  S   UNL     1       7.422  -5.551  22.770  0.00  0.00    -0.049 S 
ENDBRANCH   3   6
BRANCH   1  19
ATOM     16  C   UNL     1       9.470   4.010  24.115  0.00  0.00    +0.105 A 
ATOM     17  C   UNL     1      10.296   3.021  23.574  0.00  0.00    +0.029 A 
ATOM     18  C   UNL     1      10.064   1.680  23.894  0.00  0.00    +0.013 A 
ATOM     19  C   UNL     1       9.005   1.317  24.742  0.00  0.00    +0.017 A 
ATOM     20  C   UNL     1       8.144   2.327  25.208  0.00  0.00    +0.013 A 
ATOM     21  C   UNL     1       8.372   3.670  24.902  0.00  0.00    +0.029 A 
BRANCH  16  22
ATOM     22  S   UNL     1       9.884   5.717  23.853  0.00  0.00    +0.058 S 
ATOM     23  O   UNL     1       8.874   6.275  22.985  0.00  0.00    -0.153 OA
ATOM     24  O   UNL     1      10.220   6.306  25.131  0.00  0.00    -0.153 OA
BRANCH  22  26
ATOM     25  C   UNL     1      12.579   5.807  23.634  0.00  0.00    +0.127 C 
ATOM     26  N   UNL     1      11.305   5.593  22.950  0.00  0.00    -0.193 NA
ATOM     27  H   UNL     1      11.269   4.821  22.285  0.00  0.00    +0.148 HD
ENDBRANCH  22  26
ENDBRANCH  16  22
ENDBRANCH   1  19
TORSDOF 4
ENDMDL
MODEL 9
REMARK VINA RESULT:      -6.8      3.411      8.950
REMARK  Name = 
REMARK  5 active torsions:
REMARK  status: ('A' for Active; 'I' for Inactive)
REMARK    1  A    between atoms: C_1  and  N_2
REMARK    2  A    between atoms: N_2  and  S_3
REMARK    3  A    between atoms: S_3  and  C_6
REMARK    4  A    between atoms: C_9  and  C_12
REMARK    5  A    between atoms: C_15  and  C_17
REMARK                            x       y       z     vdW  Elec       q    Type
REMARK                         _______ _______ _______ _____ _____    ______ ____
ROOT
ATOM      1  C   UNL     1       7.850  -2.986  23.522  0.00  0.00    +0.136 A 
ATOM      2  O   UNL     1       6.973  -3.326  24.511  0.00  0.00    -0.455 OA
ATOM      3  C   UNL     1       6.507  -4.597  24.287  0.00  0.00    +0.130 A 
ATOM      4  C   UNL     1       7.120  -5.056  23.125  0.00  0.00    +0.050 A 
ATOM      5  C   UNL     1       7.976  -4.040  22.647  0.00  0.00    +0.050 A 
ENDROOT
BRANCH   3   6
ATOM      6  C   UNL     1       5.578  -5.314  25.088  0.00  0.00    +0.066 C 
ATOM      7  C   UNL     1       5.713  -5.698  26.364  0.00  0.00    +0.081 C 
ATOM      8  C   UNL     1       6.820  -5.513  27.360  0.00  0.00    +0.257 C 
ATOM      9  O   UNL     1       7.876  -4.927  27.202  0.00  0.00    -0.269 OA
ATOM     10  N   UNL     1       6.469  -6.095  28.549  0.00  0.00    -0.261 N 
ATOM     11  H   UNL     1       7.083  -6.058  29.348  0.00  0.00    +0.157 HD
ATOM     12  C   UNL     1       5.258  -6.668  28.632  0.00  0.00    +0.158 C 
ATOM     13  N   UNL     1       4.808  -7.204  29.701  0.00  0.00    -0.279 NA
ATOM     14  H   UNL     1       3.866  -7.562  29.502  0.00  0.00    +0.189 HD
ATOM     15  S   UNL     1       4.407  -6.578  27.139  0.00  0.00    -0.049 S 
ENDBRANCH   3   6
BRANCH   1  19
ATOM     16  C   UNL     1       9.217   1.049  23.583  0.00  0.00    +0.105 A 
ATOM     17  C   UNL     1       9.082   0.354  24.788  0.00  0.00    +0.029 A 
ATOM     18  C   UNL     1       8.670  -0.982  24.770  0.00  0.00    +0.013 A 
ATOM     19  C   UNL     1       8.403  -1.634  23.557  0.00  0.00    +0.017 A 
ATOM     20  C   UNL     1       8.624  -0.934  22.357  0.00  0.00    +0.013 A 
ATOM     21  C   UNL     1       9.026   0.403  22.363  0.00  0.00    +0.029 A 
BRANCH  16  22
ATOM     22  S   UNL     1       9.560   2.791  23.625  0.00  0.00    +0.058 S 
ATOM     23  O   UNL     1       8.884   3.332  24.781  0.00  0.00    -0.153 OA
ATOM     24  O   UNL     1      10.975   2.983  23.393  0.00  0.00    -0.153 OA
BRANCH  22  26
ATOM     25  C   UNL     1       7.330   3.724  22.411  0.00  0.00    +0.127 C 
ATOM     26  N   UNL     1       8.731   3.338  22.260  0.00  0.00    -0.193 NA
ATOM     27  H   UNL     1       9.310   3.943  21.679  0.00  0.00    +0.148 HD
ENDBRANCH  22  26
ENDBRANCH  16  22
ENDBRANCH   1  19
TORSDOF 4
ENDMDL
