MODEL 1
REMARK VINA RESULT:      -6.1      0.000      0.000
REMARK  Name = 
REMARK  16 active torsions:
REMARK  status: ('A' for Active; 'I' for Inactive)
REMARK    1  A    between atoms: C_2  and  C_3
REMARK    2  A    between atoms: C_2  and  N_10
REMARK    3  A    between atoms: C_2  and  C_32
REMARK    4  A    between atoms: C_3  and  C_4
REMARK    5  A    between atoms: C_11  and  C_13
REMARK    6  A    between atoms: C_13  and  C_15
REMARK    7  A    between atoms: C_13  and  C_19
REMARK    8  A    between atoms: C_15  and  C_16
REMARK    9  A    between atoms: C_16  and  C_17
REMARK   10  A    between atoms: C_16  and  C_18
REMARK   11  A    between atoms: C_19  and  C_21
REMARK   12  A    between atoms: C_19  and  C_28
REMARK   13  A    between atoms: C_21  and  S_22
REMARK   14  A    between atoms: S_22  and  C_23
REMARK   15  A    between atoms: N_30  and  O_31
REMARK   16  A    between atoms: N_34  and  C_35
REMARK                            x       y       z     vdW  Elec       q    Type
REMARK                         _______ _______ _______ _____ _____    ______ ____
ROOT
ATOM      1  C   UNL     1       7.095  -3.772  24.754  0.00  0.00    +0.088 C 
ENDROOT
BRANCH   1   4
ATOM      2  N   UNL     1       5.417  -5.389  25.552  0.00  0.00    -0.303 N 
ATOM      3  H   UNL     1       4.830  -5.012  24.821  0.00  0.00    +0.149 HD
ATOM      4  C   UNL     1       6.738  -5.035  25.544  0.00  0.00    +0.217 C 
ATOM      5  O   UNL     1       7.623  -5.655  26.125  0.00  0.00    -0.275 OA
BRANCH   2   6
ATOM      6  C   UNL     1       4.809  -6.479  26.341  0.00  0.00    +0.163 C 
BRANCH   6   7
ATOM      7  C   UNL     1       4.000  -7.310  25.298  0.00  0.00    +0.233 C 
ATOM      8  N   UNL     1       2.885  -7.947  25.819  0.00  0.00    -0.317 N 
ATOM      9  H   UNL     1       2.628  -7.790  26.784  0.00  0.00    +0.148 HD
ATOM     10  C   UNL     1       1.956  -8.674  24.980  0.00  0.00    +0.128 C 
ATOM     11  O   UNL     1       4.376  -7.496  24.144  0.00  0.00    -0.274 OA
ENDBRANCH   6   7
BRANCH   6  12
ATOM     12  C   UNL     1       3.892  -6.032  27.486  0.00  0.00    +0.067 C 
BRANCH  12  13
ATOM     13  C   UNL     1       3.657  -4.537  27.515  0.00  0.00    -0.045 A 
ATOM     14  C   UNL     1       4.408  -3.716  28.365  0.00  0.00    +0.004 A 
ATOM     15  C   UNL     1       4.188  -2.338  28.383  0.00  0.00    +0.000 A 
ATOM     16  C   UNL     1       3.219  -1.773  27.555  0.00  0.00    +0.000 A 
ATOM     17  C   UNL     1       2.473  -2.582  26.700  0.00  0.00    +0.000 A 
ATOM     18  C   UNL     1       2.698  -3.960  26.676  0.00  0.00    +0.004 A 
ENDBRANCH  12  13
ENDBRANCH   6  12
ENDBRANCH   2   6
ENDBRANCH   1   4
BRANCH   1  19
ATOM     19  C   UNL     1       7.681  -4.012  23.338  0.00  0.00    +0.099 C 
BRANCH  19  20
ATOM     20  C   UNL     1       6.632  -4.577  22.387  0.00  0.00    +0.240 C 
ATOM     21  N   UNL     1       6.439  -5.941  22.364  0.00  0.00    -0.197 N 
ATOM     22  H   UNL     1       7.161  -6.606  22.621  0.00  0.00    +0.182 HD
ATOM     23  O   UNL     1       5.935  -3.839  21.682  0.00  0.00    -0.273 OA
BRANCH  21  24
ATOM     24  O   UNL     1       5.559  -6.393  21.347  0.00  0.00    -0.295 OA
ATOM     25  H   UNL     1       5.849  -5.877  20.560  0.00  0.00    +0.241 HD
ENDBRANCH  21  24
ENDBRANCH  19  20
BRANCH  19  26
ATOM     26  C   UNL     1       8.361  -2.822  22.623  0.00  0.00    +0.088 C 
BRANCH  26  27
ATOM     27  S   UNL     1       9.819  -2.255  23.560  0.00  0.00    -0.117 S 
BRANCH  27  28
ATOM     28  C   UNL     1       9.986  -0.587  23.082  0.00  0.00    +0.045 A 
ATOM     29  S   UNL     1      10.457   0.621  24.192  0.00  0.00    -0.090 S 
ATOM     30  C   UNL     1      10.139   1.865  23.064  0.00  0.00    +0.046 A 
ATOM     31  C   UNL     1       9.724   1.369  21.848  0.00  0.00    +0.009 A 
ATOM     32  C   UNL     1       9.645  -0.057  21.855  0.00  0.00    +0.022 A 
ENDBRANCH  27  28
ENDBRANCH  26  27
ENDBRANCH  19  26
ENDBRANCH   1  19
BRANCH   1  33
ATOM     33  C   UNL     1       5.944  -2.719  24.863  0.00  0.00    +0.016 C 
BRANCH  33  34
ATOM     34  C   UNL     1       6.207  -1.297  25.430  0.00  0.00    -0.016 C 
ATOM     35  C   UNL     1       6.457  -0.217  24.383  0.00  0.00    +0.007 C 
ATOM     36  C   UNL     1       7.389  -1.324  26.403  0.00  0.00    +0.007 C 
ENDBRANCH  33  34
ENDBRANCH   1  33
TORSDOF 13
ENDMDL
MODEL 2
REMARK VINA RESULT:      -6.1      3.487      7.420
REMARK  Name = 
REMARK  16 active torsions:
REMARK  status: ('A' for Active; 'I' for Inactive)
REMARK    1  A    between atoms: C_2  and  C_3
REMARK    2  A    between atoms: C_2  and  N_10
REMARK    3  A    between atoms: C_2  and  C_32
REMARK    4  A    between atoms: C_3  and  C_4
REMARK    5  A    between atoms: C_11  and  C_13
REMARK    6  A    between atoms: C_13  and  C_15
REMARK    7  A    between atoms: C_13  and  C_19
REMARK    8  A    between atoms: C_15  and  C_16
REMARK    9  A    between atoms: C_16  and  C_17
REMARK   10  A    between atoms: C_16  and  C_18
REMARK   11  A    between atoms: C_19  and  C_21
REMARK   12  A    between atoms: C_19  and  C_28
REMARK   13  A    between atoms: C_21  and  S_22
REMARK   14  A    between atoms: S_22  and  C_23
REMARK   15  A    between atoms: N_30  and  O_31
REMARK   16  A    between atoms: N_34  and  C_35
REMARK                            x       y       z     vdW  Elec       q    Type
REMARK                         _______ _______ _______ _____ _____    ______ ____
ROOT
ATOM      1  C   UNL     1       6.596  -2.399  23.401  0.00  0.00    +0.088 C 
ENDROOT
BRANCH   1   4
ATOM      2  N   UNL     1       6.333   0.010  23.845  0.00  0.00    -0.303 N 
ATOM      3  H   UNL     1       6.817   0.137  22.966  0.00  0.00    +0.149 HD
ATOM      4  C   UNL     1       5.908  -1.254  24.150  0.00  0.00    +0.217 C 
ATOM      5  O   UNL     1       5.034  -1.508  24.973  0.00  0.00    -0.275 OA
BRANCH   2   6
ATOM      6  C   UNL     1       5.922   1.258  24.519  0.00  0.00    +0.163 C 
BRANCH   6   7
ATOM      7  C   UNL     1       5.510   2.212  23.355  0.00  0.00    +0.233 C 
ATOM      8  N   UNL     1       4.225   2.717  23.461  0.00  0.00    -0.317 N 
ATOM      9  H   UNL     1       3.674   2.507  24.283  0.00  0.00    +0.148 HD
ATOM     10  C   UNL     1       3.708   3.700  22.531  0.00  0.00    +0.128 C 
ATOM     11  O   UNL     1       6.207   2.406  22.362  0.00  0.00    -0.274 OA
ENDBRANCH   6   7
BRANCH   6  12
ATOM     12  C   UNL     1       6.996   1.921  25.390  0.00  0.00    +0.067 C 
BRANCH  12  13
ATOM     13  C   UNL     1       8.407   1.591  24.954  0.00  0.00    -0.045 A 
ATOM     14  C   UNL     1       9.074   2.402  24.028  0.00  0.00    +0.004 A 
ATOM     15  C   UNL     1      10.377   2.092  23.635  0.00  0.00    +0.000 A 
ATOM     16  C   UNL     1      11.020   0.973  24.162  0.00  0.00    +0.000 A 
ATOM     17  C   UNL     1      10.366   0.165  25.090  0.00  0.00    +0.000 A 
ATOM     18  C   UNL     1       9.065   0.479  25.489  0.00  0.00    +0.004 A 
ENDBRANCH  12  13
ENDBRANCH   6  12
ENDBRANCH   2   6
ENDBRANCH   1   4
BRANCH   1  19
ATOM     19  C   UNL     1       7.803  -3.045  24.130  0.00  0.00    +0.099 C 
BRANCH  19  20
ATOM     20  C   UNL     1       9.123  -2.679  23.458  0.00  0.00    +0.240 C 
ATOM     21  N   UNL     1       9.088  -1.835  22.369  0.00  0.00    -0.197 N 
ATOM     22  H   UNL     1       8.280  -1.749  21.762  0.00  0.00    +0.182 HD
ATOM     23  O   UNL     1      10.204  -3.086  23.896  0.00  0.00    -0.273 OA
BRANCH  21  24
ATOM     24  O   UNL     1      10.336  -1.671  21.715  0.00  0.00    -0.295 OA
ATOM     25  H   UNL     1      10.233  -0.805  21.258  0.00  0.00    +0.241 HD
ENDBRANCH  21  24
ENDBRANCH  19  20
BRANCH  19  26
ATOM     26  C   UNL     1       7.964  -2.778  25.644  0.00  0.00    +0.088 C 
BRANCH  26  27
ATOM     27  S   UNL     1       8.056  -4.346  26.569  0.00  0.00    -0.117 S 
BRANCH  27  28
ATOM     28  C   UNL     1       6.389  -4.833  26.710  0.00  0.00    +0.045 A 
ATOM     29  S   UNL     1       5.267  -3.936  27.632  0.00  0.00    -0.090 S 
ATOM     30  C   UNL     1       4.070  -5.143  27.461  0.00  0.00    +0.046 A 
ATOM     31  C   UNL     1       4.499  -6.192  26.678  0.00  0.00    +0.009 A 
ATOM     32  C   UNL     1       5.843  -6.007  26.232  0.00  0.00    +0.022 A 
ENDBRANCH  27  28
ENDBRANCH  26  27
ENDBRANCH  19  26
ENDBRANCH   1  19
BRANCH   1  33
ATOM     33  C   UNL     1       5.530  -3.381  22.812  0.00  0.00    +0.016 C 
BRANCH  33  34
ATOM     34  C   UNL     1       5.801  -4.908  22.736  0.00  0.00    -0.016 C 
ATOM     35  C   UNL     1       6.531  -5.377  21.482  0.00  0.00    +0.007 C 
ATOM     36  C   UNL     1       4.488  -5.687  22.862  0.00  0.00    +0.007 C 
ENDBRANCH  33  34
ENDBRANCH   1  33
TORSDOF 13
ENDMDL
MODEL 3
REMARK VINA RESULT:      -6.0      3.156      7.086
REMARK  Name = 
REMARK  16 active torsions:
REMARK  status: ('A' for Active; 'I' for Inactive)
REMARK    1  A    between atoms: C_2  and  C_3
REMARK    2  A    between atoms: C_2  and  N_10
REMARK    3  A    between atoms: C_2  and  C_32
REMARK    4  A    between atoms: C_3  and  C_4
REMARK    5  A    between atoms: C_11  and  C_13
REMARK    6  A    between atoms: C_13  and  C_15
REMARK    7  A    between atoms: C_13  and  C_19
REMARK    8  A    between atoms: C_15  and  C_16
REMARK    9  A    between atoms: C_16  and  C_17
REMARK   10  A    between atoms: C_16  and  C_18
REMARK   11  A    between atoms: C_19  and  C_21
REMARK   12  A    between atoms: C_19  and  C_28
REMARK   13  A    between atoms: C_21  and  S_22
REMARK   14  A    between atoms: S_22  and  C_23
REMARK   15  A    between atoms: N_30  and  O_31
REMARK   16  A    between atoms: N_34  and  C_35
REMARK                            x       y       z     vdW  Elec       q    Type
REMARK                         _______ _______ _______ _____ _____    ______ ____
ROOT
ATOM      1  C   UNL     1       8.574  -3.242  25.494  0.00  0.00    +0.088 C 
ENDROOT
BRANCH   1   4
ATOM      2  N   UNL     1       7.006  -1.342  25.500  0.00  0.00    -0.303 N 
ATOM      3  H   UNL     1       6.358  -1.986  25.069  0.00  0.00    +0.149 HD
ATOM      4  C   UNL     1       8.159  -1.864  26.019  0.00  0.00    +0.217 C 
ATOM      5  O   UNL     1       8.859  -1.298  26.853  0.00  0.00    -0.275 OA
BRANCH   2   6
ATOM      6  C   UNL     1       6.472   0.013  25.746  0.00  0.00    +0.163 C 
BRANCH   6   7
ATOM      7  C   UNL     1       5.097  -0.231  26.442  0.00  0.00    +0.233 C 
ATOM      8  N   UNL     1       5.070  -1.336  27.277  0.00  0.00    -0.317 N 
ATOM      9  H   UNL     1       5.920  -1.860  27.438  0.00  0.00    +0.148 HD
ATOM     10  C   UNL     1       3.913  -1.656  28.088  0.00  0.00    +0.128 C 
ATOM     11  O   UNL     1       4.085   0.416  26.185  0.00  0.00    -0.274 OA
ENDBRANCH   6   7
BRANCH   6  12
ATOM     12  C   UNL     1       6.284   0.884  24.498  0.00  0.00    +0.067 C 
BRANCH  12  13
ATOM     13  C   UNL     1       7.591   1.298  23.856  0.00  0.00    -0.045 A 
ATOM     14  C   UNL     1       7.691   1.425  22.465  0.00  0.00    +0.004 A 
ATOM     15  C   UNL     1       8.899   1.811  21.882  0.00  0.00    +0.000 A 
ATOM     16  C   UNL     1      10.011   2.072  22.681  0.00  0.00    +0.000 A 
ATOM     17  C   UNL     1       9.917   1.956  24.067  0.00  0.00    +0.000 A 
ATOM     18  C   UNL     1       8.707   1.577  24.652  0.00  0.00    +0.004 A 
ENDBRANCH  12  13
ENDBRANCH   6  12
ENDBRANCH   2   6
ENDBRANCH   1   4
BRANCH   1  19
ATOM     19  C   UNL     1       7.446  -4.305  25.441  0.00  0.00    +0.099 C 
BRANCH  19  20
ATOM     20  C   UNL     1       7.103  -4.828  26.832  0.00  0.00    +0.240 C 
ATOM     21  N   UNL     1       7.735  -5.971  27.273  0.00  0.00    -0.197 N 
ATOM     22  H   UNL     1       8.096  -6.680  26.644  0.00  0.00    +0.182 HD
ATOM     23  O   UNL     1       6.315  -4.229  27.570  0.00  0.00    -0.273 OA
BRANCH  21  24
ATOM     24  O   UNL     1       7.248  -6.472  28.507  0.00  0.00    -0.295 OA
ATOM     25  H   UNL     1       6.284  -6.575  28.337  0.00  0.00    +0.241 HD
ENDBRANCH  21  24
ENDBRANCH  19  20
BRANCH  19  26
ATOM     26  C   UNL     1       6.118  -3.919  24.751  0.00  0.00    +0.088 C 
BRANCH  26  27
ATOM     27  S   UNL     1       5.795  -5.003  23.321  0.00  0.00    -0.117 S 
BRANCH  27  28
ATOM     28  C   UNL     1       4.544  -6.073  23.897  0.00  0.00    +0.045 A 
ATOM     29  S   UNL     1       2.992  -6.102  23.187  0.00  0.00    -0.090 S 
ATOM     30  C   UNL     1       2.387  -7.129  24.410  0.00  0.00    +0.046 A 
ATOM     31  C   UNL     1       3.359  -7.482  25.320  0.00  0.00    +0.009 A 
ATOM     32  C   UNL     1       4.616  -6.877  25.015  0.00  0.00    +0.022 A 
ENDBRANCH  27  28
ENDBRANCH  26  27
ENDBRANCH  19  26
ENDBRANCH   1  19
BRANCH   1  33
ATOM     33  C   UNL     1       9.453  -3.092  24.209  0.00  0.00    +0.016 C 
BRANCH  33  34
ATOM     34  C   UNL     1       9.216  -1.932  23.205  0.00  0.00    -0.016 C 
ATOM     35  C   UNL     1       8.151  -2.196  22.146  0.00  0.00    +0.007 C 
ATOM     36  C   UNL     1      10.526  -1.560  22.505  0.00  0.00    +0.007 C 
ENDBRANCH  33  34
ENDBRANCH   1  33
TORSDOF 13
ENDMDL
MODEL 4
REMARK VINA RESULT:      -6.0      3.656      7.235
REMARK  Name = 
REMARK  16 active torsions:
REMARK  status: ('A' for Active; 'I' for Inactive)
REMARK    1  A    between atoms: C_2  and  C_3
REMARK    2  A    between atoms: C_2  and  N_10
REMARK    3  A    between atoms: C_2  and  C_32
REMARK    4  A    between atoms: C_3  and  C_4
REMARK    5  A    between atoms: C_11  and  C_13
REMARK    6  A    between atoms: C_13  and  C_15
REMARK    7  A    between atoms: C_13  and  C_19
REMARK    8  A    between atoms: C_15  and  C_16
REMARK    9  A    between atoms: C_16  and  C_17
REMARK   10  A    between atoms: C_16  and  C_18
REMARK   11  A    between atoms: C_19  and  C_21
REMARK   12  A    between atoms: C_19  and  C_28
REMARK   13  A    between atoms: C_21  and  S_22
REMARK   14  A    between atoms: S_22  and  C_23
REMARK   15  A    between atoms: N_30  and  O_31
REMARK   16  A    between atoms: N_34  and  C_35
REMARK                            x       y       z     vdW  Elec       q    Type
REMARK                         _______ _______ _______ _____ _____    ______ ____
ROOT
ATOM      1  C   UNL     1       8.602  -1.634  25.842  0.00  0.00    +0.088 C 
ENDROOT
BRANCH   1   4
ATOM      2  N   UNL     1       7.368   0.487  25.625  0.00  0.00    -0.303 N 
ATOM      3  H   UNL     1       7.171   0.177  24.684  0.00  0.00    +0.149 HD
ATOM      4  C   UNL     1       7.916  -0.425  26.485  0.00  0.00    +0.217 C 
ATOM      5  O   UNL     1       7.892  -0.322  27.707  0.00  0.00    -0.275 OA
BRANCH   2   6
ATOM      6  C   UNL     1       6.774   1.788  25.993  0.00  0.00    +0.163 C 
BRANCH   6   7
ATOM      7  C   UNL     1       5.303   1.703  25.477  0.00  0.00    +0.233 C 
ATOM      8  N   UNL     1       4.805   2.897  24.981  0.00  0.00    -0.317 N 
ATOM      9  H   UNL     1       5.413   3.702  24.918  0.00  0.00    +0.148 HD
ATOM     10  C   UNL     1       3.498   2.984  24.363  0.00  0.00    +0.128 C 
ATOM     11  O   UNL     1       4.597   0.707  25.609  0.00  0.00    -0.274 OA
ENDBRANCH   6   7
BRANCH   6  12
ATOM     12  C   UNL     1       7.469   3.021  25.403  0.00  0.00    +0.067 C 
BRANCH  12  13
ATOM     13  C   UNL     1       8.375   2.694  24.235  0.00  0.00    -0.045 A 
ATOM     14  C   UNL     1       9.742   2.470  24.436  0.00  0.00    +0.004 A 
ATOM     15  C   UNL     1      10.569   2.167  23.354  0.00  0.00    +0.000 A 
ATOM     16  C   UNL     1      10.038   2.085  22.068  0.00  0.00    +0.000 A 
ATOM     17  C   UNL     1       8.676   2.298  21.860  0.00  0.00    +0.000 A 
ATOM     18  C   UNL     1       7.847   2.595  22.944  0.00  0.00    +0.004 A 
ENDBRANCH  12  13
ENDBRANCH   6  12
ENDBRANCH   2   6
ENDBRANCH   1   4
BRANCH   1  19
ATOM     19  C   UNL     1       7.693  -2.866  25.594  0.00  0.00    +0.099 C 
BRANCH  19  20
ATOM     20  C   UNL     1       8.382  -4.162  26.006  0.00  0.00    +0.240 C 
ATOM     21  N   UNL     1       9.284  -4.728  25.131  0.00  0.00    -0.197 N 
ATOM     22  H   UNL     1       9.246  -4.584  24.128  0.00  0.00    +0.182 HD
ATOM     23  O   UNL     1       8.179  -4.678  27.110  0.00  0.00    -0.273 OA
BRANCH  21  24
ATOM     24  O   UNL     1       9.760  -6.005  25.524  0.00  0.00    -0.295 OA
ATOM     25  H   UNL     1      10.627  -6.069  25.061  0.00  0.00    +0.241 HD
ENDBRANCH  21  24
ENDBRANCH  19  20
BRANCH  19  26
ATOM     26  C   UNL     1       6.284  -2.867  26.230  0.00  0.00    +0.088 C 
BRANCH  26  27
ATOM     27  S   UNL     1       4.999  -2.671  24.952  0.00  0.00    -0.117 S 
BRANCH  27  28
ATOM     28  C   UNL     1       5.383  -3.916  23.794  0.00  0.00    +0.045 A 
ATOM     29  S   UNL     1       5.391  -5.568  24.224  0.00  0.00    -0.090 S 
ATOM     30  C   UNL     1       6.064  -6.017  22.719  0.00  0.00    +0.046 A 
ATOM     31  C   UNL     1       6.239  -4.935  21.885  0.00  0.00    +0.009 A 
ATOM     32  C   UNL     1       5.833  -3.714  22.506  0.00  0.00    +0.022 A 
ENDBRANCH  27  28
ENDBRANCH  26  27
ENDBRANCH  19  26
ENDBRANCH   1  19
BRANCH   1  33
ATOM     33  C   UNL     1       9.499  -1.177  24.645  0.00  0.00    +0.016 C 
BRANCH  33  34
ATOM     34  C   UNL     1       9.252  -1.709  23.208  0.00  0.00    -0.016 C 
ATOM     35  C   UNL     1      10.411  -1.517  22.236  0.00  0.00    +0.007 C 
ATOM     36  C   UNL     1       7.997  -1.065  22.612  0.00  0.00    +0.007 C 
ENDBRANCH  33  34
ENDBRANCH   1  33
TORSDOF 13
ENDMDL
MODEL 5
REMARK VINA RESULT:      -5.9      3.142      7.276
REMARK  Name = 
REMARK  16 active torsions:
REMARK  status: ('A' for Active; 'I' for Inactive)
REMARK    1  A    between atoms: C_2  and  C_3
REMARK    2  A    between atoms: C_2  and  N_10
REMARK    3  A    between atoms: C_2  and  C_32
REMARK    4  A    between atoms: C_3  and  C_4
REMARK    5  A    between atoms: C_11  and  C_13
REMARK    6  A    between atoms: C_13  and  C_15
REMARK    7  A    between atoms: C_13  and  C_19
REMARK    8  A    between atoms: C_15  and  C_16
REMARK    9  A    between atoms: C_16  and  C_17
REMARK   10  A    between atoms: C_16  and  C_18
REMARK   11  A    between atoms: C_19  and  C_21
REMARK   12  A    between atoms: C_19  and  C_28
REMARK   13  A    between atoms: C_21  and  S_22
REMARK   14  A    between atoms: S_22  and  C_23
REMARK   15  A    between atoms: N_30  and  O_31
REMARK   16  A    between atoms: N_34  and  C_35
REMARK                            x       y       z     vdW  Elec       q    Type
REMARK                         _______ _______ _______ _____ _____    ______ ____
ROOT
ATOM      1  C   UNL     1       7.330  -4.568  25.357  0.00  0.00    +0.088 C 
ENDROOT
BRANCH   1   4
ATOM      2  N   UNL     1       7.834  -2.275  26.102  0.00  0.00    -0.303 N 
ATOM      3  H   UNL     1       6.976  -2.024  25.629  0.00  0.00    +0.149 HD
ATOM      4  C   UNL     1       8.088  -3.607  26.277  0.00  0.00    +0.217 C 
ATOM      5  O   UNL     1       8.875  -4.057  27.105  0.00  0.00    -0.275 OA
BRANCH   2   6
ATOM      6  C   UNL     1       8.529  -1.157  26.769  0.00  0.00    +0.163 C 
BRANCH   6   7
ATOM      7  C   UNL     1       7.381  -0.216  27.251  0.00  0.00    +0.233 C 
ATOM      8  N   UNL     1       7.769   0.714  28.203  0.00  0.00    -0.317 N 
ATOM      9  H   UNL     1       8.743   0.776  28.470  0.00  0.00    +0.148 HD
ATOM     10  C   UNL     1       6.866   1.737  28.687  0.00  0.00    +0.128 C 
ATOM     11  O   UNL     1       6.208  -0.357  26.919  0.00  0.00    -0.274 OA
ENDBRANCH   6   7
BRANCH   6  12
ATOM     12  C   UNL     1       9.517  -0.377  25.893  0.00  0.00    +0.067 C 
BRANCH  12  13
ATOM     13  C   UNL     1       9.322  -0.621  24.412  0.00  0.00    -0.045 A 
ATOM     14  C   UNL     1      10.159  -1.506  23.720  0.00  0.00    +0.004 A 
ATOM     15  C   UNL     1       9.970  -1.727  22.355  0.00  0.00    +0.000 A 
ATOM     16  C   UNL     1       8.947  -1.069  21.674  0.00  0.00    +0.000 A 
ATOM     17  C   UNL     1       8.105  -0.193  22.357  0.00  0.00    +0.000 A 
ATOM     18  C   UNL     1       8.289   0.024  23.724  0.00  0.00    +0.004 A 
ENDBRANCH  12  13
ENDBRANCH   6  12
ENDBRANCH   2   6
ENDBRANCH   1   4
BRANCH   1  19
ATOM     19  C   UNL     1       5.870  -4.884  25.776  0.00  0.00    +0.099 C 
BRANCH  19  20
ATOM     20  C   UNL     1       5.806  -6.075  26.727  0.00  0.00    +0.240 C 
ATOM     21  N   UNL     1       6.434  -5.968  27.949  0.00  0.00    -0.197 N 
ATOM     22  H   UNL     1       7.224  -5.353  28.113  0.00  0.00    +0.182 HD
ATOM     23  O   UNL     1       5.174  -7.096  26.439  0.00  0.00    -0.273 OA
BRANCH  21  24
ATOM     24  O   UNL     1       6.456  -7.169  28.704  0.00  0.00    -0.295 OA
ATOM     25  H   UNL     1       6.110  -7.835  28.067  0.00  0.00    +0.241 HD
ENDBRANCH  21  24
ENDBRANCH  19  20
BRANCH  19  26
ATOM     26  C   UNL     1       5.033  -3.745  26.402  0.00  0.00    +0.088 C 
BRANCH  26  27
ATOM     27  S   UNL     1       3.815  -3.107  25.205  0.00  0.00    -0.117 S 
BRANCH  27  28
ATOM     28  C   UNL     1       2.963  -4.538  24.690  0.00  0.00    +0.045 A 
ATOM     29  S   UNL     1       2.031  -5.467  25.778  0.00  0.00    -0.090 S 
ATOM     30  C   UNL     1       1.796  -6.698  24.618  0.00  0.00    +0.046 A 
ATOM     31  C   UNL     1       2.378  -6.390  23.408  0.00  0.00    +0.009 A 
ATOM     32  C   UNL     1       3.047  -5.128  23.447  0.00  0.00    +0.022 A 
ENDBRANCH  27  28
ENDBRANCH  26  27
ENDBRANCH  19  26
ENDBRANCH   1  19
BRANCH   1  33
ATOM     33  C   UNL     1       7.557  -4.179  23.859  0.00  0.00    +0.016 C 
BRANCH  33  34
ATOM     34  C   UNL     1       6.526  -4.566  22.764  0.00  0.00    -0.016 C 
ATOM     35  C   UNL     1       7.032  -5.549  21.714  0.00  0.00    +0.007 C 
ATOM     36  C   UNL     1       6.009  -3.311  22.055  0.00  0.00    +0.007 C 
ENDBRANCH  33  34
ENDBRANCH   1  33
TORSDOF 13
ENDMDL
MODEL 6
REMARK VINA RESULT:      -5.8      3.519      7.368
REMARK  Name = 
REMARK  16 active torsions:
REMARK  status: ('A' for Active; 'I' for Inactive)
REMARK    1  A    between atoms: C_2  and  C_3
REMARK    2  A    between atoms: C_2  and  N_10
REMARK    3  A    between atoms: C_2  and  C_32
REMARK    4  A    between atoms: C_3  and  C_4
REMARK    5  A    between atoms: C_11  and  C_13
REMARK    6  A    between atoms: C_13  and  C_15
REMARK    7  A    between atoms: C_13  and  C_19
REMARK    8  A    between atoms: C_15  and  C_16
REMARK    9  A    between atoms: C_16  and  C_17
REMARK   10  A    between atoms: C_16  and  C_18
REMARK   11  A    between atoms: C_19  and  C_21
REMARK   12  A    between atoms: C_19  and  C_28
REMARK   13  A    between atoms: C_21  and  S_22
REMARK   14  A    between atoms: S_22  and  C_23
REMARK   15  A    between atoms: N_30  and  O_31
REMARK   16  A    between atoms: N_34  and  C_35
REMARK                            x       y       z     vdW  Elec       q    Type
REMARK                         _______ _______ _______ _____ _____    ______ ____
ROOT
ATOM      1  C   UNL     1       6.281  -0.004  24.830  0.00  0.00    +0.088 C 
ENDROOT
BRANCH   1   4
ATOM      2  N   UNL     1       8.033  -1.693  24.454  0.00  0.00    -0.303 N 
ATOM      3  H   UNL     1       8.093  -1.732  25.462  0.00  0.00    +0.149 HD
ATOM      4  C   UNL     1       6.977  -1.013  23.912  0.00  0.00    +0.217 C 
ATOM      5  O   UNL     1       6.576  -1.162  22.762  0.00  0.00    -0.275 OA
BRANCH   2   6
ATOM      6  C   UNL     1       8.939  -2.614  23.738  0.00  0.00    +0.163 C 
BRANCH   6   7
ATOM      7  C   UNL     1       9.145  -3.804  24.726  0.00  0.00    +0.233 C 
ATOM      8  N   UNL     1       8.225  -3.851  25.760  0.00  0.00    -0.317 N 
ATOM      9  H   UNL     1       7.464  -3.185  25.780  0.00  0.00    +0.148 HD
ATOM     10  C   UNL     1       8.196  -4.943  26.711  0.00  0.00    +0.128 C 
ATOM     11  O   UNL     1      10.108  -4.565  24.675  0.00  0.00    -0.274 OA
ENDBRANCH   6   7
BRANCH   6  12
ATOM     12  C   UNL     1      10.295  -2.023  23.334  0.00  0.00    +0.067 C 
BRANCH  12  13
ATOM     13  C   UNL     1      10.262  -0.520  23.152  0.00  0.00    -0.045 A 
ATOM     14  C   UNL     1       9.833   0.040  21.943  0.00  0.00    +0.004 A 
ATOM     15  C   UNL     1       9.802   1.426  21.785  0.00  0.00    +0.000 A 
ATOM     16  C   UNL     1      10.197   2.259  22.831  0.00  0.00    +0.000 A 
ATOM     17  C   UNL     1      10.618   1.710  24.040  0.00  0.00    +0.000 A 
ATOM     18  C   UNL     1      10.642   0.323  24.201  0.00  0.00    +0.004 A 
ENDBRANCH  12  13
ENDBRANCH   6  12
ENDBRANCH   2   6
ENDBRANCH   1   4
BRANCH   1  19
ATOM     19  C   UNL     1       6.027  -0.484  26.283  0.00  0.00    +0.099 C 
BRANCH  19  20
ATOM     20  C   UNL     1       6.307   0.622  27.295  0.00  0.00    +0.240 C 
ATOM     21  N   UNL     1       7.557   0.676  27.874  0.00  0.00    -0.197 N 
ATOM     22  H   UNL     1       8.152  -0.139  27.980  0.00  0.00    +0.182 HD
ATOM     23  O   UNL     1       5.460   1.480  27.564  0.00  0.00    -0.273 OA
BRANCH  21  24
ATOM     24  O   UNL     1       7.682   1.636  28.911  0.00  0.00    -0.295 OA
ATOM     25  H   UNL     1       6.747   1.881  29.097  0.00  0.00    +0.241 HD
ENDBRANCH  21  24
ENDBRANCH  19  20
BRANCH  19  26
ATOM     26  C   UNL     1       4.641  -1.079  26.619  0.00  0.00    +0.088 C 
BRANCH  26  27
ATOM     27  S   UNL     1       4.764  -2.874  26.915  0.00  0.00    -0.117 S 
BRANCH  27  28
ATOM     28  C   UNL     1       4.147  -3.572  25.443  0.00  0.00    +0.045 A 
ATOM     29  S   UNL     1       2.511  -4.036  25.287  0.00  0.00    -0.090 S 
ATOM     30  C   UNL     1       2.806  -4.790  23.783  0.00  0.00    +0.046 A 
ATOM     31  C   UNL     1       4.117  -4.653  23.382  0.00  0.00    +0.009 A 
ATOM     32  C   UNL     1       4.894  -3.936  24.342  0.00  0.00    +0.022 A 
ENDBRANCH  27  28
ENDBRANCH  26  27
ENDBRANCH  19  26
ENDBRANCH   1  19
BRANCH   1  33
ATOM     33  C   UNL     1       6.922   1.413  24.666  0.00  0.00    +0.016 C 
BRANCH  33  34
ATOM     34  C   UNL     1       6.153   2.567  23.967  0.00  0.00    -0.016 C 
ATOM     35  C   UNL     1       4.654   2.607  24.239  0.00  0.00    +0.007 C 
ATOM     36  C   UNL     1       6.379   2.515  22.453  0.00  0.00    +0.007 C 
ENDBRANCH  33  34
ENDBRANCH   1  33
TORSDOF 13
ENDMDL
MODEL 7
REMARK VINA RESULT:      -5.7      3.337      7.250
REMARK  Name = 
REMARK  16 active torsions:
REMARK  status: ('A' for Active; 'I' for Inactive)
REMARK    1  A    between atoms: C_2  and  C_3
REMARK    2  A    between atoms: C_2  and  N_10
REMARK    3  A    between atoms: C_2  and  C_32
REMARK    4  A    between atoms: C_3  and  C_4
REMARK    5  A    between atoms: C_11  and  C_13
REMARK    6  A    between atoms: C_13  and  C_15
REMARK    7  A    between atoms: C_13  and  C_19
REMARK    8  A    between atoms: C_15  and  C_16
REMARK    9  A    between atoms: C_16  and  C_17
REMARK   10  A    between atoms: C_16  and  C_18
REMARK   11  A    between atoms: C_19  and  C_21
REMARK   12  A    between atoms: C_19  and  C_28
REMARK   13  A    between atoms: C_21  and  S_22
REMARK   14  A    between atoms: S_22  and  C_23
REMARK   15  A    between atoms: N_30  and  O_31
REMARK   16  A    between atoms: N_34  and  C_35
REMARK                            x       y       z     vdW  Elec       q    Type
REMARK                         _______ _______ _______ _____ _____    ______ ____
ROOT
ATOM      1  C   UNL     1       5.945  -0.836  25.531  0.00  0.00    +0.088 C 
ENDROOT
BRANCH   1   4
ATOM      2  N   UNL     1       7.288  -1.611  23.617  0.00  0.00    -0.303 N 
ATOM      3  H   UNL     1       6.635  -1.083  23.055  0.00  0.00    +0.149 HD
ATOM      4  C   UNL     1       7.242  -1.427  24.972  0.00  0.00    +0.217 C 
ATOM      5  O   UNL     1       8.158  -1.710  25.738  0.00  0.00    -0.275 OA
BRANCH   2   6
ATOM      6  C   UNL     1       8.366  -2.280  22.862  0.00  0.00    +0.163 C 
BRANCH   6   7
ATOM      7  C   UNL     1       8.161  -3.799  23.154  0.00  0.00    +0.233 C 
ATOM      8  N   UNL     1       7.071  -4.361  22.508  0.00  0.00    -0.317 N 
ATOM      9  H   UNL     1       6.534  -3.801  21.860  0.00  0.00    +0.148 HD
ATOM     10  C   UNL     1       6.789  -5.780  22.576  0.00  0.00    +0.128 C 
ATOM     11  O   UNL     1       8.823  -4.424  23.978  0.00  0.00    -0.274 OA
ENDBRANCH   6   7
BRANCH   6  12
ATOM     12  C   UNL     1       9.792  -1.859  23.236  0.00  0.00    +0.067 C 
BRANCH  12  13
ATOM     13  C   UNL     1      10.024  -0.368  23.120  0.00  0.00    -0.045 A 
ATOM     14  C   UNL     1       9.751   0.304  21.922  0.00  0.00    +0.004 A 
ATOM     15  C   UNL     1       9.965   1.680  21.826  0.00  0.00    +0.000 A 
ATOM     16  C   UNL     1      10.450   2.392  22.922  0.00  0.00    +0.000 A 
ATOM     17  C   UNL     1      10.717   1.732  24.120  0.00  0.00    +0.000 A 
ATOM     18  C   UNL     1      10.497   0.357  24.219  0.00  0.00    +0.004 A 
ENDBRANCH  12  13
ENDBRANCH   6  12
ENDBRANCH   2   6
ENDBRANCH   1   4
BRANCH   1  19
ATOM     19  C   UNL     1       5.739  -1.001  27.060  0.00  0.00    +0.099 C 
BRANCH  19  20
ATOM     20  C   UNL     1       6.172   0.248  27.821  0.00  0.00    +0.240 C 
ATOM     21  N   UNL     1       7.520   0.462  28.009  0.00  0.00    -0.197 N 
ATOM     22  H   UNL     1       8.202  -0.289  28.030  0.00  0.00    +0.182 HD
ATOM     23  O   UNL     1       5.348   1.075  28.225  0.00  0.00    -0.273 OA
BRANCH  21  24
ATOM     24  O   UNL     1       7.828   1.559  28.855  0.00  0.00    -0.295 OA
ATOM     25  H   UNL     1       8.811   1.531  28.903  0.00  0.00    +0.241 HD
ENDBRANCH  21  24
ENDBRANCH  19  20
BRANCH  19  26
ATOM     26  C   UNL     1       4.329  -1.385  27.565  0.00  0.00    +0.088 C 
BRANCH  26  27
ATOM     27  S   UNL     1       3.652  -2.771  26.592  0.00  0.00    -0.117 S 
BRANCH  27  28
ATOM     28  C   UNL     1       4.803  -4.052  26.853  0.00  0.00    +0.045 A 
ATOM     29  S   UNL     1       5.146  -4.645  28.417  0.00  0.00    -0.090 S 
ATOM     30  C   UNL     1       6.441  -5.596  27.837  0.00  0.00    +0.046 A 
ATOM     31  C   UNL     1       6.584  -5.501  26.470  0.00  0.00    +0.009 A 
ATOM     32  C   UNL     1       5.625  -4.611  25.897  0.00  0.00    +0.022 A 
ENDBRANCH  27  28
ENDBRANCH  26  27
ENDBRANCH  19  26
ENDBRANCH   1  19
BRANCH   1  33
ATOM     33  C   UNL     1       5.702   0.594  24.945  0.00  0.00    +0.016 C 
BRANCH  33  34
ATOM     34  C   UNL     1       6.869   1.426  24.349  0.00  0.00    -0.016 C 
ATOM     35  C   UNL     1       7.293   2.636  25.174  0.00  0.00    +0.007 C 
ATOM     36  C   UNL     1       6.518   1.894  22.933  0.00  0.00    +0.007 C 
ENDBRANCH  33  34
ENDBRANCH   1  33
TORSDOF 13
ENDMDL
MODEL 8
REMARK VINA RESULT:      -5.7      3.488      7.716
REMARK  Name = 
REMARK  16 active torsions:
REMARK  status: ('A' for Active; 'I' for Inactive)
REMARK    1  A    between atoms: C_2  and  C_3
REMARK    2  A    between atoms: C_2  and  N_10
REMARK    3  A    between atoms: C_2  and  C_32
REMARK    4  A    between atoms: C_3  and  C_4
REMARK    5  A    between atoms: C_11  and  C_13
REMARK    6  A    between atoms: C_13  and  C_15
REMARK    7  A    between atoms: C_13  and  C_19
REMARK    8  A    between atoms: C_15  and  C_16
REMARK    9  A    between atoms: C_16  and  C_17
REMARK   10  A    between atoms: C_16  and  C_18
REMARK   11  A    between atoms: C_19  and  C_21
REMARK   12  A    between atoms: C_19  and  C_28
REMARK   13  A    between atoms: C_21  and  S_22
REMARK   14  A    between atoms: S_22  and  C_23
REMARK   15  A    between atoms: N_30  and  O_31
REMARK   16  A    between atoms: N_34  and  C_35
REMARK                            x       y       z     vdW  Elec       q    Type
REMARK                         _______ _______ _______ _____ _____    ______ ____
ROOT
ATOM      1  C   UNL     1       7.956  -2.691  23.670  0.00  0.00    +0.088 C 
ENDROOT
BRANCH   1   4
ATOM      2  N   UNL     1       6.899  -0.515  24.134  0.00  0.00    -0.303 N 
ATOM      3  H   UNL     1       6.691  -0.501  23.145  0.00  0.00    +0.149 HD
ATOM      4  C   UNL     1       7.359  -1.689  24.663  0.00  0.00    +0.217 C 
ATOM      5  O   UNL     1       7.325  -1.969  25.858  0.00  0.00    -0.275 OA
BRANCH   2   6
ATOM      6  C   UNL     1       6.405   0.651  24.893  0.00  0.00    +0.163 C 
BRANCH   6   7
ATOM      7  C   UNL     1       5.874   1.631  23.800  0.00  0.00    +0.233 C 
ATOM      8  N   UNL     1       4.842   2.452  24.225  0.00  0.00    -0.317 N 
ATOM      9  H   UNL     1       4.548   2.423  25.192  0.00  0.00    +0.148 HD
ATOM     10  C   UNL     1       4.297   3.496  23.381  0.00  0.00    +0.128 C 
ATOM     11  O   UNL     1       6.244   1.602  22.630  0.00  0.00    -0.274 OA
ENDBRANCH   6   7
BRANCH   6  12
ATOM     12  C   UNL     1       7.445   1.355  25.772  0.00  0.00    +0.067 C 
BRANCH  12  13
ATOM     13  C   UNL     1       8.625   1.890  24.989  0.00  0.00    -0.045 A 
ATOM     14  C   UNL     1       8.595   3.182  24.451  0.00  0.00    +0.004 A 
ATOM     15  C   UNL     1       9.688   3.669  23.733  0.00  0.00    +0.000 A 
ATOM     16  C   UNL     1      10.817   2.870  23.550  0.00  0.00    +0.000 A 
ATOM     17  C   UNL     1      10.858   1.586  24.090  0.00  0.00    +0.000 A 
ATOM     18  C   UNL     1       9.767   1.101  24.814  0.00  0.00    +0.004 A 
ENDBRANCH  12  13
ENDBRANCH   6  12
ENDBRANCH   2   6
ENDBRANCH   1   4
BRANCH   1  19
ATOM     19  C   UNL     1       7.385  -4.131  23.747  0.00  0.00    +0.099 C 
BRANCH  19  20
ATOM     20  C   UNL     1       8.129  -4.974  24.777  0.00  0.00    +0.240 C 
ATOM     21  N   UNL     1       7.516  -5.215  25.989  0.00  0.00    -0.197 N 
ATOM     22  H   UNL     1       6.822  -4.593  26.389  0.00  0.00    +0.182 HD
ATOM     23  O   UNL     1       9.232  -5.470  24.529  0.00  0.00    -0.273 OA
BRANCH  21  24
ATOM     24  O   UNL     1       8.337  -5.873  26.940  0.00  0.00    -0.295 OA
ATOM     25  H   UNL     1       8.915  -5.148  27.271  0.00  0.00    +0.241 HD
ENDBRANCH  21  24
ENDBRANCH  19  20
BRANCH  19  26
ATOM     26  C   UNL     1       5.872  -4.298  24.017  0.00  0.00    +0.088 C 
BRANCH  26  27
ATOM     27  S   UNL     1       5.077  -5.242  22.675  0.00  0.00    -0.117 S 
BRANCH  27  28
ATOM     28  C   UNL     1       3.857  -6.172  23.501  0.00  0.00    +0.045 A 
ATOM     29  S   UNL     1       4.190  -6.997  24.958  0.00  0.00    -0.090 S 
ATOM     30  C   UNL     1       2.674  -7.783  24.929  0.00  0.00    +0.046 A 
ATOM     31  C   UNL     1       1.906  -7.392  23.854  0.00  0.00    +0.009 A 
ATOM     32  C   UNL     1       2.590  -6.447  23.029  0.00  0.00    +0.022 A 
ENDBRANCH  27  28
ENDBRANCH  26  27
ENDBRANCH  19  26
ENDBRANCH   1  19
BRANCH   1  33
ATOM     33  C   UNL     1       8.050  -2.053  22.245  0.00  0.00    +0.016 C 
BRANCH  33  34
ATOM     34  C   UNL     1       9.387  -1.472  21.712  0.00  0.00    -0.016 C 
ATOM     35  C   UNL     1      10.586  -1.645  22.638  0.00  0.00    +0.007 C 
ATOM     36  C   UNL     1       9.227   0.016  21.387  0.00  0.00    +0.007 C 
ENDBRANCH  33  34
ENDBRANCH   1  33
TORSDOF 13
ENDMDL
MODEL 9
REMARK VINA RESULT:      -5.7      3.579      6.826
REMARK  Name = 
REMARK  16 active torsions:
REMARK  status: ('A' for Active; 'I' for Inactive)
REMARK    1  A    between atoms: C_2  and  C_3
REMARK    2  A    between atoms: C_2  and  N_10
REMARK    3  A    between atoms: C_2  and  C_32
REMARK    4  A    between atoms: C_3  and  C_4
REMARK    5  A    between atoms: C_11  and  C_13
REMARK    6  A    between atoms: C_13  and  C_15
REMARK    7  A    between atoms: C_13  and  C_19
REMARK    8  A    between atoms: C_15  and  C_16
REMARK    9  A    between atoms: C_16  and  C_17
REMARK   10  A    between atoms: C_16  and  C_18
REMARK   11  A    between atoms: C_19  and  C_21
REMARK   12  A    between atoms: C_19  and  C_28
REMARK   13  A    between atoms: C_21  and  S_22
REMARK   14  A    between atoms: S_22  and  C_23
REMARK   15  A    between atoms: N_30  and  O_31
REMARK   16  A    between atoms: N_34  and  C_35
REMARK                            x       y       z     vdW  Elec       q    Type
REMARK                         _______ _______ _______ _____ _____    ______ ____
ROOT
ATOM      1  C   UNL     1       8.614  -1.189  24.784  0.00  0.00    +0.088 C 
ENDROOT
BRANCH   1   4
ATOM      2  N   UNL     1       6.888   0.362  25.610  0.00  0.00    -0.303 N 
ATOM      3  H   UNL     1       6.432   0.193  24.724  0.00  0.00    +0.149 HD
ATOM      4  C   UNL     1       7.938  -0.449  25.942  0.00  0.00    +0.217 C 
ATOM      5  O   UNL     1       8.358  -0.602  27.084  0.00  0.00    -0.275 OA
BRANCH   2   6
ATOM      6  C   UNL     1       6.165   1.273  26.520  0.00  0.00    +0.163 C 
BRANCH   6   7
ATOM      7  C   UNL     1       4.936   0.443  27.007  0.00  0.00    +0.233 C 
ATOM      8  N   UNL     1       5.168  -0.297  28.155  0.00  0.00    -0.317 N 
ATOM      9  H   UNL     1       6.055  -0.210  28.633  0.00  0.00    +0.148 HD
ATOM     10  C   UNL     1       4.115  -1.043  28.812  0.00  0.00    +0.128 C 
ATOM     11  O   UNL     1       3.891   0.346  26.369  0.00  0.00    -0.274 OA
ENDBRANCH   6   7
BRANCH   6  12
ATOM     12  C   UNL     1       5.696   2.593  25.897  0.00  0.00    +0.067 C 
BRANCH  12  13
ATOM     13  C   UNL     1       6.739   3.238  25.009  0.00  0.00    -0.045 A 
ATOM     14  C   UNL     1       6.548   3.308  23.624  0.00  0.00    +0.004 A 
ATOM     15  C   UNL     1       7.512   3.908  22.813  0.00  0.00    +0.000 A 
ATOM     16  C   UNL     1       8.670   4.440  23.379  0.00  0.00    +0.000 A 
ATOM     17  C   UNL     1       8.864   4.382  24.758  0.00  0.00    +0.000 A 
ATOM     18  C   UNL     1       7.896   3.788  25.570  0.00  0.00    +0.004 A 
ENDBRANCH  12  13
ENDBRANCH   6  12
ENDBRANCH   2   6
ENDBRANCH   1   4
BRANCH   1  19
ATOM     19  C   UNL     1       8.084  -2.621  24.506  0.00  0.00    +0.099 C 
BRANCH  19  20
ATOM     20  C   UNL     1       9.208  -3.651  24.548  0.00  0.00    +0.240 C 
ATOM     21  N   UNL     1       8.946  -4.881  25.113  0.00  0.00    -0.197 N 
ATOM     22  H   UNL     1       8.231  -5.023  25.818  0.00  0.00    +0.182 HD
ATOM     23  O   UNL     1      10.315  -3.418  24.052  0.00  0.00    -0.273 OA
BRANCH  21  24
ATOM     24  O   UNL     1      10.082  -5.718  25.249  0.00  0.00    -0.295 OA
ATOM     25  H   UNL     1      10.690  -5.379  24.553  0.00  0.00    +0.241 HD
ENDBRANCH  21  24
ENDBRANCH  19  20
BRANCH  19  26
ATOM     26  C   UNL     1       6.934  -3.154  25.391  0.00  0.00    +0.088 C 
BRANCH  26  27
ATOM     27  S   UNL     1       5.350  -3.099  24.491  0.00  0.00    -0.117 S 
BRANCH  27  28
ATOM     28  C   UNL     1       5.604  -4.188  23.154  0.00  0.00    +0.045 A 
ATOM     29  S   UNL     1       5.622  -5.881  23.367  0.00  0.00    -0.090 S 
ATOM     30  C   UNL     1       6.145  -6.138  21.761  0.00  0.00    +0.046 A 
ATOM     31  C   UNL     1       6.261  -4.959  21.059  0.00  0.00    +0.009 A 
ATOM     32  C   UNL     1       5.936  -3.826  21.865  0.00  0.00    +0.022 A 
ENDBRANCH  27  28
ENDBRANCH  26  27
ENDBRANCH  19  26
ENDBRANCH   1  19
BRANCH   1  33
ATOM     33  C   UNL     1       8.756  -0.246  23.544  0.00  0.00    +0.016 C 
BRANCH  33  34
ATOM     34  C   UNL     1      10.119   0.402  23.181  0.00  0.00    -0.016 C 
ATOM     35  C   UNL     1      10.776   1.203  24.299  0.00  0.00    +0.007 C 
ATOM     36  C   UNL     1       9.967   1.304  21.952  0.00  0.00    +0.007 C 
ENDBRANCH  33  34
ENDBRANCH   1  33
TORSDOF 13
ENDMDL
