MODEL 1
REMARK VINA RESULT:      -6.6      0.000      0.000
REMARK  Name = 
REMARK  5 active torsions:
REMARK  status: ('A' for Active; 'I' for Inactive)
REMARK    1  A    between atoms: C_1  and  N_2
REMARK    2  A    between atoms: N_2  and  C_3
REMARK    3  A    between atoms: C_4  and  C_6
REMARK    4  A    between atoms: C_8  and  C_11
REMARK    5  A    between atoms: C_15  and  C_16
REMARK                            x       y       z     vdW  Elec       q    Type
REMARK                         _______ _______ _______ _____ _____    ______ ____
ROOT
ATOM      1  C   UNL     1       8.189  -3.774  26.063  0.00  0.00    +0.102 A 
ATOM      2  C   UNL     1       7.491  -4.599  25.129  0.00  0.00    +0.027 A 
ATOM      3  C   UNL     1       7.364  -5.805  25.794  0.00  0.00    +0.114 A 
ATOM      4  N   UNL     1       7.945  -5.642  27.015  0.00  0.00    -0.284 N 
ATOM      5  H   UNL     1       8.042  -6.324  27.759  0.00  0.00    +0.188 HD
ATOM      6  N   UNL     1       8.430  -4.412  27.218  0.00  0.00    -0.173 NA
ENDROOT
BRANCH   1  11
ATOM      7  C   UNL     1       9.606  -0.610  24.815  0.00  0.00    +0.103 A 
ATOM      8  N   UNL     1       9.066  -0.226  26.028  0.00  0.00    -0.356 N 
ATOM      9  H   UNL     1       9.092   0.728  26.366  0.00  0.00    +0.165 HD
ATOM     10  C   UNL     1       8.429  -1.277  26.628  0.00  0.00    +0.093 A 
ATOM     11  C   UNL     1       8.664  -2.401  25.867  0.00  0.00    +0.021 A 
ATOM     12  C   UNL     1       9.441  -1.988  24.752  0.00  0.00    +0.042 A 
BRANCH   7  15
ATOM     13  C   UNL     1      10.163   1.858  22.017  0.00  0.00    +0.132 C 
ATOM     14  N   UNL     1       9.516   0.835  22.817  0.00  0.00    -0.302 N 
ATOM     15  C   UNL     1      10.213   0.375  23.939  0.00  0.00    +0.262 C 
ATOM     16  O   UNL     1      11.318   0.842  24.222  0.00  0.00    -0.268 OA
ATOM     17  C   UNL     1       8.132   0.516  22.505  0.00  0.00    +0.132 C 
ENDBRANCH   7  15
ENDBRANCH   1  11
BRANCH   2  18
ATOM     18  C   UNL     1       6.956  -4.373  23.791  0.00  0.00    -0.014 A 
ATOM     19  C   UNL     1       7.203  -5.289  22.757  0.00  0.00    +0.008 A 
ATOM     20  C   UNL     1       6.701  -5.071  21.471  0.00  0.00    +0.001 A 
ATOM     21  C   UNL     1       5.956  -3.927  21.197  0.00  0.00    +0.000 A 
ATOM     22  C   UNL     1       5.693  -3.014  22.215  0.00  0.00    +0.001 A 
ATOM     23  C   UNL     1       6.173  -3.246  23.507  0.00  0.00    +0.008 A 
ENDBRANCH   2  18
TORSDOF 3
ENDMDL
MODEL 2
REMARK VINA RESULT:      -6.6      3.836      8.526
REMARK  Name = 
REMARK  5 active torsions:
REMARK  status: ('A' for Active; 'I' for Inactive)
REMARK    1  A    between atoms: C_1  and  N_2
REMARK    2  A    between atoms: N_2  and  C_3
REMARK    3  A    between atoms: C_4  and  C_6
REMARK    4  A    between atoms: C_8  and  C_11
REMARK    5  A    between atoms: C_15  and  C_16
REMARK                            x       y       z     vdW  Elec       q    Type
REMARK                         _______ _______ _______ _____ _____    ______ ____
ROOT
ATOM      1  C   UNL     1       8.512   3.744  23.138  0.00  0.00    +0.102 A 
ATOM      2  C   UNL     1       8.886   5.111  23.313  0.00  0.00    +0.027 A 
ATOM      3  C   UNL     1       7.985   5.797  22.518  0.00  0.00    +0.114 A 
ATOM      4  N   UNL     1       7.168   4.864  21.957  0.00  0.00    -0.284 N 
ATOM      5  H   UNL     1       6.400   5.010  21.312  0.00  0.00    +0.188 HD
ATOM      6  N   UNL     1       7.445   3.611  22.336  0.00  0.00    -0.173 NA
ENDROOT
BRANCH   1  11
ATOM      7  C   UNL     1       9.397   0.427  24.476  0.00  0.00    +0.103 A 
ATOM      8  N   UNL     1      10.633   1.038  24.377  0.00  0.00    -0.356 N 
ATOM      9  H   UNL     1      11.500   0.571  24.616  0.00  0.00    +0.165 HD
ATOM     10  C   UNL     1      10.514   2.285  23.830  0.00  0.00    +0.093 A 
ATOM     11  C   UNL     1       9.171   2.556  23.691  0.00  0.00    +0.021 A 
ATOM     12  C   UNL     1       8.469   1.405  24.139  0.00  0.00    +0.042 A 
BRANCH   7  15
ATOM     13  C   UNL     1       9.424  -3.345  24.487  0.00  0.00    +0.132 C 
ATOM     14  N   UNL     1       9.488  -1.987  23.978  0.00  0.00    -0.302 N 
ATOM     15  C   UNL     1       9.295  -0.956  24.903  0.00  0.00    +0.262 C 
ATOM     16  O   UNL     1       9.096  -1.213  26.092  0.00  0.00    -0.268 OA
ATOM     17  C   UNL     1       9.935  -1.807  22.607  0.00  0.00    +0.132 C 
ENDBRANCH   7  15
ENDBRANCH   1  11
BRANCH   2  18
ATOM     18  C   UNL     1       9.909   5.781  24.108  0.00  0.00    -0.014 A 
ATOM     19  C   UNL     1      11.259   5.732  23.725  0.00  0.00    +0.008 A 
ATOM     20  C   UNL     1      12.243   6.363  24.491  0.00  0.00    +0.001 A 
ATOM     21  C   UNL     1      11.895   7.040  25.657  0.00  0.00    +0.000 A 
ATOM     22  C   UNL     1      10.559   7.106  26.044  0.00  0.00    +0.001 A 
ATOM     23  C   UNL     1       9.571   6.497  25.263  0.00  0.00    +0.008 A 
ENDBRANCH   2  18
TORSDOF 3
ENDMDL
MODEL 3
REMARK VINA RESULT:      -6.4      1.445      1.820
REMARK  Name = 
REMARK  5 active torsions:
REMARK  status: ('A' for Active; 'I' for Inactive)
REMARK    1  A    between atoms: C_1  and  N_2
REMARK    2  A    between atoms: N_2  and  C_3
REMARK    3  A    between atoms: C_4  and  C_6
REMARK    4  A    between atoms: C_8  and  C_11
REMARK    5  A    between atoms: C_15  and  C_16
REMARK                            x       y       z     vdW  Elec       q    Type
REMARK                         _______ _______ _______ _____ _____    ______ ____
ROOT
ATOM      1  C   UNL     1       8.481  -3.744  25.518  0.00  0.00    +0.102 A 
ATOM      2  C   UNL     1       7.678  -4.840  25.081  0.00  0.00    +0.027 A 
ATOM      3  C   UNL     1       7.614  -5.659  26.193  0.00  0.00    +0.114 A 
ATOM      4  N   UNL     1       8.327  -5.042  27.176  0.00  0.00    -0.284 N 
ATOM      5  H   UNL     1       8.500  -5.364  28.121  0.00  0.00    +0.188 HD
ATOM      6  N   UNL     1       8.843  -3.865  26.805  0.00  0.00    -0.173 NA
ENDROOT
BRANCH   1  11
ATOM      7  C   UNL     1       9.237  -0.420  24.119  0.00  0.00    +0.103 A 
ATOM      8  N   UNL     1       9.981  -1.253  23.304  0.00  0.00    -0.356 N 
ATOM      9  H   UNL     1      10.574  -0.909  22.558  0.00  0.00    +0.165 HD
ATOM     10  C   UNL     1       9.874  -2.553  23.714  0.00  0.00    +0.093 A 
ATOM     11  C   UNL     1       8.943  -2.598  24.728  0.00  0.00    +0.021 A 
ATOM     12  C   UNL     1       8.511  -1.263  24.950  0.00  0.00    +0.042 A 
BRANCH   7  15
ATOM     13  C   UNL     1       8.489   3.121  23.054  0.00  0.00    +0.132 C 
ATOM     14  N   UNL     1       8.390   1.674  23.128  0.00  0.00    -0.302 N 
ATOM     15  C   UNL     1       9.308   1.020  23.955  0.00  0.00    +0.262 C 
ATOM     16  O   UNL     1      10.145   1.664  24.592  0.00  0.00    -0.268 OA
ATOM     17  C   UNL     1       7.238   1.049  22.500  0.00  0.00    +0.132 C 
ENDBRANCH   7  15
ENDBRANCH   1  11
BRANCH   2  18
ATOM     18  C   UNL     1       7.000  -5.154  23.828  0.00  0.00    -0.014 A 
ATOM     19  C   UNL     1       5.600  -5.112  23.741  0.00  0.00    +0.008 A 
ATOM     20  C   UNL     1       4.946  -5.422  22.546  0.00  0.00    +0.001 A 
ATOM     21  C   UNL     1       5.683  -5.792  21.423  0.00  0.00    +0.000 A 
ATOM     22  C   UNL     1       7.073  -5.827  21.490  0.00  0.00    +0.001 A 
ATOM     23  C   UNL     1       7.727  -5.491  22.679  0.00  0.00    +0.008 A 
ENDBRANCH   2  18
TORSDOF 3
ENDMDL
MODEL 4
REMARK VINA RESULT:      -6.3      2.503      3.997
REMARK  Name = 
REMARK  5 active torsions:
REMARK  status: ('A' for Active; 'I' for Inactive)
REMARK    1  A    between atoms: C_1  and  N_2
REMARK    2  A    between atoms: N_2  and  C_3
REMARK    3  A    between atoms: C_4  and  C_6
REMARK    4  A    between atoms: C_8  and  C_11
REMARK    5  A    between atoms: C_15  and  C_16
REMARK                            x       y       z     vdW  Elec       q    Type
REMARK                         _______ _______ _______ _____ _____    ______ ____
ROOT
ATOM      1  C   UNL     1       6.428  -4.346  22.437  0.00  0.00    +0.102 A 
ATOM      2  C   UNL     1       6.257  -5.380  23.408  0.00  0.00    +0.027 A 
ATOM      3  C   UNL     1       5.821  -6.458  22.660  0.00  0.00    +0.114 A 
ATOM      4  N   UNL     1       5.769  -6.041  21.364  0.00  0.00    -0.284 N 
ATOM      5  H   UNL     1       5.483  -6.568  20.547  0.00  0.00    +0.188 HD
ATOM      6  N   UNL     1       6.158  -4.772  21.194  0.00  0.00    -0.173 NA
ENDROOT
BRANCH   1  11
ATOM      7  C   UNL     1       8.156  -1.119  22.852  0.00  0.00    +0.103 A 
ATOM      8  N   UNL     1       6.829  -0.754  22.977  0.00  0.00    -0.356 N 
ATOM      9  H   UNL     1       6.530   0.204  23.116  0.00  0.00    +0.165 HD
ATOM     10  C   UNL     1       6.011  -1.833  22.789  0.00  0.00    +0.093 A 
ATOM     11  C   UNL     1       6.808  -2.950  22.671  0.00  0.00    +0.021 A 
ATOM     12  C   UNL     1       8.155  -2.505  22.755  0.00  0.00    +0.042 A 
BRANCH   7  15
ATOM     13  C   UNL     1      10.785   1.308  24.048  0.00  0.00    +0.132 C 
ATOM     14  N   UNL     1       9.707   0.337  24.101  0.00  0.00    -0.302 N 
ATOM     15  C   UNL     1       9.198  -0.110  22.877  0.00  0.00    +0.262 C 
ATOM     16  O   UNL     1       9.669   0.306  21.816  0.00  0.00    -0.268 OA
ATOM     17  C   UNL     1       9.381  -0.231  25.399  0.00  0.00    +0.132 C 
ENDBRANCH   7  15
ENDBRANCH   1  11
BRANCH   2  18
ATOM     18  C   UNL     1       6.470  -5.451  24.849  0.00  0.00    -0.014 A 
ATOM     19  C   UNL     1       5.442  -5.876  25.704  0.00  0.00    +0.008 A 
ATOM     20  C   UNL     1       5.638  -5.935  27.087  0.00  0.00    +0.001 A 
ATOM     21  C   UNL     1       6.862  -5.558  27.635  0.00  0.00    +0.000 A 
ATOM     22  C   UNL     1       7.895  -5.145  26.798  0.00  0.00    +0.001 A 
ATOM     23  C   UNL     1       7.706  -5.111  25.414  0.00  0.00    +0.008 A 
ENDBRANCH   2  18
TORSDOF 3
ENDMDL
MODEL 5
REMARK VINA RESULT:      -6.3      2.057      2.899
REMARK  Name = 
REMARK  5 active torsions:
REMARK  status: ('A' for Active; 'I' for Inactive)
REMARK    1  A    between atoms: C_1  and  N_2
REMARK    2  A    between atoms: N_2  and  C_3
REMARK    3  A    between atoms: C_4  and  C_6
REMARK    4  A    between atoms: C_8  and  C_11
REMARK    5  A    between atoms: C_15  and  C_16
REMARK                            x       y       z     vdW  Elec       q    Type
REMARK                         _______ _______ _______ _____ _____    ______ ____
ROOT
ATOM      1  C   UNL     1       9.180  -3.714  24.768  0.00  0.00    +0.102 A 
ATOM      2  C   UNL     1       7.973  -4.186  25.368  0.00  0.00    +0.027 A 
ATOM      3  C   UNL     1       8.292  -5.471  25.770  0.00  0.00    +0.114 A 
ATOM      4  N   UNL     1       9.592  -5.679  25.421  0.00  0.00    -0.284 N 
ATOM      5  H   UNL     1      10.150  -6.515  25.555  0.00  0.00    +0.188 HD
ATOM      6  N   UNL     1      10.166  -4.622  24.836  0.00  0.00    -0.173 NA
ENDROOT
BRANCH   1  11
ATOM      7  C   UNL     1       9.768  -0.190  23.870  0.00  0.00    +0.103 A 
ATOM      8  N   UNL     1       9.856  -0.820  22.642  0.00  0.00    -0.356 N 
ATOM      9  H   UNL     1      10.067  -0.326  21.782  0.00  0.00    +0.165 HD
ATOM     10  C   UNL     1       9.721  -2.173  22.782  0.00  0.00    +0.093 A 
ATOM     11  C   UNL     1       9.407  -2.430  24.098  0.00  0.00    +0.021 A 
ATOM     12  C   UNL     1       9.392  -1.179  24.770  0.00  0.00    +0.042 A 
BRANCH   7  15
ATOM     13  C   UNL     1       9.274   3.545  24.056  0.00  0.00    +0.132 C 
ATOM     14  N   UNL     1       8.957   2.139  23.881  0.00  0.00    -0.302 N 
ATOM     15  C   UNL     1      10.018   1.235  23.981  0.00  0.00    +0.262 C 
ATOM     16  O   UNL     1      11.160   1.635  24.222  0.00  0.00    -0.268 OA
ATOM     17  C   UNL     1       7.551   1.774  23.812  0.00  0.00    +0.132 C 
ENDBRANCH   7  15
ENDBRANCH   1  11
BRANCH   2  18
ATOM     18  C   UNL     1       6.664  -3.586  25.602  0.00  0.00    -0.014 A 
ATOM     19  C   UNL     1       6.389  -2.914  26.803  0.00  0.00    +0.008 A 
ATOM     20  C   UNL     1       5.133  -2.347  27.035  0.00  0.00    +0.001 A 
ATOM     21  C   UNL     1       4.130  -2.455  26.076  0.00  0.00    +0.000 A 
ATOM     22  C   UNL     1       4.391  -3.110  24.874  0.00  0.00    +0.001 A 
ATOM     23  C   UNL     1       5.656  -3.653  24.632  0.00  0.00    +0.008 A 
ENDBRANCH   2  18
TORSDOF 3
ENDMDL
MODEL 6
REMARK VINA RESULT:      -6.3      3.209      6.604
REMARK  Name = 
REMARK  5 active torsions:
REMARK  status: ('A' for Active; 'I' for Inactive)
REMARK    1  A    between atoms: C_1  and  N_2
REMARK    2  A    between atoms: N_2  and  C_3
REMARK    3  A    between atoms: C_4  and  C_6
REMARK    4  A    between atoms: C_8  and  C_11
REMARK    5  A    between atoms: C_15  and  C_16
REMARK                            x       y       z     vdW  Elec       q    Type
REMARK                         _______ _______ _______ _____ _____    ______ ____
ROOT
ATOM      1  C   UNL     1       9.173   0.162  23.744  0.00  0.00    +0.102 A 
ATOM      2  C   UNL     1       9.187   1.588  23.828  0.00  0.00    +0.027 A 
ATOM      3  C   UNL     1      10.472   1.875  24.250  0.00  0.00    +0.114 A 
ATOM      4  N   UNL     1      11.119   0.683  24.375  0.00  0.00    -0.284 N 
ATOM      5  H   UNL     1      12.073   0.516  24.674  0.00  0.00    +0.188 HD
ATOM      6  N   UNL     1      10.365  -0.372  24.049  0.00  0.00    -0.173 NA
ENDROOT
BRANCH   1  11
ATOM      7  C   UNL     1       6.911  -2.477  22.523  0.00  0.00    +0.103 A 
ATOM      8  N   UNL     1       6.069  -1.718  23.313  0.00  0.00    -0.356 N 
ATOM      9  H   UNL     1       5.094  -1.951  23.464  0.00  0.00    +0.165 HD
ATOM     10  C   UNL     1       6.757  -0.701  23.914  0.00  0.00    +0.093 A 
ATOM     11  C   UNL     1       8.039  -0.706  23.413  0.00  0.00    +0.021 A 
ATOM     12  C   UNL     1       8.121  -1.796  22.505  0.00  0.00    +0.042 A 
BRANCH   7  15
ATOM     13  C   UNL     1       6.330  -6.110  21.688  0.00  0.00    +0.132 C 
ATOM     14  N   UNL     1       6.898  -4.936  22.326  0.00  0.00    -0.302 N 
ATOM     15  C   UNL     1       6.427  -3.692  21.895  0.00  0.00    +0.262 C 
ATOM     16  O   UNL     1       5.560  -3.622  21.021  0.00  0.00    -0.268 OA
ATOM     17  C   UNL     1       7.754  -5.151  23.482  0.00  0.00    +0.132 C 
ENDBRANCH   7  15
ENDBRANCH   1  11
BRANCH   2  18
ATOM     18  C   UNL     1       8.196   2.622  23.550  0.00  0.00    -0.014 A 
ATOM     19  C   UNL     1       7.613   2.730  22.278  0.00  0.00    +0.008 A 
ATOM     20  C   UNL     1       6.671   3.726  22.004  0.00  0.00    +0.001 A 
ATOM     21  C   UNL     1       6.309   4.636  22.994  0.00  0.00    +0.000 A 
ATOM     22  C   UNL     1       6.871   4.534  24.264  0.00  0.00    +0.001 A 
ATOM     23  C   UNL     1       7.793   3.522  24.544  0.00  0.00    +0.008 A 
ENDBRANCH   2  18
TORSDOF 3
ENDMDL
MODEL 7
REMARK VINA RESULT:      -6.3      2.890      6.727
REMARK  Name = 
REMARK  5 active torsions:
REMARK  status: ('A' for Active; 'I' for Inactive)
REMARK    1  A    between atoms: C_1  and  N_2
REMARK    2  A    between atoms: N_2  and  C_3
REMARK    3  A    between atoms: C_4  and  C_6
REMARK    4  A    between atoms: C_8  and  C_11
REMARK    5  A    between atoms: C_15  and  C_16
REMARK                            x       y       z     vdW  Elec       q    Type
REMARK                         _______ _______ _______ _____ _____    ______ ____
ROOT
ATOM      1  C   UNL     1       9.804   2.462  23.080  0.00  0.00    +0.102 A 
ATOM      2  C   UNL     1       8.721   3.333  23.410  0.00  0.00    +0.027 A 
ATOM      3  C   UNL     1       9.347   4.531  23.702  0.00  0.00    +0.114 A 
ATOM      4  N   UNL     1      10.682   4.328  23.530  0.00  0.00    -0.284 N 
ATOM      5  H   UNL     1      11.439   4.988  23.666  0.00  0.00    +0.188 HD
ATOM      6  N   UNL     1      10.988   3.090  23.127  0.00  0.00    -0.173 NA
ENDROOT
BRANCH   1  11
ATOM      7  C   UNL     1       9.486  -1.209  23.084  0.00  0.00    +0.103 A 
ATOM      8  N   UNL     1       9.611  -0.931  21.736  0.00  0.00    -0.356 N 
ATOM      9  H   UNL     1       9.577  -1.647  21.020  0.00  0.00    +0.165 HD
ATOM     10  C   UNL     1       9.682   0.418  21.524  0.00  0.00    +0.093 A 
ATOM     11  C   UNL     1       9.739   1.034  22.755  0.00  0.00    +0.021 A 
ATOM     12  C   UNL     1       9.662   0.007  23.733  0.00  0.00    +0.042 A 
BRANCH   7  15
ATOM     13  C   UNL     1       7.838  -4.513  23.857  0.00  0.00    +0.132 C 
ATOM     14  N   UNL     1       7.980  -3.131  23.437  0.00  0.00    -0.302 N 
ATOM     15  C   UNL     1       9.257  -2.569  23.534  0.00  0.00    +0.262 C 
ATOM     16  O   UNL     1      10.206  -3.241  23.946  0.00  0.00    -0.268 OA
ATOM     17  C   UNL     1       6.843  -2.511  22.777  0.00  0.00    +0.132 C 
ENDBRANCH   7  15
ENDBRANCH   1  11
BRANCH   2  18
ATOM     18  C   UNL     1       7.272   3.167  23.450  0.00  0.00    -0.014 A 
ATOM     19  C   UNL     1       6.665   2.427  24.476  0.00  0.00    +0.008 A 
ATOM     20  C   UNL     1       5.279   2.256  24.513  0.00  0.00    +0.001 A 
ATOM     21  C   UNL     1       4.480   2.811  23.515  0.00  0.00    +0.000 A 
ATOM     22  C   UNL     1       5.067   3.556  22.496  0.00  0.00    +0.001 A 
ATOM     23  C   UNL     1       6.452   3.749  22.476  0.00  0.00    +0.008 A 
ENDBRANCH   2  18
TORSDOF 3
ENDMDL
MODEL 8
REMARK VINA RESULT:      -6.3      2.755      4.399
REMARK  Name = 
REMARK  5 active torsions:
REMARK  status: ('A' for Active; 'I' for Inactive)
REMARK    1  A    between atoms: C_1  and  N_2
REMARK    2  A    between atoms: N_2  and  C_3
REMARK    3  A    between atoms: C_4  and  C_6
REMARK    4  A    between atoms: C_8  and  C_11
REMARK    5  A    between atoms: C_15  and  C_16
REMARK                            x       y       z     vdW  Elec       q    Type
REMARK                         _______ _______ _______ _____ _____    ______ ____
ROOT
ATOM      1  C   UNL     1       6.311  -5.399  23.655  0.00  0.00    +0.102 A 
ATOM      2  C   UNL     1       5.320  -5.765  24.616  0.00  0.00    +0.027 A 
ATOM      3  C   UNL     1       4.321  -6.338  23.849  0.00  0.00    +0.114 A 
ATOM      4  N   UNL     1       4.748  -6.298  22.556  0.00  0.00    -0.284 N 
ATOM      5  H   UNL     1       4.265  -6.622  21.726  0.00  0.00    +0.188 HD
ATOM      6  N   UNL     1       5.964  -5.759  22.410  0.00  0.00    -0.173 NA
ENDROOT
BRANCH   1  11
ATOM      7  C   UNL     1       9.083  -2.979  23.837  0.00  0.00    +0.103 A 
ATOM      8  N   UNL     1       9.556  -4.019  24.616  0.00  0.00    -0.356 N 
ATOM      9  H   UNL     1      10.450  -3.990  25.092  0.00  0.00    +0.165 HD
ATOM     10  C   UNL     1       8.620  -5.010  24.719  0.00  0.00    +0.093 A 
ATOM     11  C   UNL     1       7.569  -4.683  23.891  0.00  0.00    +0.021 A 
ATOM     12  C   UNL     1       7.882  -3.428  23.304  0.00  0.00    +0.042 A 
BRANCH   7  15
ATOM     13  C   UNL     1      10.571   0.427  24.483  0.00  0.00    +0.132 C 
ATOM     14  N   UNL     1       9.730  -0.744  24.656  0.00  0.00    -0.302 N 
ATOM     15  C   UNL     1       9.854  -1.757  23.701  0.00  0.00    +0.262 C 
ATOM     16  O   UNL     1      10.657  -1.645  22.772  0.00  0.00    -0.268 OA
ATOM     17  C   UNL     1       8.980  -0.852  25.897  0.00  0.00    +0.132 C 
ENDBRANCH   7  15
ENDBRANCH   1  11
BRANCH   2  18
ATOM     18  C   UNL     1       5.238  -5.656  26.068  0.00  0.00    -0.014 A 
ATOM     19  C   UNL     1       5.383  -4.413  26.702  0.00  0.00    +0.008 A 
ATOM     20  C   UNL     1       5.317  -4.307  28.094  0.00  0.00    +0.001 A 
ATOM     21  C   UNL     1       5.117  -5.444  28.873  0.00  0.00    +0.000 A 
ATOM     22  C   UNL     1       4.960  -6.683  28.257  0.00  0.00    +0.001 A 
ATOM     23  C   UNL     1       5.001  -6.785  26.863  0.00  0.00    +0.008 A 
ENDBRANCH   2  18
TORSDOF 3
ENDMDL
MODEL 9
REMARK VINA RESULT:      -6.1      2.746      6.421
REMARK  Name = 
REMARK  5 active torsions:
REMARK  status: ('A' for Active; 'I' for Inactive)
REMARK    1  A    between atoms: C_1  and  N_2
REMARK    2  A    between atoms: N_2  and  C_3
REMARK    3  A    between atoms: C_4  and  C_6
REMARK    4  A    between atoms: C_8  and  C_11
REMARK    5  A    between atoms: C_15  and  C_16
REMARK                            x       y       z     vdW  Elec       q    Type
REMARK                         _______ _______ _______ _____ _____    ______ ____
ROOT
ATOM      1  C   UNL     1       8.935   0.293  22.567  0.00  0.00    +0.102 A 
ATOM      2  C   UNL     1       8.409   1.423  23.265  0.00  0.00    +0.027 A 
ATOM      3  C   UNL     1       8.984   2.500  22.615  0.00  0.00    +0.114 A 
ATOM      4  N   UNL     1       9.763   1.989  21.621  0.00  0.00    -0.284 N 
ATOM      5  H   UNL     1      10.337   2.491  20.954  0.00  0.00    +0.188 HD
ATOM      6  N   UNL     1       9.732   0.654  21.550  0.00  0.00    -0.173 NA
ENDROOT
BRANCH   1  11
ATOM      7  C   UNL     1       8.727  -3.063  24.074  0.00  0.00    +0.103 A 
ATOM      8  N   UNL     1       8.085  -3.249  22.864  0.00  0.00    -0.356 N 
ATOM      9  H   UNL     1       7.674  -4.133  22.588  0.00  0.00    +0.165 HD
ATOM     10  C   UNL     1       8.008  -2.073  22.172  0.00  0.00    +0.093 A 
ATOM     11  C   UNL     1       8.724  -1.126  22.870  0.00  0.00    +0.021 A 
ATOM     12  C   UNL     1       9.213  -1.762  24.042  0.00  0.00    +0.042 A 
BRANCH   7  15
ATOM     13  C   UNL     1       7.970  -5.372  26.959  0.00  0.00    +0.132 C 
ATOM     14  N   UNL     1       7.862  -4.234  26.066  0.00  0.00    -0.302 N 
ATOM     15  C   UNL     1       8.804  -4.146  25.036  0.00  0.00    +0.262 C 
ATOM     16  O   UNL     1       9.669  -5.016  24.905  0.00  0.00    -0.268 OA
ATOM     17  C   UNL     1       6.682  -3.393  26.192  0.00  0.00    +0.132 C 
ENDBRANCH   7  15
ENDBRANCH   1  11
BRANCH   2  18
ATOM     18  C   UNL     1       7.477   1.575  24.376  0.00  0.00    -0.014 A 
ATOM     19  C   UNL     1       7.861   2.251  25.544  0.00  0.00    +0.008 A 
ATOM     20  C   UNL     1       6.974   2.389  26.616  0.00  0.00    +0.001 A 
ATOM     21  C   UNL     1       5.696   1.841  26.540  0.00  0.00    +0.000 A 
ATOM     22  C   UNL     1       5.297   1.176  25.383  0.00  0.00    +0.001 A 
ATOM     23  C   UNL     1       6.176   1.062  24.302  0.00  0.00    +0.008 A 
ENDBRANCH   2  18
TORSDOF 3
ENDMDL
