MODEL 1
REMARK VINA RESULT:      -2.8      0.000      0.000
REMARK  Name = 
REMARK  0 active torsions:
REMARK  status: ('A' for Active; 'I' for Inactive)
REMARK                            x       y       z     vdW  Elec       q    Type
REMARK                         _______ _______ _______ _____ _____    ______ ____
ROOT
ATOM      1  N   UNL     1      10.108   2.218  21.831  0.00  0.00    -0.285 N 
ATOM      2  H   UNL     1       9.986   2.756  20.980  0.00  0.00    +0.188 HD
ATOM      3  N   UNL     1       9.915   0.890  21.780  0.00  0.00    -0.182 NA
ATOM      4  C   UNL     1      10.148   0.488  23.032  0.00  0.00    +0.134 A 
ATOM      5  C   UNL     1      10.488   1.556  23.882  0.00  0.00    +0.040 A 
ATOM      6  C   UNL     1      10.454   2.666  23.074  0.00  0.00    +0.105 A 
ENDROOT
TORSDOF 0
ENDMDL
MODEL 2
REMARK VINA RESULT:      -2.8      2.190      2.549
REMARK  Name = 
REMARK  0 active torsions:
REMARK  status: ('A' for Active; 'I' for Inactive)
REMARK                            x       y       z     vdW  Elec       q    Type
REMARK                         _______ _______ _______ _____ _____    ______ ____
ROOT
ATOM      1  N   UNL     1       9.707  -1.089  21.218  0.00  0.00    -0.285 N 
ATOM      2  H   UNL     1       9.532  -1.664  20.400  0.00  0.00    +0.188 HD
ATOM      3  N   UNL     1      10.328  -1.649  22.270  0.00  0.00    -0.182 NA
ATOM      4  C   UNL     1      10.405  -0.655  23.158  0.00  0.00    +0.134 A 
ATOM      5  C   UNL     1       9.835   0.537  22.676  0.00  0.00    +0.040 A 
ATOM      6  C   UNL     1       9.391   0.224  21.414  0.00  0.00    +0.105 A 
ENDROOT
TORSDOF 0
ENDMDL
MODEL 3
REMARK VINA RESULT:      -2.8      0.836      1.684
REMARK  Name = 
REMARK  0 active torsions:
REMARK  status: ('A' for Active; 'I' for Inactive)
REMARK                            x       y       z     vdW  Elec       q    Type
REMARK                         _______ _______ _______ _____ _____    ______ ____
ROOT
ATOM      1  N   UNL     1      10.134   2.254  21.830  0.00  0.00    -0.285 N 
ATOM      2  H   UNL     1      10.070   2.876  21.031  0.00  0.00    +0.188 HD
ATOM      3  N   UNL     1      10.532   2.766  23.006  0.00  0.00    -0.182 NA
ATOM      4  C   UNL     1      10.513   1.717  23.831  0.00  0.00    +0.134 A 
ATOM      5  C   UNL     1      10.103   0.536  23.185  0.00  0.00    +0.040 A 
ATOM      6  C   UNL     1       9.864   0.917  21.886  0.00  0.00    +0.105 A 
ENDROOT
TORSDOF 0
ENDMDL
MODEL 4
REMARK VINA RESULT:      -2.7      8.371      8.964
REMARK  Name = 
REMARK  0 active torsions:
REMARK  status: ('A' for Active; 'I' for Inactive)
REMARK                            x       y       z     vdW  Elec       q    Type
REMARK                         _______ _______ _______ _____ _____    ______ ____
ROOT
ATOM      1  N   UNL     1       8.197  -5.705  27.012  0.00  0.00    -0.285 N 
ATOM      2  H   UNL     1       9.151  -5.837  27.329  0.00  0.00    +0.188 HD
ATOM      3  N   UNL     1       7.198  -5.937  27.880  0.00  0.00    -0.182 NA
ATOM      4  C   UNL     1       6.096  -5.680  27.171  0.00  0.00    +0.134 A 
ATOM      5  C   UNL     1       6.389  -5.285  25.853  0.00  0.00    +0.040 A 
ATOM      6  C   UNL     1       7.761  -5.310  25.780  0.00  0.00    +0.105 A 
ENDROOT
TORSDOF 0
ENDMDL
MODEL 5
REMARK VINA RESULT:      -2.6      7.186      7.573
REMARK  Name = 
REMARK  0 active torsions:
REMARK  status: ('A' for Active; 'I' for Inactive)
REMARK                            x       y       z     vdW  Elec       q    Type
REMARK                         _______ _______ _______ _____ _____    ______ ____
ROOT
ATOM      1  N   UNL     1       9.561  -5.104  26.355  0.00  0.00    -0.285 N 
ATOM      2  H   UNL     1      10.364  -5.162  26.972  0.00  0.00    +0.188 HD
ATOM      3  N   UNL     1       9.773  -5.114  25.029  0.00  0.00    -0.182 NA
ATOM      4  C   UNL     1       8.546  -5.025  24.510  0.00  0.00    +0.134 A 
ATOM      5  C   UNL     1       7.551  -4.958  25.502  0.00  0.00    +0.040 A 
ATOM      6  C   UNL     1       8.240  -5.011  26.689  0.00  0.00    +0.105 A 
ENDROOT
TORSDOF 0
ENDMDL
MODEL 6
REMARK VINA RESULT:      -2.6      7.993      8.294
REMARK  Name = 
REMARK  0 active torsions:
REMARK  status: ('A' for Active; 'I' for Inactive)
REMARK                            x       y       z     vdW  Elec       q    Type
REMARK                         _______ _______ _______ _____ _____    ______ ____
ROOT
ATOM      1  N   UNL     1       8.441  -5.794  26.685  0.00  0.00    -0.285 N 
ATOM      2  H   UNL     1       9.002  -6.137  27.458  0.00  0.00    +0.188 HD
ATOM      3  N   UNL     1       7.104  -5.843  26.797  0.00  0.00    -0.182 NA
ATOM      4  C   UNL     1       6.671  -5.332  25.641  0.00  0.00    +0.134 A 
ATOM      5  C   UNL     1       7.729  -4.957  24.793  0.00  0.00    +0.040 A 
ATOM      6  C   UNL     1       8.866  -5.270  25.499  0.00  0.00    +0.105 A 
ENDROOT
TORSDOF 0
ENDMDL
MODEL 7
REMARK VINA RESULT:      -2.6      6.873      7.594
REMARK  Name = 
REMARK  0 active torsions:
REMARK  status: ('A' for Active; 'I' for Inactive)
REMARK                            x       y       z     vdW  Elec       q    Type
REMARK                         _______ _______ _______ _____ _____    ______ ____
ROOT
ATOM      1  N   UNL     1       6.501  -3.862  22.076  0.00  0.00    -0.285 N 
ATOM      2  H   UNL     1       6.354  -2.885  22.305  0.00  0.00    +0.188 HD
ATOM      3  N   UNL     1       5.810  -4.388  21.051  0.00  0.00    -0.182 NA
ATOM      4  C   UNL     1       6.221  -5.658  21.010  0.00  0.00    +0.134 A 
ATOM      5  C   UNL     1       7.173  -5.943  22.006  0.00  0.00    +0.040 A 
ATOM      6  C   UNL     1       7.334  -4.758  22.682  0.00  0.00    +0.105 A 
ENDROOT
TORSDOF 0
ENDMDL
MODEL 8
REMARK VINA RESULT:      -2.5      4.223      4.646
REMARK  Name = 
REMARK  0 active torsions:
REMARK  status: ('A' for Active; 'I' for Inactive)
REMARK                            x       y       z     vdW  Elec       q    Type
REMARK                         _______ _______ _______ _____ _____    ______ ____
ROOT
ATOM      1  N   UNL     1      12.695   6.242  24.190  0.00  0.00    -0.285 N 
ATOM      2  H   UNL     1      13.374   6.922  24.516  0.00  0.00    +0.188 HD
ATOM      3  N   UNL     1      13.140   5.167  23.519  0.00  0.00    -0.182 NA
ATOM      4  C   UNL     1      12.026   4.487  23.237  0.00  0.00    +0.134 A 
ATOM      5  C   UNL     1      10.871   5.125  23.725  0.00  0.00    +0.040 A 
ATOM      6  C   UNL     1      11.338   6.262  24.339  0.00  0.00    +0.105 A 
ENDROOT
TORSDOF 0
ENDMDL
MODEL 9
REMARK VINA RESULT:      -2.5      8.004      8.335
REMARK  Name = 
REMARK  0 active torsions:
REMARK  status: ('A' for Active; 'I' for Inactive)
REMARK                            x       y       z     vdW  Elec       q    Type
REMARK                         _______ _______ _______ _____ _____    ______ ____
ROOT
ATOM      1  N   UNL     1       5.747  -6.157  21.475  0.00  0.00    -0.285 N 
ATOM      2  H   UNL     1       5.276  -6.693  20.754  0.00  0.00    +0.188 HD
ATOM      3  N   UNL     1       5.004  -5.380  22.280  0.00  0.00    -0.182 NA
ATOM      4  C   UNL     1       5.900  -4.822  23.098  0.00  0.00    +0.134 A 
ATOM      5  C   UNL     1       7.213  -5.241  22.817  0.00  0.00    +0.040 A 
ATOM      6  C   UNL     1       7.082  -6.107  21.758  0.00  0.00    +0.105 A 
ENDROOT
TORSDOF 0
ENDMDL
