MODEL 1
REMARK VINA RESULT:      -5.5      0.000      0.000
REMARK  Name = 
REMARK  5 active torsions:
REMARK  status: ('A' for Active; 'I' for Inactive)
REMARK    1  A    between atoms: O_1  and  C_2
REMARK    2  A    between atoms: C_10  and  O_12
REMARK    3  A    between atoms: O_12  and  S_13
REMARK    4  A    between atoms: S_13  and  O_14
REMARK    5  A    between atoms: C_17  and  O_19
REMARK                            x       y       z     vdW  Elec       q    Type
REMARK                         _______ _______ _______ _____ _____    ______ ____
ROOT
ATOM      1  C   UNL     1       9.877  -0.524  22.410  0.00  0.00    +0.177 C 
ATOM      2  C   UNL     1      10.137  -1.460  23.574  0.00  0.00    +0.185 C 
ATOM      3  C   UNL     1       9.167  -2.644  23.556  0.00  0.00    +0.238 C 
ATOM      4  C   UNL     1       7.726  -2.200  23.174  0.00  0.00    +0.282 C 
ATOM      5  O   UNL     1       7.512  -0.862  22.730  0.00  0.00    -0.341 OA
ATOM      6  O   UNL     1       9.878  -0.670  24.762  0.00  0.00    -0.368 OA
ATOM      7  C   UNL     1       8.877   0.307  24.391  0.00  0.00    +0.194 C 
ATOM      8  C   UNL     1       8.577   0.069  22.913  0.00  0.00    +0.178 C 
ENDROOT
BRANCH   1   9
ATOM      9  O   UNL     1       9.758  -1.199  21.167  0.00  0.00    -0.386 OA
ATOM     10  H   UNL     1      10.628  -1.159  20.728  0.00  0.00    +0.210 HD
ENDBRANCH   1   9
BRANCH   4  11
ATOM     11  O   UNL     1       7.236  -3.037  22.128  0.00  0.00    -0.365 OA
ATOM     12  H   UNL     1       7.485  -3.941  22.389  0.00  0.00    +0.213 HD
ENDBRANCH   4  11
BRANCH   3  13
ATOM     13  O   UNL     1       9.098  -3.255  24.853  0.00  0.00    -0.205 OA
BRANCH  13  14
ATOM     14  S   UNL     1       8.965  -4.863  24.996  0.00  0.00    +0.208 S 
ATOM     15  O   UNL     1       8.463  -5.401  23.754  0.00  0.00    -0.118 OA
ATOM     16  O   UNL     1       8.333  -5.134  26.265  0.00  0.00    -0.118 OA
BRANCH  14  17
ATOM     17  O   UNL     1      10.496  -5.337  25.154  0.00  0.00    -0.231 OA
ATOM     18  H   UNL     1      10.579  -5.853  25.982  0.00  0.00    +0.247 HD
ENDBRANCH  14  17
ENDBRANCH  13  14
ENDBRANCH   3  13
TORSDOF 5
ENDMDL
MODEL 2
REMARK VINA RESULT:      -5.5      2.566      3.730
REMARK  Name = 
REMARK  5 active torsions:
REMARK  status: ('A' for Active; 'I' for Inactive)
REMARK    1  A    between atoms: O_1  and  C_2
REMARK    2  A    between atoms: C_10  and  O_12
REMARK    3  A    between atoms: O_12  and  S_13
REMARK    4  A    between atoms: S_13  and  O_14
REMARK    5  A    between atoms: C_17  and  O_19
REMARK                            x       y       z     vdW  Elec       q    Type
REMARK                         _______ _______ _______ _____ _____    ______ ____
ROOT
ATOM      1  C   UNL     1      10.074   3.017  23.729  0.00  0.00    +0.177 C 
ATOM      2  C   UNL     1       9.975   1.571  24.174  0.00  0.00    +0.185 C 
ATOM      3  C   UNL     1       9.551   0.665  23.016  0.00  0.00    +0.238 C 
ATOM      4  C   UNL     1       8.444   1.326  22.146  0.00  0.00    +0.282 C 
ATOM      5  O   UNL     1       8.097   2.688  22.389  0.00  0.00    -0.341 OA
ATOM      6  O   UNL     1       8.930   1.554  25.179  0.00  0.00    -0.368 OA
ATOM      7  C   UNL     1       8.016   2.622  24.834  0.00  0.00    +0.194 C 
ATOM      8  C   UNL     1       8.591   3.287  23.586  0.00  0.00    +0.178 C 
ENDROOT
BRANCH   1   9
ATOM      9  O   UNL     1      10.807   3.180  22.524  0.00  0.00    -0.386 OA
ATOM     10  H   UNL     1      10.255   3.705  21.915  0.00  0.00    +0.210 HD
ENDBRANCH   1   9
BRANCH   4  11
ATOM     11  O   UNL     1       8.825   1.265  20.772  0.00  0.00    -0.365 OA
ATOM     12  H   UNL     1       9.237   0.390  20.663  0.00  0.00    +0.213 HD
ENDBRANCH   4  11
BRANCH   3  13
ATOM     13  O   UNL     1       9.021  -0.573  23.516  0.00  0.00    -0.205 OA
BRANCH  13  14
ATOM     14  S   UNL     1       9.328  -1.965  22.749  0.00  0.00    +0.208 S 
ATOM     15  O   UNL     1       8.086  -2.507  22.251  0.00  0.00    -0.118 OA
ATOM     16  O   UNL     1      10.224  -2.731  23.582  0.00  0.00    -0.118 OA
BRANCH  14  17
ATOM     17  O   UNL     1      10.199  -1.491  21.480  0.00  0.00    -0.231 OA
ATOM     18  H   UNL     1      10.345  -2.264  20.895  0.00  0.00    +0.247 HD
ENDBRANCH  14  17
ENDBRANCH  13  14
ENDBRANCH   3  13
TORSDOF 5
ENDMDL
MODEL 3
REMARK VINA RESULT:      -5.3      2.597      4.695
REMARK  Name = 
REMARK  5 active torsions:
REMARK  status: ('A' for Active; 'I' for Inactive)
REMARK    1  A    between atoms: O_1  and  C_2
REMARK    2  A    between atoms: C_10  and  O_12
REMARK    3  A    between atoms: O_12  and  S_13
REMARK    4  A    between atoms: S_13  and  O_14
REMARK    5  A    between atoms: C_17  and  O_19
REMARK                            x       y       z     vdW  Elec       q    Type
REMARK                         _______ _______ _______ _____ _____    ______ ____
ROOT
ATOM      1  C   UNL     1       5.911  -5.239  21.833  0.00  0.00    +0.177 C 
ATOM      2  C   UNL     1       6.465  -3.828  21.809  0.00  0.00    +0.185 C 
ATOM      3  C   UNL     1       7.743  -3.723  22.645  0.00  0.00    +0.238 C 
ATOM      4  C   UNL     1       7.631  -4.532  23.968  0.00  0.00    +0.282 C 
ATOM      5  O   UNL     1       6.501  -5.379  24.166  0.00  0.00    -0.341 OA
ATOM      6  O   UNL     1       5.441  -3.008  22.428  0.00  0.00    -0.368 OA
ATOM      7  C   UNL     1       4.752  -3.861  23.373  0.00  0.00    +0.194 C 
ATOM      8  C   UNL     1       5.408  -5.236  23.261  0.00  0.00    +0.178 C 
ENDROOT
BRANCH   1   9
ATOM      9  O   UNL     1       6.895  -6.228  21.572  0.00  0.00    -0.386 OA
ATOM     10  H   UNL     1       7.689  -5.770  21.238  0.00  0.00    +0.210 HD
ENDBRANCH   1   9
BRANCH   4  11
ATOM     11  O   UNL     1       8.773  -5.375  24.103  0.00  0.00    -0.365 OA
ATOM     12  H   UNL     1       8.431  -6.282  24.013  0.00  0.00    +0.213 HD
ENDBRANCH   4  11
BRANCH   3  13
ATOM     13  O   UNL     1       8.000  -2.355  22.998  0.00  0.00    -0.205 OA
BRANCH  13  14
ATOM     14  S   UNL     1       9.519  -1.797  23.065  0.00  0.00    +0.208 S 
ATOM     15  O   UNL     1      10.361  -2.808  23.658  0.00  0.00    -0.118 OA
ATOM     16  O   UNL     1       9.462  -0.446  23.571  0.00  0.00    -0.118 OA
BRANCH  14  17
ATOM     17  O   UNL     1       9.923  -1.672  21.511  0.00  0.00    -0.231 OA
ATOM     18  H   UNL     1       9.465  -2.379  21.012  0.00  0.00    +0.247 HD
ENDBRANCH  14  17
ENDBRANCH  13  14
ENDBRANCH   3  13
TORSDOF 5
ENDMDL
MODEL 4
REMARK VINA RESULT:      -5.3      2.984      4.246
REMARK  Name = 
REMARK  5 active torsions:
REMARK  status: ('A' for Active; 'I' for Inactive)
REMARK    1  A    between atoms: O_1  and  C_2
REMARK    2  A    between atoms: C_10  and  O_12
REMARK    3  A    between atoms: O_12  and  S_13
REMARK    4  A    between atoms: S_13  and  O_14
REMARK    5  A    between atoms: C_17  and  O_19
REMARK                            x       y       z     vdW  Elec       q    Type
REMARK                         _______ _______ _______ _____ _____    ______ ____
ROOT
ATOM      1  C   UNL     1       6.769  -5.365  21.770  0.00  0.00    +0.177 C 
ATOM      2  C   UNL     1       7.274  -5.197  23.190  0.00  0.00    +0.185 C 
ATOM      3  C   UNL     1       6.113  -5.156  24.187  0.00  0.00    +0.238 C 
ATOM      4  C   UNL     1       4.920  -4.320  23.643  0.00  0.00    +0.282 C 
ATOM      5  O   UNL     1       4.954  -3.867  22.291  0.00  0.00    -0.341 OA
ATOM      6  O   UNL     1       7.942  -3.910  23.206  0.00  0.00    -0.368 OA
ATOM      7  C   UNL     1       7.275  -3.093  22.215  0.00  0.00    +0.194 C 
ATOM      8  C   UNL     1       6.194  -3.975  21.594  0.00  0.00    +0.178 C 
ENDROOT
BRANCH   1   9
ATOM      9  O   UNL     1       5.812  -6.404  21.638  0.00  0.00    -0.386 OA
ATOM     10  H   UNL     1       5.792  -6.666  20.699  0.00  0.00    +0.210 HD
ENDBRANCH   1   9
BRANCH   4  11
ATOM     11  O   UNL     1       3.718  -5.079  23.765  0.00  0.00    -0.365 OA
ATOM     12  H   UNL     1       3.001  -4.453  23.562  0.00  0.00    +0.213 HD
ENDBRANCH   4  11
BRANCH   3  13
ATOM     13  O   UNL     1       6.533  -4.553  25.420  0.00  0.00    -0.205 OA
BRANCH  13  14
ATOM     14  S   UNL     1       6.646  -5.440  26.770  0.00  0.00    +0.208 S 
ATOM     15  O   UNL     1       5.799  -6.601  26.637  0.00  0.00    -0.118 OA
ATOM     16  O   UNL     1       6.546  -4.537  27.892  0.00  0.00    -0.118 OA
BRANCH  14  17
ATOM     17  O   UNL     1       8.176  -5.944  26.742  0.00  0.00    -0.231 OA
ATOM     18  H   UNL     1       8.260  -6.717  27.337  0.00  0.00    +0.247 HD
ENDBRANCH  14  17
ENDBRANCH  13  14
ENDBRANCH   3  13
TORSDOF 5
ENDMDL
MODEL 5
REMARK VINA RESULT:      -5.2      2.767      4.985
REMARK  Name = 
REMARK  5 active torsions:
REMARK  status: ('A' for Active; 'I' for Inactive)
REMARK    1  A    between atoms: O_1  and  C_2
REMARK    2  A    between atoms: C_10  and  O_12
REMARK    3  A    between atoms: O_12  and  S_13
REMARK    4  A    between atoms: S_13  and  O_14
REMARK    5  A    between atoms: C_17  and  O_19
REMARK                            x       y       z     vdW  Elec       q    Type
REMARK                         _______ _______ _______ _____ _____    ______ ____
ROOT
ATOM      1  C   UNL     1       7.576  -2.666  23.526  0.00  0.00    +0.177 C 
ATOM      2  C   UNL     1       7.600  -1.160  23.704  0.00  0.00    +0.185 C 
ATOM      3  C   UNL     1       8.682  -0.519  22.831  0.00  0.00    +0.238 C 
ATOM      4  C   UNL     1       9.991  -1.361  22.829  0.00  0.00    +0.282 C 
ATOM      5  O   UNL     1       9.985  -2.646  23.447  0.00  0.00    -0.341 OA
ATOM      6  O   UNL     1       7.945  -0.948  25.096  0.00  0.00    -0.368 OA
ATOM      7  C   UNL     1       8.763  -2.075  25.489  0.00  0.00    +0.194 C 
ATOM      8  C   UNL     1       8.862  -2.978  24.262  0.00  0.00    +0.178 C 
ENDROOT
BRANCH   1   9
ATOM      9  O   UNL     1       7.581  -3.066  22.165  0.00  0.00    -0.386 OA
ATOM     10  H   UNL     1       6.910  -2.532  21.700  0.00  0.00    +0.210 HD
ENDBRANCH   1   9
BRANCH   4  11
ATOM     11  O   UNL     1      10.408  -1.581  21.483  0.00  0.00    -0.365 OA
ATOM     12  H   UNL     1       9.638  -1.980  21.042  0.00  0.00    +0.213 HD
ENDBRANCH   4  11
BRANCH   3  13
ATOM     13  O   UNL     1       9.014   0.788  23.322  0.00  0.00    -0.205 OA
BRANCH  13  14
ATOM     14  S   UNL     1       8.812   2.092  22.384  0.00  0.00    +0.208 S 
ATOM     15  O   UNL     1       8.726   3.263  23.224  0.00  0.00    -0.118 OA
ATOM     16  O   UNL     1       7.802   1.770  21.405  0.00  0.00    -0.118 OA
BRANCH  14  17
ATOM     17  O   UNL     1      10.204   2.170  21.576  0.00  0.00    -0.231 OA
ATOM     18  H   UNL     1      10.544   3.087  21.629  0.00  0.00    +0.247 HD
ENDBRANCH  14  17
ENDBRANCH  13  14
ENDBRANCH   3  13
TORSDOF 5
ENDMDL
MODEL 6
REMARK VINA RESULT:      -5.2      3.295      4.928
REMARK  Name = 
REMARK  5 active torsions:
REMARK  status: ('A' for Active; 'I' for Inactive)
REMARK    1  A    between atoms: O_1  and  C_2
REMARK    2  A    between atoms: C_10  and  O_12
REMARK    3  A    between atoms: O_12  and  S_13
REMARK    4  A    between atoms: S_13  and  O_14
REMARK    5  A    between atoms: C_17  and  O_19
REMARK                            x       y       z     vdW  Elec       q    Type
REMARK                         _______ _______ _______ _____ _____    ______ ____
ROOT
ATOM      1  C   UNL     1       7.220  -4.730  26.988  0.00  0.00    +0.177 C 
ATOM      2  C   UNL     1       6.400  -4.570  25.723  0.00  0.00    +0.185 C 
ATOM      3  C   UNL     1       7.172  -5.069  24.499  0.00  0.00    +0.238 C 
ATOM      4  C   UNL     1       8.670  -4.654  24.557  0.00  0.00    +0.282 C 
ATOM      5  O   UNL     1       9.175  -4.056  25.749  0.00  0.00    -0.341 OA
ATOM      6  O   UNL     1       6.191  -3.141  25.585  0.00  0.00    -0.368 OA
ATOM      7  C   UNL     1       7.337  -2.501  26.194  0.00  0.00    +0.194 C 
ATOM      8  C   UNL     1       8.223  -3.627  26.721  0.00  0.00    +0.178 C 
ENDROOT
BRANCH   1   9
ATOM      9  O   UNL     1       7.802  -6.018  27.115  0.00  0.00    -0.386 OA
ATOM     10  H   UNL     1       7.588  -6.517  26.305  0.00  0.00    +0.210 HD
ENDBRANCH   1   9
BRANCH   4  11
ATOM     11  O   UNL     1       9.486  -5.801  24.326  0.00  0.00    -0.365 OA
ATOM     12  H   UNL     1      10.232  -5.477  23.791  0.00  0.00    +0.213 HD
ENDBRANCH   4  11
BRANCH   3  13
ATOM     13  O   UNL     1       6.619  -4.512  23.296  0.00  0.00    -0.205 OA
BRANCH  13  14
ATOM     14  S   UNL     1       6.211  -5.475  22.059  0.00  0.00    +0.208 S 
ATOM     15  O   UNL     1       7.227  -6.488  21.903  0.00  0.00    -0.118 OA
ATOM     16  O   UNL     1       5.795  -4.626  20.969  0.00  0.00    -0.118 OA
BRANCH  14  17
ATOM     17  O   UNL     1       4.875  -6.198  22.593  0.00  0.00    -0.231 OA
ATOM     18  H   UNL     1       5.124  -7.057  22.993  0.00  0.00    +0.247 HD
ENDBRANCH  14  17
ENDBRANCH  13  14
ENDBRANCH   3  13
TORSDOF 5
ENDMDL
MODEL 7
REMARK VINA RESULT:      -5.2      2.624      4.534
REMARK  Name = 
REMARK  5 active torsions:
REMARK  status: ('A' for Active; 'I' for Inactive)
REMARK    1  A    between atoms: O_1  and  C_2
REMARK    2  A    between atoms: C_10  and  O_12
REMARK    3  A    between atoms: O_12  and  S_13
REMARK    4  A    between atoms: S_13  and  O_14
REMARK    5  A    between atoms: C_17  and  O_19
REMARK                            x       y       z     vdW  Elec       q    Type
REMARK                         _______ _______ _______ _____ _____    ______ ____
ROOT
ATOM      1  C   UNL     1       9.024  -5.178  25.722  0.00  0.00    +0.177 C 
ATOM      2  C   UNL     1       7.809  -5.256  24.818  0.00  0.00    +0.185 C 
ATOM      3  C   UNL     1       7.905  -4.240  23.676  0.00  0.00    +0.238 C 
ATOM      4  C   UNL     1       8.468  -2.876  24.168  0.00  0.00    +0.282 C 
ATOM      5  O   UNL     1       8.977  -2.778  25.497  0.00  0.00    -0.341 OA
ATOM      6  O   UNL     1       6.685  -4.897  25.661  0.00  0.00    -0.368 OA
ATOM      7  C   UNL     1       7.203  -3.993  26.666  0.00  0.00    +0.194 C 
ATOM      8  C   UNL     1       8.697  -3.858  26.387  0.00  0.00    +0.178 C 
ENDROOT
BRANCH   1   9
ATOM      9  O   UNL     1      10.250  -5.174  25.008  0.00  0.00    -0.386 OA
ATOM     10  H   UNL     1      10.741  -4.374  25.272  0.00  0.00    +0.210 HD
ENDBRANCH   1   9
BRANCH   4  11
ATOM     11  O   UNL     1       9.539  -2.474  23.315  0.00  0.00    -0.365 OA
ATOM     12  H   UNL     1      10.159  -3.224  23.316  0.00  0.00    +0.213 HD
ENDBRANCH   4  11
BRANCH   3  13
ATOM     13  O   UNL     1       6.607  -3.991  23.116  0.00  0.00    -0.205 OA
BRANCH  13  14
ATOM     14  S   UNL     1       6.045  -4.910  21.907  0.00  0.00    +0.208 S 
ATOM     15  O   UNL     1       4.809  -5.527  22.325  0.00  0.00    -0.118 OA
ATOM     16  O   UNL     1       7.155  -5.678  21.394  0.00  0.00    -0.118 OA
BRANCH  14  17
ATOM     17  O   UNL     1       5.692  -3.827  20.768  0.00  0.00    -0.231 OA
ATOM     18  H   UNL     1       5.095  -4.246  20.114  0.00  0.00    +0.247 HD
ENDBRANCH  14  17
ENDBRANCH  13  14
ENDBRANCH   3  13
TORSDOF 5
ENDMDL
MODEL 8
REMARK VINA RESULT:      -5.1      1.140      2.548
REMARK  Name = 
REMARK  5 active torsions:
REMARK  status: ('A' for Active; 'I' for Inactive)
REMARK    1  A    between atoms: O_1  and  C_2
REMARK    2  A    between atoms: C_10  and  O_12
REMARK    3  A    between atoms: O_12  and  S_13
REMARK    4  A    between atoms: S_13  and  O_14
REMARK    5  A    between atoms: C_17  and  O_19
REMARK                            x       y       z     vdW  Elec       q    Type
REMARK                         _______ _______ _______ _____ _____    ______ ____
ROOT
ATOM      1  C   UNL     1       7.538  -0.309  22.939  0.00  0.00    +0.177 C 
ATOM      2  C   UNL     1       8.042  -1.729  23.117  0.00  0.00    +0.185 C 
ATOM      3  C   UNL     1       8.886  -1.859  24.387  0.00  0.00    +0.238 C 
ATOM      4  C   UNL     1       9.823  -0.632  24.582  0.00  0.00    +0.282 C 
ATOM      5  O   UNL     1       9.673   0.494  23.719  0.00  0.00    -0.341 OA
ATOM      6  O   UNL     1       8.893  -1.976  21.970  0.00  0.00    -0.368 OA
ATOM      7  C   UNL     1       9.448  -0.694  21.591  0.00  0.00    +0.194 C 
ATOM      8  C   UNL     1       8.859   0.328  22.560  0.00  0.00    +0.178 C 
ENDROOT
BRANCH   1   9
ATOM      9  O   UNL     1       6.958   0.228  24.117  0.00  0.00    -0.386 OA
ATOM     10  H   UNL     1       7.687   0.469  24.719  0.00  0.00    +0.210 HD
ENDBRANCH   1   9
BRANCH   4  11
ATOM     11  O   UNL     1       9.667  -0.126  25.906  0.00  0.00    -0.365 OA
ATOM     12  H   UNL     1       9.135   0.683  25.807  0.00  0.00    +0.213 HD
ENDBRANCH   4  11
BRANCH   3  13
ATOM     13  O   UNL     1       9.718  -3.027  24.318  0.00  0.00    -0.205 OA
BRANCH  13  14
ATOM     14  S   UNL     1       9.193  -4.443  24.903  0.00  0.00    +0.208 S 
ATOM     15  O   UNL     1       8.461  -5.132  23.867  0.00  0.00    -0.118 OA
ATOM     16  O   UNL     1       8.631  -4.192  26.208  0.00  0.00    -0.118 OA
BRANCH  14  17
ATOM     17  O   UNL     1      10.561  -5.255  25.158  0.00  0.00    -0.231 OA
ATOM     18  H   UNL     1      11.161  -4.694  25.693  0.00  0.00    +0.247 HD
ENDBRANCH  14  17
ENDBRANCH  13  14
ENDBRANCH   3  13
TORSDOF 5
ENDMDL
MODEL 9
REMARK VINA RESULT:      -5.1      2.861      4.944
REMARK  Name = 
REMARK  5 active torsions:
REMARK  status: ('A' for Active; 'I' for Inactive)
REMARK    1  A    between atoms: O_1  and  C_2
REMARK    2  A    between atoms: C_10  and  O_12
REMARK    3  A    between atoms: O_12  and  S_13
REMARK    4  A    between atoms: S_13  and  O_14
REMARK    5  A    between atoms: C_17  and  O_19
REMARK                            x       y       z     vdW  Elec       q    Type
REMARK                         _______ _______ _______ _____ _____    ______ ____
ROOT
ATOM      1  C   UNL     1       6.154  -5.461  23.758  0.00  0.00    +0.177 C 
ATOM      2  C   UNL     1       7.426  -4.916  23.138  0.00  0.00    +0.185 C 
ATOM      3  C   UNL     1       7.385  -3.389  23.048  0.00  0.00    +0.238 C 
ATOM      4  C   UNL     1       5.982  -2.877  22.611  0.00  0.00    +0.282 C 
ATOM      5  O   UNL     1       4.904  -3.807  22.527  0.00  0.00    -0.341 OA
ATOM      6  O   UNL     1       7.455  -5.457  21.793  0.00  0.00    -0.368 OA
ATOM      7  C   UNL     1       6.075  -5.636  21.396  0.00  0.00    +0.194 C 
ATOM      8  C   UNL     1       5.229  -5.195  22.589  0.00  0.00    +0.178 C 
ENDROOT
BRANCH   1   9
ATOM      9  O   UNL     1       5.782  -4.788  24.950  0.00  0.00    -0.386 OA
ATOM     10  H   UNL     1       5.204  -5.388  25.457  0.00  0.00    +0.210 HD
ENDBRANCH   1   9
BRANCH   4  11
ATOM     11  O   UNL     1       5.547  -1.864  23.515  0.00  0.00    -0.365 OA
ATOM     12  H   UNL     1       5.873  -2.146  24.388  0.00  0.00    +0.213 HD
ENDBRANCH   4  11
BRANCH   3  13
ATOM     13  O   UNL     1       8.334  -2.918  22.079  0.00  0.00    -0.205 OA
BRANCH  13  14
ATOM     14  S   UNL     1       9.334  -1.696  22.437  0.00  0.00    +0.208 S 
ATOM     15  O   UNL     1      10.635  -2.236  22.756  0.00  0.00    -0.118 OA
ATOM     16  O   UNL     1       8.629  -0.806  23.328  0.00  0.00    -0.118 OA
BRANCH  14  17
ATOM     17  O   UNL     1       9.459  -0.912  21.035  0.00  0.00    -0.231 OA
ATOM     18  H   UNL     1       8.704  -1.169  20.466  0.00  0.00    +0.247 HD
ENDBRANCH  14  17
ENDBRANCH  13  14
ENDBRANCH   3  13
TORSDOF 5
ENDMDL
