MODEL 1
REMARK VINA RESULT:      -6.5      0.000      0.000
REMARK  Name = 
REMARK  5 active torsions:
REMARK  status: ('A' for Active; 'I' for Inactive)
REMARK    1  A    between atoms: O_1  and  C_2
REMARK    2  A    between atoms: C_5  and  C_6
REMARK    3  A    between atoms: N_7  and  O_8
REMARK    4  A    between atoms: O_8  and  C_9
REMARK    5  A    between atoms: C_9  and  C_11
REMARK                            x       y       z     vdW  Elec       q    Type
REMARK                         _______ _______ _______ _____ _____    ______ ____
ROOT
ATOM      1  C   UNL     1       9.688  -2.695  23.982  0.00  0.00    +0.161 C 
ATOM      2  N   UNL     1       8.934  -3.604  23.459  0.00  0.00    -0.082 NA
ENDROOT
BRANCH   1   7
ATOM      3  C   UNL     1       9.975   1.133  22.123  0.00  0.00    +0.152 A 
ATOM      4  C   UNL     1      10.389   0.955  23.444  0.00  0.00    +0.165 A 
ATOM      5  F   UNL     1      10.866   1.994  24.147  0.00  0.00    -0.202 F 
ATOM      6  C   UNL     1      10.312  -0.291  24.059  0.00  0.00    +0.051 A 
ATOM      7  C   UNL     1       9.810  -1.371  23.336  0.00  0.00    -0.001 A 
ATOM      8  C   UNL     1       9.405  -1.201  22.003  0.00  0.00    +0.013 A 
ATOM      9  C   UNL     1       9.487   0.053  21.394  0.00  0.00    +0.049 A 
BRANCH   3  10
ATOM     10  O   UNL     1      10.048   2.375  21.561  0.00  0.00    -0.504 OA
ATOM     11  H   UNL     1       9.253   2.532  21.028  0.00  0.00    +0.292 HD
ENDBRANCH   3  10
ENDBRANCH   1   7
BRANCH   2  12
ATOM     12  O   UNL     1       8.946  -4.779  24.232  0.00  0.00    -0.317 OA
BRANCH  12  13
ATOM     13  C   UNL     1       7.648  -5.177  24.455  0.00  0.00    +0.339 C 
ATOM     14  O   UNL     1       6.767  -5.255  23.601  0.00  0.00    -0.248 OA
BRANCH  13  15
ATOM     15  C   UNL     1       7.384  -5.452  25.936  0.00  0.00    +0.100 C 
ATOM     16  C   UNL     1       5.929  -5.786  26.288  0.00  0.00    +0.015 C 
ATOM     17  C   UNL     1       5.000  -4.579  26.162  0.00  0.00    +0.001 C 
ATOM     18  C   UNL     1       5.502  -3.389  26.974  0.00  0.00    +0.000 C 
ATOM     19  C   UNL     1       6.951  -3.045  26.646  0.00  0.00    +0.001 C 
ATOM     20  C   UNL     1       7.864  -4.264  26.787  0.00  0.00    +0.015 C 
ENDBRANCH  13  15
ENDBRANCH  12  13
ENDBRANCH   2  12
TORSDOF 5
ENDMDL
MODEL 2
REMARK VINA RESULT:      -6.5      1.212      2.018
REMARK  Name = 
REMARK  5 active torsions:
REMARK  status: ('A' for Active; 'I' for Inactive)
REMARK    1  A    between atoms: O_1  and  C_2
REMARK    2  A    between atoms: C_5  and  C_6
REMARK    3  A    between atoms: N_7  and  O_8
REMARK    4  A    between atoms: O_8  and  C_9
REMARK    5  A    between atoms: C_9  and  C_11
REMARK                            x       y       z     vdW  Elec       q    Type
REMARK                         _______ _______ _______ _____ _____    ______ ____
ROOT
ATOM      1  C   UNL     1       9.142  -2.641  23.769  0.00  0.00    +0.161 C 
ATOM      2  N   UNL     1       8.661  -3.559  22.998  0.00  0.00    -0.082 NA
ENDROOT
BRANCH   1   7
ATOM      3  C   UNL     1      10.067   1.209  22.182  0.00  0.00    +0.152 A 
ATOM      4  C   UNL     1      10.444   0.870  23.482  0.00  0.00    +0.165 A 
ATOM      5  F   UNL     1      11.085   1.763  24.252  0.00  0.00    -0.202 F 
ATOM      6  C   UNL     1      10.159  -0.387  24.009  0.00  0.00    +0.051 A 
ATOM      7  C   UNL     1       9.484  -1.313  23.216  0.00  0.00    -0.001 A 
ATOM      8  C   UNL     1       9.116  -0.983  21.903  0.00  0.00    +0.013 A 
ATOM      9  C   UNL     1       9.407   0.279  21.383  0.00  0.00    +0.049 A 
BRANCH   3  10
ATOM     10  O   UNL     1      10.347   2.457  21.708  0.00  0.00    -0.504 OA
ATOM     11  H   UNL     1       9.516   2.929  21.537  0.00  0.00    +0.292 HD
ENDBRANCH   3  10
ENDBRANCH   1   7
BRANCH   2  12
ATOM     12  O   UNL     1       8.391  -4.737  23.718  0.00  0.00    -0.317 OA
BRANCH  12  13
ATOM     13  C   UNL     1       7.236  -5.301  23.230  0.00  0.00    +0.339 C 
ATOM     14  O   UNL     1       7.173  -6.154  22.347  0.00  0.00    -0.248 OA
BRANCH  13  15
ATOM     15  C   UNL     1       5.990  -4.684  23.867  0.00  0.00    +0.100 C 
ATOM     16  C   UNL     1       6.069  -4.475  25.385  0.00  0.00    +0.015 C 
ATOM     17  C   UNL     1       6.037  -5.789  26.164  0.00  0.00    +0.001 C 
ATOM     18  C   UNL     1       4.828  -6.641  25.790  0.00  0.00    +0.000 C 
ATOM     19  C   UNL     1       4.724  -6.854  24.284  0.00  0.00    +0.001 C 
ATOM     20  C   UNL     1       4.749  -5.527  23.524  0.00  0.00    +0.015 C 
ENDBRANCH  13  15
ENDBRANCH  12  13
ENDBRANCH   2  12
TORSDOF 5
ENDMDL
MODEL 3
REMARK VINA RESULT:      -6.5      3.177      7.034
REMARK  Name = 
REMARK  5 active torsions:
REMARK  status: ('A' for Active; 'I' for Inactive)
REMARK    1  A    between atoms: O_1  and  C_2
REMARK    2  A    between atoms: C_5  and  C_6
REMARK    3  A    between atoms: N_7  and  O_8
REMARK    4  A    between atoms: O_8  and  C_9
REMARK    5  A    between atoms: C_9  and  C_11
REMARK                            x       y       z     vdW  Elec       q    Type
REMARK                         _______ _______ _______ _____ _____    ______ ____
ROOT
ATOM      1  C   UNL     1       8.014  -3.933  24.746  0.00  0.00    +0.161 C 
ATOM      2  N   UNL     1       8.924  -3.824  23.836  0.00  0.00    -0.082 NA
ENDROOT
BRANCH   1   7
ATOM      3  C   UNL     1       4.834  -6.725  24.211  0.00  0.00    +0.152 A 
ATOM      4  C   UNL     1       5.288  -6.406  25.492  0.00  0.00    +0.165 A 
ATOM      5  F   UNL     1       4.738  -6.991  26.568  0.00  0.00    -0.202 F 
ATOM      6  C   UNL     1       6.317  -5.488  25.682  0.00  0.00    +0.051 A 
ATOM      7  C   UNL     1       6.897  -4.885  24.568  0.00  0.00    -0.001 A 
ATOM      8  C   UNL     1       6.435  -5.191  23.278  0.00  0.00    +0.013 A 
ATOM      9  C   UNL     1       5.402  -6.112  23.098  0.00  0.00    +0.049 A 
BRANCH   3  10
ATOM     10  O   UNL     1       3.837  -7.645  24.065  0.00  0.00    -0.504 OA
ATOM     11  H   UNL     1       4.001  -8.393  24.660  0.00  0.00    +0.292 HD
ENDBRANCH   3  10
ENDBRANCH   1   7
BRANCH   2  12
ATOM     12  O   UNL     1       9.899  -2.879  24.204  0.00  0.00    -0.317 OA
BRANCH  12  13
ATOM     13  C   UNL     1       9.934  -1.885  23.253  0.00  0.00    +0.339 C 
ATOM     14  O   UNL     1      10.664  -1.864  22.265  0.00  0.00    -0.248 OA
BRANCH  13  15
ATOM     15  C   UNL     1       8.990  -0.733  23.604  0.00  0.00    +0.100 C 
ATOM     16  C   UNL     1       8.735   0.269  22.469  0.00  0.00    +0.015 C 
ATOM     17  C   UNL     1       9.959   1.128  22.156  0.00  0.00    +0.001 C 
ATOM     18  C   UNL     1      10.492   1.832  23.399  0.00  0.00    +0.000 C 
ATOM     19  C   UNL     1      10.744   0.856  24.543  0.00  0.00    +0.001 C 
ATOM     20  C   UNL     1       9.506   0.012  24.847  0.00  0.00    +0.015 C 
ENDBRANCH  13  15
ENDBRANCH  12  13
ENDBRANCH   2  12
TORSDOF 5
ENDMDL
MODEL 4
REMARK VINA RESULT:      -6.4      3.032      7.038
REMARK  Name = 
REMARK  5 active torsions:
REMARK  status: ('A' for Active; 'I' for Inactive)
REMARK    1  A    between atoms: O_1  and  C_2
REMARK    2  A    between atoms: C_5  and  C_6
REMARK    3  A    between atoms: N_7  and  O_8
REMARK    4  A    between atoms: O_8  and  C_9
REMARK    5  A    between atoms: C_9  and  C_11
REMARK                            x       y       z     vdW  Elec       q    Type
REMARK                         _______ _______ _______ _____ _____    ______ ____
ROOT
ATOM      1  C   UNL     1       7.978  -3.633  24.579  0.00  0.00    +0.161 C 
ATOM      2  N   UNL     1       9.020  -3.624  23.816  0.00  0.00    -0.082 NA
ENDROOT
BRANCH   1   7
ATOM      3  C   UNL     1       4.934  -6.581  24.093  0.00  0.00    +0.152 A 
ATOM      4  C   UNL     1       5.507  -5.965  22.979  0.00  0.00    +0.165 A 
ATOM      5  F   UNL     1       5.090  -6.282  21.744  0.00  0.00    -0.202 F 
ATOM      6  C   UNL     1       6.509  -5.010  23.123  0.00  0.00    +0.051 A 
ATOM      7  C   UNL     1       6.939  -4.670  24.404  0.00  0.00    -0.001 A 
ATOM      8  C   UNL     1       6.377  -5.297  25.527  0.00  0.00    +0.013 A 
ATOM      9  C   UNL     1       5.373  -6.255  25.373  0.00  0.00    +0.049 A 
BRANCH   3  10
ATOM     10  O   UNL     1       3.940  -7.499  23.913  0.00  0.00    -0.504 OA
ATOM     11  H   UNL     1       3.434  -7.588  24.736  0.00  0.00    +0.292 HD
ENDBRANCH   3  10
ENDBRANCH   1   7
BRANCH   2  12
ATOM     12  O   UNL     1       9.889  -2.571  24.154  0.00  0.00    -0.317 OA
BRANCH  12  13
ATOM     13  C   UNL     1       9.888  -1.649  23.133  0.00  0.00    +0.339 C 
ATOM     14  O   UNL     1      10.596  -1.694  22.129  0.00  0.00    -0.248 OA
BRANCH  13  15
ATOM     15  C   UNL     1       8.937  -0.487  23.418  0.00  0.00    +0.100 C 
ATOM     16  C   UNL     1       8.779   0.523  22.273  0.00  0.00    +0.015 C 
ATOM     17  C   UNL     1      10.034   1.367  22.054  0.00  0.00    +0.001 C 
ATOM     18  C   UNL     1      10.484   2.059  23.336  0.00  0.00    +0.000 C 
ATOM     19  C   UNL     1      10.638   1.075  24.491  0.00  0.00    +0.001 C 
ATOM     20  C   UNL     1       9.369   0.247  24.699  0.00  0.00    +0.015 C 
ENDBRANCH  13  15
ENDBRANCH  12  13
ENDBRANCH   2  12
TORSDOF 5
ENDMDL
MODEL 5
REMARK VINA RESULT:      -6.3      1.985      2.892
REMARK  Name = 
REMARK  5 active torsions:
REMARK  status: ('A' for Active; 'I' for Inactive)
REMARK    1  A    between atoms: O_1  and  C_2
REMARK    2  A    between atoms: C_5  and  C_6
REMARK    3  A    between atoms: N_7  and  O_8
REMARK    4  A    between atoms: O_8  and  C_9
REMARK    5  A    between atoms: C_9  and  C_11
REMARK                            x       y       z     vdW  Elec       q    Type
REMARK                         _______ _______ _______ _____ _____    ______ ____
ROOT
ATOM      1  C   UNL     1       9.537  -2.133  24.486  0.00  0.00    +0.161 C 
ATOM      2  N   UNL     1       9.651  -3.172  23.727  0.00  0.00    -0.082 NA
ENDROOT
BRANCH   1   7
ATOM      3  C   UNL     1      10.249   1.752  22.875  0.00  0.00    +0.152 A 
ATOM      4  C   UNL     1       9.539   0.801  22.141  0.00  0.00    +0.165 A 
ATOM      5  F   UNL     1       9.090   1.096  20.912  0.00  0.00    -0.202 F 
ATOM      6  C   UNL     1       9.289  -0.467  22.659  0.00  0.00    +0.051 A 
ATOM      7  C   UNL     1       9.762  -0.781  23.932  0.00  0.00    -0.001 A 
ATOM      8  C   UNL     1      10.464   0.176  24.681  0.00  0.00    +0.013 A 
ATOM      9  C   UNL     1      10.709   1.446  24.153  0.00  0.00    +0.049 A 
BRANCH   3  10
ATOM     10  O   UNL     1      10.490   2.977  22.326  0.00  0.00    -0.504 OA
ATOM     11  H   UNL     1      10.130   3.001  21.425  0.00  0.00    +0.292 HD
ENDBRANCH   3  10
ENDBRANCH   1   7
BRANCH   2  12
ATOM     12  O   UNL     1       9.384  -4.354  24.441  0.00  0.00    -0.317 OA
BRANCH  12  13
ATOM     13  C   UNL     1       8.047  -4.655  24.319  0.00  0.00    +0.339 C 
ATOM     14  O   UNL     1       7.358  -5.211  25.171  0.00  0.00    -0.248 OA
BRANCH  13  15
ATOM     15  C   UNL     1       7.506  -4.279  22.939  0.00  0.00    +0.100 C 
ATOM     16  C   UNL     1       6.260  -3.383  22.949  0.00  0.00    +0.015 C 
ATOM     17  C   UNL     1       5.011  -4.115  23.439  0.00  0.00    +0.001 C 
ATOM     18  C   UNL     1       4.758  -5.396  22.651  0.00  0.00    +0.000 C 
ATOM     19  C   UNL     1       5.987  -6.299  22.620  0.00  0.00    +0.001 C 
ATOM     20  C   UNL     1       7.223  -5.550  22.119  0.00  0.00    +0.015 C 
ENDBRANCH  13  15
ENDBRANCH  12  13
ENDBRANCH   2  12
TORSDOF 5
ENDMDL
MODEL 6
REMARK VINA RESULT:      -6.2      3.650      6.786
REMARK  Name = 
REMARK  5 active torsions:
REMARK  status: ('A' for Active; 'I' for Inactive)
REMARK    1  A    between atoms: O_1  and  C_2
REMARK    2  A    between atoms: C_5  and  C_6
REMARK    3  A    between atoms: N_7  and  O_8
REMARK    4  A    between atoms: O_8  and  C_9
REMARK    5  A    between atoms: C_9  and  C_11
REMARK                            x       y       z     vdW  Elec       q    Type
REMARK                         _______ _______ _______ _____ _____    ______ ____
ROOT
ATOM      1  C   UNL     1       8.267  -2.448  22.463  0.00  0.00    +0.161 C 
ATOM      2  N   UNL     1       9.214  -2.474  23.340  0.00  0.00    -0.082 NA
ENDROOT
BRANCH   1   7
ATOM      3  C   UNL     1       5.105  -5.309  22.556  0.00  0.00    +0.152 A 
ATOM      4  C   UNL     1       6.405  -5.701  22.234  0.00  0.00    +0.165 A 
ATOM      5  F   UNL     1       6.669  -6.982  21.932  0.00  0.00    -0.202 F 
ATOM      6  C   UNL     1       7.449  -4.780  22.211  0.00  0.00    +0.051 A 
ATOM      7  C   UNL     1       7.179  -3.448  22.515  0.00  0.00    -0.001 A 
ATOM      8  C   UNL     1       5.876  -3.050  22.854  0.00  0.00    +0.013 A 
ATOM      9  C   UNL     1       4.836  -3.981  22.875  0.00  0.00    +0.049 A 
BRANCH   3  10
ATOM     10  O   UNL     1       4.105  -6.238  22.549  0.00  0.00    -0.504 OA
ATOM     11  H   UNL     1       3.394  -5.947  23.142  0.00  0.00    +0.292 HD
ENDBRANCH   3  10
ENDBRANCH   1   7
BRANCH   2  12
ATOM     12  O   UNL     1      10.136  -1.434  23.123  0.00  0.00    -0.317 OA
BRANCH  12  13
ATOM     13  C   UNL     1       9.959  -0.473  24.091  0.00  0.00    +0.339 C 
ATOM     14  O   UNL     1       9.448  -0.655  25.194  0.00  0.00    -0.248 OA
BRANCH  13  15
ATOM     15  C   UNL     1      10.410   0.907  23.611  0.00  0.00    +0.100 C 
ATOM     16  C   UNL     1       9.867   2.090  24.423  0.00  0.00    +0.015 C 
ATOM     17  C   UNL     1       8.369   2.309  24.216  0.00  0.00    +0.001 C 
ATOM     18  C   UNL     1       8.014   2.449  22.739  0.00  0.00    +0.000 C 
ATOM     19  C   UNL     1       8.553   1.287  21.910  0.00  0.00    +0.001 C 
ATOM     20  C   UNL     1      10.054   1.091  22.125  0.00  0.00    +0.015 C 
ENDBRANCH  13  15
ENDBRANCH  12  13
ENDBRANCH   2  12
TORSDOF 5
ENDMDL
MODEL 7
REMARK VINA RESULT:      -6.2      2.806      6.697
REMARK  Name = 
REMARK  5 active torsions:
REMARK  status: ('A' for Active; 'I' for Inactive)
REMARK    1  A    between atoms: O_1  and  C_2
REMARK    2  A    between atoms: C_5  and  C_6
REMARK    3  A    between atoms: N_7  and  O_8
REMARK    4  A    between atoms: O_8  and  C_9
REMARK    5  A    between atoms: C_9  and  C_11
REMARK                            x       y       z     vdW  Elec       q    Type
REMARK                         _______ _______ _______ _____ _____    ______ ____
ROOT
ATOM      1  C   UNL     1       9.694  -2.912  24.193  0.00  0.00    +0.161 C 
ATOM      2  N   UNL     1       9.379  -2.298  23.101  0.00  0.00    -0.082 NA
ENDROOT
BRANCH   1   7
ATOM      3  C   UNL     1       6.899  -5.549  26.043  0.00  0.00    +0.152 A 
ATOM      4  C   UNL     1       6.761  -5.202  24.699  0.00  0.00    +0.165 A 
ATOM      5  F   UNL     1       5.734  -5.682  23.980  0.00  0.00    -0.202 F 
ATOM      6  C   UNL     1       7.672  -4.352  24.079  0.00  0.00    +0.051 A 
ATOM      7  C   UNL     1       8.734  -3.843  24.823  0.00  0.00    -0.001 A 
ATOM      8  C   UNL     1       8.887  -4.200  26.172  0.00  0.00    +0.013 A 
ATOM      9  C   UNL     1       7.968  -5.055  26.785  0.00  0.00    +0.049 A 
BRANCH   3  10
ATOM     10  O   UNL     1       5.974  -6.370  26.620  0.00  0.00    -0.504 OA
ATOM     11  H   UNL     1       5.240  -5.835  26.963  0.00  0.00    +0.292 HD
ENDBRANCH   3  10
ENDBRANCH   1   7
BRANCH   2  12
ATOM     12  O   UNL     1      10.430  -1.473  22.661  0.00  0.00    -0.317 OA
BRANCH  12  13
ATOM     13  C   UNL     1       9.897  -0.369  22.037  0.00  0.00    +0.339 C 
ATOM     14  O   UNL     1       9.164  -0.390  21.050  0.00  0.00    -0.248 OA
BRANCH  13  15
ATOM     15  C   UNL     1      10.384   0.933  22.673  0.00  0.00    +0.100 C 
ATOM     16  C   UNL     1      10.637   0.865  24.185  0.00  0.00    +0.015 C 
ATOM     17  C   UNL     1       9.346   0.742  24.994  0.00  0.00    +0.001 C 
ATOM     18  C   UNL     1       8.354   1.849  24.653  0.00  0.00    +0.000 C 
ATOM     19  C   UNL     1       8.095   1.941  23.153  0.00  0.00    +0.001 C 
ATOM     20  C   UNL     1       9.398   2.073  22.364  0.00  0.00    +0.015 C 
ENDBRANCH  13  15
ENDBRANCH  12  13
ENDBRANCH   2  12
TORSDOF 5
ENDMDL
MODEL 8
REMARK VINA RESULT:      -6.2      1.429      2.084
REMARK  Name = 
REMARK  5 active torsions:
REMARK  status: ('A' for Active; 'I' for Inactive)
REMARK    1  A    between atoms: O_1  and  C_2
REMARK    2  A    between atoms: C_5  and  C_6
REMARK    3  A    between atoms: N_7  and  O_8
REMARK    4  A    between atoms: O_8  and  C_9
REMARK    5  A    between atoms: C_9  and  C_11
REMARK                            x       y       z     vdW  Elec       q    Type
REMARK                         _______ _______ _______ _____ _____    ______ ____
ROOT
ATOM      1  C   UNL     1       8.953  -2.603  23.464  0.00  0.00    +0.161 C 
ATOM      2  N   UNL     1       9.780  -3.358  24.108  0.00  0.00    -0.082 NA
ENDROOT
BRANCH   1   7
ATOM      3  C   UNL     1      10.085   1.313  22.209  0.00  0.00    +0.152 A 
ATOM      4  C   UNL     1      10.458   0.837  23.467  0.00  0.00    +0.165 A 
ATOM      5  F   UNL     1      11.163   1.617  24.301  0.00  0.00    -0.202 F 
ATOM      6  C   UNL     1      10.106  -0.443  23.885  0.00  0.00    +0.051 A 
ATOM      7  C   UNL     1       9.366  -1.254  23.026  0.00  0.00    -0.001 A 
ATOM      8  C   UNL     1       9.001  -0.786  21.754  0.00  0.00    +0.013 A 
ATOM      9  C   UNL     1       9.360   0.499  21.343  0.00  0.00    +0.049 A 
BRANCH   3  10
ATOM     10  O   UNL     1      10.433   2.580  21.843  0.00  0.00    -0.504 OA
ATOM     11  H   UNL     1       9.759   3.202  22.160  0.00  0.00    +0.292 HD
ENDBRANCH   3  10
ENDBRANCH   1   7
BRANCH   2  12
ATOM     12  O   UNL     1       9.198  -4.600  24.419  0.00  0.00    -0.317 OA
BRANCH  12  13
ATOM     13  C   UNL     1       8.051  -4.383  25.147  0.00  0.00    +0.339 C 
ATOM     14  O   UNL     1       7.954  -3.651  26.129  0.00  0.00    -0.248 OA
BRANCH  13  15
ATOM     15  C   UNL     1       6.885  -5.230  24.635  0.00  0.00    +0.100 C 
ATOM     16  C   UNL     1       6.912  -5.536  23.131  0.00  0.00    +0.015 C 
ATOM     17  C   UNL     1       6.628  -4.303  22.274  0.00  0.00    +0.001 C 
ATOM     18  C   UNL     1       5.322  -3.623  22.671  0.00  0.00    +0.000 C 
ATOM     19  C   UNL     1       5.269  -3.318  24.165  0.00  0.00    +0.001 C 
ATOM     20  C   UNL     1       5.547  -4.566  25.004  0.00  0.00    +0.015 C 
ENDBRANCH  13  15
ENDBRANCH  12  13
ENDBRANCH   2  12
TORSDOF 5
ENDMDL
MODEL 9
REMARK VINA RESULT:      -6.1      3.441      6.559
REMARK  Name = 
REMARK  5 active torsions:
REMARK  status: ('A' for Active; 'I' for Inactive)
REMARK    1  A    between atoms: O_1  and  C_2
REMARK    2  A    between atoms: C_5  and  C_6
REMARK    3  A    between atoms: N_7  and  O_8
REMARK    4  A    between atoms: O_8  and  C_9
REMARK    5  A    between atoms: C_9  and  C_11
REMARK                            x       y       z     vdW  Elec       q    Type
REMARK                         _______ _______ _______ _____ _____    ______ ____
ROOT
ATOM      1  C   UNL     1       8.630  -2.657  23.142  0.00  0.00    +0.161 C 
ATOM      2  N   UNL     1       9.014  -1.922  22.152  0.00  0.00    -0.082 NA
ENDROOT
BRANCH   1   7
ATOM      3  C   UNL     1       5.038  -4.929  22.780  0.00  0.00    +0.152 A 
ATOM      4  C   UNL     1       6.269  -5.493  22.441  0.00  0.00    +0.165 A 
ATOM      5  F   UNL     1       6.331  -6.752  21.980  0.00  0.00    -0.202 F 
ATOM      6  C   UNL     1       7.451  -4.767  22.566  0.00  0.00    +0.051 A 
ATOM      7  C   UNL     1       7.391  -3.457  23.035  0.00  0.00    -0.001 A 
ATOM      8  C   UNL     1       6.158  -2.889  23.391  0.00  0.00    +0.013 A 
ATOM      9  C   UNL     1       4.978  -3.625  23.265  0.00  0.00    +0.049 A 
BRANCH   3  10
ATOM     10  O   UNL     1       3.900  -5.666  22.627  0.00  0.00    -0.504 OA
ATOM     11  H   UNL     1       3.945  -6.448  23.200  0.00  0.00    +0.292 HD
ENDBRANCH   3  10
ENDBRANCH   1   7
BRANCH   2  12
ATOM     12  O   UNL     1      10.218  -1.257  22.450  0.00  0.00    -0.317 OA
BRANCH  12  13
ATOM     13  C   UNL     1      10.012   0.099  22.348  0.00  0.00    +0.339 C 
ATOM     14  O   UNL     1       9.503   0.676  21.389  0.00  0.00    -0.248 OA
BRANCH  13  15
ATOM     15  C   UNL     1      10.566   0.850  23.560  0.00  0.00    +0.100 C 
ATOM     16  C   UNL     1      10.234   0.225  24.921  0.00  0.00    +0.015 C 
ATOM     17  C   UNL     1       8.756   0.359  25.287  0.00  0.00    +0.001 C 
ATOM     18  C   UNL     1       8.284   1.808  25.219  0.00  0.00    +0.000 C 
ATOM     19  C   UNL     1       8.612   2.452  23.876  0.00  0.00    +0.001 C 
ATOM     20  C   UNL     1      10.096   2.315  23.534  0.00  0.00    +0.015 C 
ENDBRANCH  13  15
ENDBRANCH  12  13
ENDBRANCH   2  12
TORSDOF 5
ENDMDL
