MODEL 1
REMARK VINA RESULT:      -7.5      0.000      0.000
REMARK  Name = 
REMARK  12 active torsions:
REMARK  status: ('A' for Active; 'I' for Inactive)
REMARK    1  A    between atoms: C_1  and  C_2
REMARK    2  A    between atoms: C_2  and  O_3
REMARK    3  A    between atoms: O_3  and  C_4
REMARK    4  A    between atoms: C_4  and  C_6
REMARK    5  A    between atoms: C_6  and  C_8
REMARK    6  A    between atoms: C_6  and  N_16
REMARK    7  A    between atoms: C_8  and  C_9
REMARK    8  A    between atoms: C_9  and  C_10
REMARK    9  A    between atoms: N_16  and  C_17
REMARK   10  A    between atoms: N_27  and  C_28
REMARK   11  A    between atoms: C_28  and  C_29
REMARK   12  A    between atoms: C_29  and  O_30
REMARK                            x       y       z     vdW  Elec       q    Type
REMARK                         _______ _______ _______ _____ _____    ______ ____
ROOT
ATOM      1  C   UNL     1       8.690  -2.387  22.563  0.00  0.00    +0.142 C 
ATOM      2  C   UNL     1       7.430  -3.283  22.520  0.00  0.00    +0.237 C 
ATOM      3  O   UNL     1       6.370  -2.961  21.976  0.00  0.00    -0.274 OA
ATOM      4  N   UNL     1       7.624  -4.598  22.933  0.00  0.00    -0.259 N 
ATOM      5  C   UNL     1       7.539  -4.827  24.330  0.00  0.00    +0.040 A 
ATOM      6  C   UNL     1       8.507  -4.244  25.170  0.00  0.00    -0.026 A 
ATOM      7  C   UNL     1       8.343  -4.300  26.559  0.00  0.00    +0.005 A 
ATOM      8  C   UNL     1       7.229  -4.919  27.109  0.00  0.00    +0.000 A 
ATOM      9  C   UNL     1       6.293  -5.529  26.281  0.00  0.00    +0.002 A 
ATOM     10  C   UNL     1       9.710  -3.550  24.591  0.00  0.00    +0.039 C 
ATOM     11  C   UNL     1       6.456  -5.509  24.892  0.00  0.00    +0.024 A 
ATOM     12  C   UNL     1       9.309  -2.225  23.952  0.00  0.00    +0.033 C 
ENDROOT
BRANCH   1  13
ATOM     13  N   UNL     1       8.376  -1.055  21.993  0.00  0.00    -0.293 NA
ATOM     14  H   UNL     1       8.961  -0.892  21.166  0.00  0.00    +0.123 HD
BRANCH  13  15
ATOM     15  C   UNL     1       8.544   0.070  22.946  0.00  0.00    +0.164 C 
BRANCH  15  16
ATOM     16  C   UNL     1       7.187   0.780  23.132  0.00  0.00    +0.324 C 
ATOM     17  O   UNL     1       6.621   1.439  22.269  0.00  0.00    -0.249 OA
BRANCH  16  18
ATOM     18  O   UNL     1       6.746   0.584  24.405  0.00  0.00    -0.464 OA
BRANCH  18  20
ATOM     19  C   UNL     1       6.326  -1.251  25.919  0.00  0.00    +0.048 C 
ATOM     20  C   UNL     1       5.923  -0.572  24.623  0.00  0.00    +0.229 C 
ENDBRANCH  18  20
ENDBRANCH  16  18
ENDBRANCH  15  16
BRANCH  15  21
ATOM     21  C   UNL     1       9.627   1.054  22.489  0.00  0.00    +0.035 C 
BRANCH  21  22
ATOM     22  C   UNL     1      10.496   1.609  23.619  0.00  0.00    +0.037 C 
BRANCH  22  23
ATOM     23  C   UNL     1      10.435   3.118  23.581  0.00  0.00    -0.047 A 
ATOM     24  C   UNL     1       9.237   3.793  23.851  0.00  0.00    +0.003 A 
ATOM     25  C   UNL     1       9.209   5.186  23.919  0.00  0.00    +0.000 A 
ATOM     26  C   UNL     1      10.377   5.920  23.719  0.00  0.00    +0.000 A 
ATOM     27  C   UNL     1      11.574   5.258  23.449  0.00  0.00    +0.000 A 
ATOM     28  C   UNL     1      11.604   3.866  23.383  0.00  0.00    +0.003 A 
ENDBRANCH  22  23
ENDBRANCH  21  22
ENDBRANCH  15  21
ENDBRANCH  13  15
ENDBRANCH   1  13
BRANCH   4  29
ATOM     29  C   UNL     1       7.324  -5.668  21.984  0.00  0.00    +0.234 C 
BRANCH  29  30
ATOM     30  C   UNL     1       6.003  -5.755  21.224  0.00  0.00    +0.323 C 
ATOM     31  O   UNL     1       5.949  -5.642  20.004  0.00  0.00    -0.249 OA
BRANCH  30  32
ATOM     32  O   UNL     1       4.892  -5.917  21.968  0.00  0.00    -0.480 OA
ATOM     33  H   UNL     1       4.763  -5.196  22.630  0.00  0.00    +0.295 HD
ENDBRANCH  30  32
ENDBRANCH  29  30
ENDBRANCH   4  29
TORSDOF 11
ENDMDL
MODEL 2
REMARK VINA RESULT:      -7.4      2.581      3.814
REMARK  Name = 
REMARK  12 active torsions:
REMARK  status: ('A' for Active; 'I' for Inactive)
REMARK    1  A    between atoms: C_1  and  C_2
REMARK    2  A    between atoms: C_2  and  O_3
REMARK    3  A    between atoms: O_3  and  C_4
REMARK    4  A    between atoms: C_4  and  C_6
REMARK    5  A    between atoms: C_6  and  C_8
REMARK    6  A    between atoms: C_6  and  N_16
REMARK    7  A    between atoms: C_8  and  C_9
REMARK    8  A    between atoms: C_9  and  C_10
REMARK    9  A    between atoms: N_16  and  C_17
REMARK   10  A    between atoms: N_27  and  C_28
REMARK   11  A    between atoms: C_28  and  C_29
REMARK   12  A    between atoms: C_29  and  O_30
REMARK                            x       y       z     vdW  Elec       q    Type
REMARK                         _______ _______ _______ _____ _____    ______ ____
ROOT
ATOM      1  C   UNL     1       7.187  -3.230  23.235  0.00  0.00    +0.142 C 
ATOM      2  C   UNL     1       7.323  -4.708  23.671  0.00  0.00    +0.237 C 
ATOM      3  O   UNL     1       8.119  -5.506  23.172  0.00  0.00    -0.274 OA
ATOM      4  N   UNL     1       6.650  -5.044  24.843  0.00  0.00    -0.259 N 
ATOM      5  C   UNL     1       5.281  -5.385  24.693  0.00  0.00    +0.040 A 
ATOM      6  C   UNL     1       4.381  -4.392  24.262  0.00  0.00    -0.026 A 
ATOM      7  C   UNL     1       3.067  -4.745  23.932  0.00  0.00    +0.005 A 
ATOM      8  C   UNL     1       2.652  -6.067  24.018  0.00  0.00    +0.000 A 
ATOM      9  C   UNL     1       3.530  -7.042  24.481  0.00  0.00    +0.002 A 
ATOM     10  C   UNL     1       4.818  -2.957  24.142  0.00  0.00    +0.039 C 
ATOM     11  C   UNL     1       4.837  -6.703  24.844  0.00  0.00    +0.024 A 
ATOM     12  C   UNL     1       5.753  -2.780  22.951  0.00  0.00    +0.033 C 
ENDROOT
BRANCH   1  13
ATOM     13  N   UNL     1       8.038  -2.979  22.049  0.00  0.00    -0.293 NA
ATOM     14  H   UNL     1       8.533  -3.842  21.796  0.00  0.00    +0.123 HD
BRANCH  13  15
ATOM     15  C   UNL     1       9.022  -1.881  22.227  0.00  0.00    +0.164 C 
BRANCH  15  16
ATOM     16  C   UNL     1       9.780  -2.095  23.554  0.00  0.00    +0.324 C 
ATOM     17  O   UNL     1      10.292  -3.152  23.902  0.00  0.00    -0.249 OA
BRANCH  16  18
ATOM     18  O   UNL     1       9.755  -0.942  24.279  0.00  0.00    -0.464 OA
BRANCH  18  20
ATOM     19  C   UNL     1       8.296   0.313  25.738  0.00  0.00    +0.048 C 
ATOM     20  C   UNL     1       9.048  -0.989  25.527  0.00  0.00    +0.229 C 
ENDBRANCH  18  20
ENDBRANCH  16  18
ENDBRANCH  15  16
BRANCH  15  21
ATOM     21  C   UNL     1       8.358  -0.501  22.185  0.00  0.00    +0.035 C 
BRANCH  21  22
ATOM     22  C   UNL     1       9.096   0.530  21.329  0.00  0.00    +0.037 C 
BRANCH  22  23
ATOM     23  C   UNL     1       9.130   1.844  22.075  0.00  0.00    -0.047 A 
ATOM     24  C   UNL     1       7.998   2.669  22.124  0.00  0.00    +0.003 A 
ATOM     25  C   UNL     1       8.000   3.828  22.901  0.00  0.00    +0.000 A 
ATOM     26  C   UNL     1       9.131   4.174  23.638  0.00  0.00    +0.000 A 
ATOM     27  C   UNL     1      10.262   3.359  23.596  0.00  0.00    +0.000 A 
ATOM     28  C   UNL     1      10.261   2.200  22.822  0.00  0.00    +0.003 A 
ENDBRANCH  22  23
ENDBRANCH  21  22
ENDBRANCH  15  21
ENDBRANCH  13  15
ENDBRANCH   1  13
BRANCH   4  29
ATOM     29  C   UNL     1       7.432  -5.576  25.957  0.00  0.00    +0.234 C 
BRANCH  29  30
ATOM     30  C   UNL     1       8.828  -5.069  26.305  0.00  0.00    +0.323 C 
ATOM     31  O   UNL     1       9.002  -4.112  27.051  0.00  0.00    -0.249 OA
BRANCH  30  32
ATOM     32  O   UNL     1       9.861  -5.700  25.713  0.00  0.00    -0.480 OA
ATOM     33  H   UNL     1       9.629  -6.605  25.396  0.00  0.00    +0.295 HD
ENDBRANCH  30  32
ENDBRANCH  29  30
ENDBRANCH   4  29
TORSDOF 11
ENDMDL
MODEL 3
REMARK VINA RESULT:      -7.3      2.426      3.804
REMARK  Name = 
REMARK  12 active torsions:
REMARK  status: ('A' for Active; 'I' for Inactive)
REMARK    1  A    between atoms: C_1  and  C_2
REMARK    2  A    between atoms: C_2  and  O_3
REMARK    3  A    between atoms: O_3  and  C_4
REMARK    4  A    between atoms: C_4  and  C_6
REMARK    5  A    between atoms: C_6  and  C_8
REMARK    6  A    between atoms: C_6  and  N_16
REMARK    7  A    between atoms: C_8  and  C_9
REMARK    8  A    between atoms: C_9  and  C_10
REMARK    9  A    between atoms: N_16  and  C_17
REMARK   10  A    between atoms: N_27  and  C_28
REMARK   11  A    between atoms: C_28  and  C_29
REMARK   12  A    between atoms: C_29  and  O_30
REMARK                            x       y       z     vdW  Elec       q    Type
REMARK                         _______ _______ _______ _____ _____    ______ ____
ROOT
ATOM      1  C   UNL     1       8.758  -1.740  24.069  0.00  0.00    +0.142 C 
ATOM      2  C   UNL     1       9.217  -3.216  24.115  0.00  0.00    +0.237 C 
ATOM      3  O   UNL     1      10.396  -3.576  24.075  0.00  0.00    -0.274 OA
ATOM      4  N   UNL     1       8.224  -4.135  24.446  0.00  0.00    -0.259 N 
ATOM      5  C   UNL     1       7.420  -4.590  23.371  0.00  0.00    +0.040 A 
ATOM      6  C   UNL     1       6.581  -3.667  22.717  0.00  0.00    -0.026 A 
ATOM      7  C   UNL     1       5.918  -4.043  21.543  0.00  0.00    +0.005 A 
ATOM      8  C   UNL     1       6.090  -5.317  21.018  0.00  0.00    +0.000 A 
ATOM      9  C   UNL     1       6.888  -6.242  21.684  0.00  0.00    +0.002 A 
ATOM     10  C   UNL     1       6.399  -2.275  23.260  0.00  0.00    +0.039 C 
ATOM     11  C   UNL     1       7.533  -5.892  22.874  0.00  0.00    +0.024 A 
ATOM     12  C   UNL     1       7.661  -1.447  23.045  0.00  0.00    +0.033 C 
ENDROOT
BRANCH   1  13
ATOM     13  N   UNL     1       9.926  -0.862  23.822  0.00  0.00    -0.293 NA
ATOM     14  H   UNL     1      10.755  -1.439  23.643  0.00  0.00    +0.123 HD
BRANCH  13  15
ATOM     15  C   UNL     1      10.216   0.089  24.925  0.00  0.00    +0.164 C 
BRANCH  15  16
ATOM     16  C   UNL     1       9.070   0.027  25.957  0.00  0.00    +0.324 C 
ATOM     17  O   UNL     1       8.974  -0.813  26.842  0.00  0.00    -0.249 OA
BRANCH  16  18
ATOM     18  O   UNL     1       8.180   1.027  25.703  0.00  0.00    -0.464 OA
BRANCH  18  20
ATOM     19  C   UNL     1       5.885   1.158  24.962  0.00  0.00    +0.048 C 
ATOM     20  C   UNL     1       6.821   0.785  26.096  0.00  0.00    +0.229 C 
ENDBRANCH  18  20
ENDBRANCH  16  18
ENDBRANCH  15  16
BRANCH  15  21
ATOM     21  C   UNL     1      10.423   1.518  24.412  0.00  0.00    +0.035 C 
BRANCH  21  22
ATOM     22  C   UNL     1      10.142   1.702  22.919  0.00  0.00    +0.037 C 
BRANCH  22  23
ATOM     23  C   UNL     1       8.943   2.608  22.760  0.00  0.00    -0.047 A 
ATOM     24  C   UNL     1       7.872   2.241  21.933  0.00  0.00    +0.003 A 
ATOM     25  C   UNL     1       6.723   3.029  21.872  0.00  0.00    +0.000 A 
ATOM     26  C   UNL     1       6.630   4.191  22.636  0.00  0.00    +0.000 A 
ATOM     27  C   UNL     1       7.689   4.565  23.461  0.00  0.00    +0.000 A 
ATOM     28  C   UNL     1       8.838   3.777  23.525  0.00  0.00    +0.003 A 
ENDBRANCH  22  23
ENDBRANCH  21  22
ENDBRANCH  15  21
ENDBRANCH  13  15
ENDBRANCH   1  13
BRANCH   4  29
ATOM     29  C   UNL     1       8.426  -4.969  25.629  0.00  0.00    +0.234 C 
BRANCH  29  30
ATOM     30  C   UNL     1       7.553  -4.862  26.876  0.00  0.00    +0.323 C 
ATOM     31  O   UNL     1       6.862  -3.875  27.100  0.00  0.00    -0.249 OA
BRANCH  30  32
ATOM     32  O   UNL     1       7.616  -5.891  27.744  0.00  0.00    -0.480 OA
ATOM     33  H   UNL     1       7.283  -5.657  28.643  0.00  0.00    +0.295 HD
ENDBRANCH  30  32
ENDBRANCH  29  30
ENDBRANCH   4  29
TORSDOF 11
ENDMDL
MODEL 4
REMARK VINA RESULT:      -7.3      2.579      3.957
REMARK  Name = 
REMARK  12 active torsions:
REMARK  status: ('A' for Active; 'I' for Inactive)
REMARK    1  A    between atoms: C_1  and  C_2
REMARK    2  A    between atoms: C_2  and  O_3
REMARK    3  A    between atoms: O_3  and  C_4
REMARK    4  A    between atoms: C_4  and  C_6
REMARK    5  A    between atoms: C_6  and  C_8
REMARK    6  A    between atoms: C_6  and  N_16
REMARK    7  A    between atoms: C_8  and  C_9
REMARK    8  A    between atoms: C_9  and  C_10
REMARK    9  A    between atoms: N_16  and  C_17
REMARK   10  A    between atoms: N_27  and  C_28
REMARK   11  A    between atoms: C_28  and  C_29
REMARK   12  A    between atoms: C_29  and  O_30
REMARK                            x       y       z     vdW  Elec       q    Type
REMARK                         _______ _______ _______ _____ _____    ______ ____
ROOT
ATOM      1  C   UNL     1       7.685  -1.665  25.659  0.00  0.00    +0.142 C 
ATOM      2  C   UNL     1       8.371  -3.006  25.310  0.00  0.00    +0.237 C 
ATOM      3  O   UNL     1       9.591  -3.190  25.346  0.00  0.00    -0.274 OA
ATOM      4  N   UNL     1       7.512  -4.093  25.173  0.00  0.00    -0.259 N 
ATOM      5  C   UNL     1       6.916  -4.252  23.896  0.00  0.00    +0.040 A 
ATOM      6  C   UNL     1       6.016  -3.269  23.443  0.00  0.00    -0.026 A 
ATOM      7  C   UNL     1       5.557  -3.306  22.121  0.00  0.00    +0.005 A 
ATOM      8  C   UNL     1       5.992  -4.300  21.255  0.00  0.00    +0.000 A 
ATOM      9  C   UNL     1       6.851  -5.294  21.713  0.00  0.00    +0.002 A 
ATOM     10  C   UNL     1       5.550  -2.172  24.361  0.00  0.00    +0.039 C 
ATOM     11  C   UNL     1       7.295  -5.290  23.039  0.00  0.00    +0.024 A 
ATOM     12  C   UNL     1       6.675  -1.176  24.620  0.00  0.00    +0.033 C 
ENDROOT
BRANCH   1  13
ATOM     13  N   UNL     1       8.714  -0.623  25.890  0.00  0.00    -0.293 NA
ATOM     14  H   UNL     1       8.421  -0.020  26.667  0.00  0.00    +0.123 HD
BRANCH  13  15
ATOM     15  C   UNL     1       9.010   0.215  24.700  0.00  0.00    +0.164 C 
BRANCH  15  16
ATOM     16  C   UNL     1      10.481   0.000  24.287  0.00  0.00    +0.324 C 
ATOM     17  O   UNL     1      11.442   0.522  24.837  0.00  0.00    -0.249 OA
BRANCH  16  18
ATOM     18  O   UNL     1      10.529  -0.825  23.205  0.00  0.00    -0.464 OA
BRANCH  18  20
ATOM     19  C   UNL     1       8.901  -1.805  21.713  0.00  0.00    +0.048 C 
ATOM     20  C   UNL     1       9.612  -0.534  22.140  0.00  0.00    +0.229 C 
ENDBRANCH  18  20
ENDBRANCH  16  18
ENDBRANCH  15  16
BRANCH  15  21
ATOM     21  C   UNL     1       8.715   1.697  24.954  0.00  0.00    +0.035 C 
BRANCH  21  22
ATOM     22  C   UNL     1       8.480   2.521  23.686  0.00  0.00    +0.037 C 
BRANCH  22  23
ATOM     23  C   UNL     1       9.490   3.645  23.644  0.00  0.00    -0.047 A 
ATOM     24  C   UNL     1       9.140   4.938  24.057  0.00  0.00    +0.003 A 
ATOM     25  C   UNL     1      10.102   5.946  24.118  0.00  0.00    +0.000 A 
ATOM     26  C   UNL     1      11.424   5.674  23.768  0.00  0.00    +0.000 A 
ATOM     27  C   UNL     1      11.782   4.391  23.356  0.00  0.00    +0.000 A 
ATOM     28  C   UNL     1      10.822   3.382  23.297  0.00  0.00    +0.003 A 
ENDBRANCH  22  23
ENDBRANCH  21  22
ENDBRANCH  15  21
ENDBRANCH  13  15
ENDBRANCH   1  13
BRANCH   4  29
ATOM     29  C   UNL     1       7.715  -5.244  26.049  0.00  0.00    +0.234 C 
BRANCH  29  30
ATOM     30  C   UNL     1       7.108  -5.340  27.446  0.00  0.00    +0.323 C 
ATOM     31  O   UNL     1       6.355  -4.478  27.885  0.00  0.00    -0.249 OA
BRANCH  30  32
ATOM     32  O   UNL     1       7.478  -6.399  28.191  0.00  0.00    -0.480 OA
ATOM     33  H   UNL     1       8.197  -6.187  28.832  0.00  0.00    +0.295 HD
ENDBRANCH  30  32
ENDBRANCH  29  30
ENDBRANCH   4  29
TORSDOF 11
ENDMDL
MODEL 5
REMARK VINA RESULT:      -7.2      3.363      5.422
REMARK  Name = 
REMARK  12 active torsions:
REMARK  status: ('A' for Active; 'I' for Inactive)
REMARK    1  A    between atoms: C_1  and  C_2
REMARK    2  A    between atoms: C_2  and  O_3
REMARK    3  A    between atoms: O_3  and  C_4
REMARK    4  A    between atoms: C_4  and  C_6
REMARK    5  A    between atoms: C_6  and  C_8
REMARK    6  A    between atoms: C_6  and  N_16
REMARK    7  A    between atoms: C_8  and  C_9
REMARK    8  A    between atoms: C_9  and  C_10
REMARK    9  A    between atoms: N_16  and  C_17
REMARK   10  A    between atoms: N_27  and  C_28
REMARK   11  A    between atoms: C_28  and  C_29
REMARK   12  A    between atoms: C_29  and  O_30
REMARK                            x       y       z     vdW  Elec       q    Type
REMARK                         _______ _______ _______ _____ _____    ______ ____
ROOT
ATOM      1  C   UNL     1       6.641  -3.783  26.691  0.00  0.00    +0.142 C 
ATOM      2  C   UNL     1       6.432  -5.312  26.791  0.00  0.00    +0.237 C 
ATOM      3  O   UNL     1       7.350  -6.135  26.830  0.00  0.00    -0.274 OA
ATOM      4  N   UNL     1       5.130  -5.714  27.076  0.00  0.00    -0.259 N 
ATOM      5  C   UNL     1       4.262  -5.833  25.961  0.00  0.00    +0.040 A 
ATOM      6  C   UNL     1       3.923  -4.672  25.241  0.00  0.00    -0.026 A 
ATOM      7  C   UNL     1       3.221  -4.783  24.035  0.00  0.00    +0.005 A 
ATOM      8  C   UNL     1       2.866  -6.032  23.543  0.00  0.00    +0.000 A 
ATOM      9  C   UNL     1       3.166  -7.178  24.273  0.00  0.00    +0.002 A 
ATOM     10  C   UNL     1       4.318  -3.311  25.748  0.00  0.00    +0.039 C 
ATOM     11  C   UNL     1       3.840  -7.083  25.494  0.00  0.00    +0.024 A 
ATOM     12  C   UNL     1       5.821  -3.098  25.596  0.00  0.00    +0.033 C 
ENDROOT
BRANCH   1  13
ATOM     13  N   UNL     1       8.080  -3.487  26.502  0.00  0.00    -0.293 NA
ATOM     14  H   UNL     1       8.320  -2.625  27.005  0.00  0.00    +0.123 HD
BRANCH  13  15
ATOM     15  C   UNL     1       8.494  -3.359  25.081  0.00  0.00    +0.164 C 
BRANCH  15  16
ATOM     16  C   UNL     1       9.311  -4.606  24.682  0.00  0.00    +0.324 C 
ATOM     17  O   UNL     1      10.422  -4.881  25.117  0.00  0.00    -0.249 OA
BRANCH  16  18
ATOM     18  O   UNL     1       8.617  -5.322  23.754  0.00  0.00    -0.464 OA
BRANCH  18  20
ATOM     19  C   UNL     1       6.518  -5.733  22.630  0.00  0.00    +0.048 C 
ATOM     20  C   UNL     1       7.461  -4.683  23.192  0.00  0.00    +0.229 C 
ENDBRANCH  18  20
ENDBRANCH  16  18
ENDBRANCH  15  16
BRANCH  15  21
ATOM     21  C   UNL     1       9.286  -2.073  24.826  0.00  0.00    +0.035 C 
BRANCH  21  22
ATOM     22  C   UNL     1       9.743  -1.888  23.378  0.00  0.00    +0.037 C 
BRANCH  22  23
ATOM     23  C   UNL     1      10.012  -0.420  23.138  0.00  0.00    -0.047 A 
ATOM     24  C   UNL     1       9.647   0.186  21.928  0.00  0.00    +0.003 A 
ATOM     25  C   UNL     1       9.799   1.562  21.751  0.00  0.00    +0.000 A 
ATOM     26  C   UNL     1      10.317   2.346  22.781  0.00  0.00    +0.000 A 
ATOM     27  C   UNL     1      10.683   1.752  23.988  0.00  0.00    +0.000 A 
ATOM     28  C   UNL     1      10.529   0.378  24.167  0.00  0.00    +0.003 A 
ENDBRANCH  22  23
ENDBRANCH  21  22
ENDBRANCH  15  21
ENDBRANCH  13  15
ENDBRANCH   1  13
BRANCH   4  29
ATOM     29  C   UNL     1       4.903  -6.506  28.283  0.00  0.00    +0.234 C 
BRANCH  29  30
ATOM     30  C   UNL     1       5.893  -6.548  29.444  0.00  0.00    +0.323 C 
ATOM     31  O   UNL     1       5.935  -5.663  30.291  0.00  0.00    -0.249 OA
BRANCH  30  32
ATOM     32  O   UNL     1       6.751  -7.586  29.464  0.00  0.00    -0.480 OA
ATOM     33  H   UNL     1       7.645  -7.354  29.117  0.00  0.00    +0.295 HD
ENDBRANCH  30  32
ENDBRANCH  29  30
ENDBRANCH   4  29
TORSDOF 11
ENDMDL
MODEL 6
REMARK VINA RESULT:      -6.8      2.682      7.902
REMARK  Name = 
REMARK  12 active torsions:
REMARK  status: ('A' for Active; 'I' for Inactive)
REMARK    1  A    between atoms: C_1  and  C_2
REMARK    2  A    between atoms: C_2  and  O_3
REMARK    3  A    between atoms: O_3  and  C_4
REMARK    4  A    between atoms: C_4  and  C_6
REMARK    5  A    between atoms: C_6  and  C_8
REMARK    6  A    between atoms: C_6  and  N_16
REMARK    7  A    between atoms: C_8  and  C_9
REMARK    8  A    between atoms: C_9  and  C_10
REMARK    9  A    between atoms: N_16  and  C_17
REMARK   10  A    between atoms: N_27  and  C_28
REMARK   11  A    between atoms: C_28  and  C_29
REMARK   12  A    between atoms: C_29  and  O_30
REMARK                            x       y       z     vdW  Elec       q    Type
REMARK                         _______ _______ _______ _____ _____    ______ ____
ROOT
ATOM      1  C   UNL     1       8.295   1.283  25.227  0.00  0.00    +0.142 C 
ATOM      2  C   UNL     1       9.679   1.513  24.575  0.00  0.00    +0.237 C 
ATOM      3  O   UNL     1      10.681   0.838  24.822  0.00  0.00    -0.274 OA
ATOM      4  N   UNL     1       9.686   2.392  23.494  0.00  0.00    -0.259 N 
ATOM      5  C   UNL     1       9.792   3.768  23.818  0.00  0.00    +0.040 A 
ATOM      6  C   UNL     1       8.738   4.380  24.524  0.00  0.00    -0.026 A 
ATOM      7  C   UNL     1       8.895   5.681  25.014  0.00  0.00    +0.005 A 
ATOM      8  C   UNL     1      10.086   6.367  24.815  0.00  0.00    +0.000 A 
ATOM      9  C   UNL     1      11.114   5.778  24.085  0.00  0.00    +0.002 A 
ATOM     10  C   UNL     1       7.448   3.645  24.767  0.00  0.00    +0.039 C 
ATOM     11  C   UNL     1      10.962   4.490  23.562  0.00  0.00    +0.024 A 
ATOM     12  C   UNL     1       7.646   2.543  25.802  0.00  0.00    +0.033 C 
ENDROOT
BRANCH   1  13
ATOM     13  N   UNL     1       8.406   0.247  26.280  0.00  0.00    -0.293 NA
ATOM     14  H   UNL     1       9.395   0.024  26.437  0.00  0.00    +0.123 HD
BRANCH  13  15
ATOM     15  C   UNL     1       7.660  -1.003  25.985  0.00  0.00    +0.164 C 
BRANCH  15  16
ATOM     16  C   UNL     1       8.666  -2.111  25.608  0.00  0.00    +0.324 C 
ATOM     17  O   UNL     1       9.294  -2.155  24.558  0.00  0.00    -0.249 OA
BRANCH  16  18
ATOM     18  O   UNL     1       8.713  -3.036  26.607  0.00  0.00    -0.464 OA
BRANCH  18  20
ATOM     19  C   UNL     1       7.898  -5.062  25.574  0.00  0.00    +0.048 C 
ATOM     20  C   UNL     1       7.651  -4.001  26.631  0.00  0.00    +0.229 C 
ENDBRANCH  18  20
ENDBRANCH  16  18
ENDBRANCH  15  16
BRANCH  15  21
ATOM     21  C   UNL     1       6.616  -0.803  24.882  0.00  0.00    +0.035 C 
BRANCH  21  22
ATOM     22  C   UNL     1       5.347  -1.641  25.052  0.00  0.00    +0.037 C 
BRANCH  22  23
ATOM     23  C   UNL     1       5.351  -2.742  24.017  0.00  0.00    -0.047 A 
ATOM     24  C   UNL     1       6.171  -2.656  22.884  0.00  0.00    +0.003 A 
ATOM     25  C   UNL     1       6.252  -3.721  21.986  0.00  0.00    +0.000 A 
ATOM     26  C   UNL     1       5.515  -4.882  22.211  0.00  0.00    +0.000 A 
ATOM     27  C   UNL     1       4.696  -4.977  23.335  0.00  0.00    +0.000 A 
ATOM     28  C   UNL     1       4.616  -3.915  24.235  0.00  0.00    +0.003 A 
ENDBRANCH  22  23
ENDBRANCH  21  22
ENDBRANCH  15  21
ENDBRANCH  13  15
ENDBRANCH   1  13
BRANCH   4  29
ATOM     29  C   UNL     1      10.157   1.892  22.205  0.00  0.00    +0.234 C 
BRANCH  29  30
ATOM     30  C   UNL     1       9.423   0.810  21.418  0.00  0.00    +0.323 C 
ATOM     31  O   UNL     1       9.742  -0.372  21.490  0.00  0.00    -0.249 OA
BRANCH  30  32
ATOM     32  O   UNL     1       8.434   1.225  20.603  0.00  0.00    -0.480 OA
ATOM     33  H   UNL     1       8.330   0.658  19.802  0.00  0.00    +0.295 HD
ENDBRANCH  30  32
ENDBRANCH  29  30
ENDBRANCH   4  29
TORSDOF 11
ENDMDL
MODEL 7
REMARK VINA RESULT:      -6.8      3.303      5.028
REMARK  Name = 
REMARK  12 active torsions:
REMARK  status: ('A' for Active; 'I' for Inactive)
REMARK    1  A    between atoms: C_1  and  C_2
REMARK    2  A    between atoms: C_2  and  O_3
REMARK    3  A    between atoms: O_3  and  C_4
REMARK    4  A    between atoms: C_4  and  C_6
REMARK    5  A    between atoms: C_6  and  C_8
REMARK    6  A    between atoms: C_6  and  N_16
REMARK    7  A    between atoms: C_8  and  C_9
REMARK    8  A    between atoms: C_9  and  C_10
REMARK    9  A    between atoms: N_16  and  C_17
REMARK   10  A    between atoms: N_27  and  C_28
REMARK   11  A    between atoms: C_28  and  C_29
REMARK   12  A    between atoms: C_29  and  O_30
REMARK                            x       y       z     vdW  Elec       q    Type
REMARK                         _______ _______ _______ _____ _____    ______ ____
ROOT
ATOM      1  C   UNL     1       6.827  -3.627  26.716  0.00  0.00    +0.142 C 
ATOM      2  C   UNL     1       6.732  -5.169  26.634  0.00  0.00    +0.237 C 
ATOM      3  O   UNL     1       7.708  -5.919  26.558  0.00  0.00    -0.274 OA
ATOM      4  N   UNL     1       5.470  -5.699  26.890  0.00  0.00    -0.259 N 
ATOM      5  C   UNL     1       4.585  -5.749  25.783  0.00  0.00    +0.040 A 
ATOM      6  C   UNL     1       4.145  -4.539  25.215  0.00  0.00    -0.026 A 
ATOM      7  C   UNL     1       3.422  -4.558  24.016  0.00  0.00    +0.005 A 
ATOM      8  C   UNL     1       3.146  -5.762  23.383  0.00  0.00    +0.000 A 
ATOM      9  C   UNL     1       3.546  -6.962  23.964  0.00  0.00    +0.002 A 
ATOM     10  C   UNL     1       4.453  -3.222  25.875  0.00  0.00    +0.039 C 
ATOM     11  C   UNL     1       4.243  -6.962  25.177  0.00  0.00    +0.024 A 
ATOM     12  C   UNL     1       5.931  -2.881  25.726  0.00  0.00    +0.033 C 
ENDROOT
BRANCH   1  13
ATOM     13  N   UNL     1       8.236  -3.204  26.539  0.00  0.00    -0.293 NA
ATOM     14  H   UNL     1       8.566  -2.749  27.399  0.00  0.00    +0.123 HD
BRANCH  13  15
ATOM     15  C   UNL     1       8.459  -2.296  25.385  0.00  0.00    +0.164 C 
BRANCH  15  16
ATOM     16  C   UNL     1       9.392  -2.990  24.372  0.00  0.00    +0.324 C 
ATOM     17  O   UNL     1       9.707  -4.172  24.411  0.00  0.00    -0.249 OA
BRANCH  16  18
ATOM     18  O   UNL     1       9.827  -2.077  23.460  0.00  0.00    -0.464 OA
BRANCH  18  20
ATOM     19  C   UNL     1       9.446  -0.648  21.550  0.00  0.00    +0.048 C 
ATOM     20  C   UNL     1       8.999  -1.887  22.303  0.00  0.00    +0.229 C 
ENDBRANCH  18  20
ENDBRANCH  16  18
ENDBRANCH  15  16
BRANCH  15  21
ATOM     21  C   UNL     1       9.025  -0.940  25.821  0.00  0.00    +0.035 C 
BRANCH  21  22
ATOM     22  C   UNL     1       8.080   0.243  25.595  0.00  0.00    +0.037 C 
BRANCH  22  23
ATOM     23  C   UNL     1       8.844   1.346  24.901  0.00  0.00    -0.047 A 
ATOM     24  C   UNL     1      10.192   1.176  24.556  0.00  0.00    +0.003 A 
ATOM     25  C   UNL     1      10.863   2.155  23.822  0.00  0.00    +0.000 A 
ATOM     26  C   UNL     1      10.196   3.311  23.424  0.00  0.00    +0.000 A 
ATOM     27  C   UNL     1       8.855   3.490  23.762  0.00  0.00    +0.000 A 
ATOM     28  C   UNL     1       8.182   2.512  24.493  0.00  0.00    +0.003 A 
ENDBRANCH  22  23
ENDBRANCH  21  22
ENDBRANCH  15  21
ENDBRANCH  13  15
ENDBRANCH   1  13
BRANCH   4  29
ATOM     29  C   UNL     1       5.333  -6.643  27.996  0.00  0.00    +0.234 C 
BRANCH  29  30
ATOM     30  C   UNL     1       5.936  -6.396  29.376  0.00  0.00    +0.323 C 
ATOM     31  O   UNL     1       6.542  -7.270  29.984  0.00  0.00    -0.249 OA
BRANCH  30  32
ATOM     32  O   UNL     1       5.728  -5.177  29.913  0.00  0.00    -0.480 OA
ATOM     33  H   UNL     1       5.801  -4.448  29.252  0.00  0.00    +0.295 HD
ENDBRANCH  30  32
ENDBRANCH  29  30
ENDBRANCH   4  29
TORSDOF 11
ENDMDL
MODEL 8
REMARK VINA RESULT:      -6.8      1.532      2.154
REMARK  Name = 
REMARK  12 active torsions:
REMARK  status: ('A' for Active; 'I' for Inactive)
REMARK    1  A    between atoms: C_1  and  C_2
REMARK    2  A    between atoms: C_2  and  O_3
REMARK    3  A    between atoms: O_3  and  C_4
REMARK    4  A    between atoms: C_4  and  C_6
REMARK    5  A    between atoms: C_6  and  C_8
REMARK    6  A    between atoms: C_6  and  N_16
REMARK    7  A    between atoms: C_8  and  C_9
REMARK    8  A    between atoms: C_9  and  C_10
REMARK    9  A    between atoms: N_16  and  C_17
REMARK   10  A    between atoms: N_27  and  C_28
REMARK   11  A    between atoms: C_28  and  C_29
REMARK   12  A    between atoms: C_29  and  O_30
REMARK                            x       y       z     vdW  Elec       q    Type
REMARK                         _______ _______ _______ _____ _____    ______ ____
ROOT
ATOM      1  C   UNL     1       8.394  -3.006  23.535  0.00  0.00    +0.142 C 
ATOM      2  C   UNL     1       6.863  -3.147  23.700  0.00  0.00    +0.237 C 
ATOM      3  O   UNL     1       6.058  -2.234  23.498  0.00  0.00    -0.274 OA
ATOM      4  N   UNL     1       6.402  -4.451  23.866  0.00  0.00    -0.259 N 
ATOM      5  C   UNL     1       6.427  -4.950  25.194  0.00  0.00    +0.040 A 
ATOM      6  C   UNL     1       7.672  -5.131  25.825  0.00  0.00    -0.026 A 
ATOM      7  C   UNL     1       7.720  -5.445  27.187  0.00  0.00    +0.005 A 
ATOM      8  C   UNL     1       6.547  -5.570  27.920  0.00  0.00    +0.000 A 
ATOM      9  C   UNL     1       5.315  -5.430  27.289  0.00  0.00    +0.002 A 
ATOM     10  C   UNL     1       8.955  -4.978  25.052  0.00  0.00    +0.039 C 
ATOM     11  C   UNL     1       5.249  -5.146  25.921  0.00  0.00    +0.024 A 
ATOM     12  C   UNL     1       9.212  -3.512  24.724  0.00  0.00    +0.033 C 
ENDROOT
BRANCH   1  13
ATOM     13  N   UNL     1       8.738  -1.593  23.251  0.00  0.00    -0.293 NA
ATOM     14  H   UNL     1       9.198  -1.531  22.335  0.00  0.00    +0.123 HD
BRANCH  13  15
ATOM     15  C   UNL     1       9.600  -0.958  24.279  0.00  0.00    +0.164 C 
BRANCH  15  16
ATOM     16  C   UNL     1       8.707  -0.364  25.388  0.00  0.00    +0.324 C 
ATOM     17  O   UNL     1       8.873  -0.541  26.587  0.00  0.00    -0.249 OA
BRANCH  16  18
ATOM     18  O   UNL     1       7.697   0.352  24.818  0.00  0.00    -0.464 OA
BRANCH  18  20
ATOM     19  C   UNL     1       5.562   1.478  24.910  0.00  0.00    +0.048 C 
ATOM     20  C   UNL     1       6.514   0.526  25.611  0.00  0.00    +0.229 C 
ENDBRANCH  18  20
ENDBRANCH  16  18
ENDBRANCH  15  16
BRANCH  15  21
ATOM     21  C   UNL     1      10.521   0.109  23.678  0.00  0.00    +0.035 C 
BRANCH  21  22
ATOM     22  C   UNL     1      10.106   0.592  22.286  0.00  0.00    +0.037 C 
BRANCH  22  23
ATOM     23  C   UNL     1       9.312   1.870  22.433  0.00  0.00    -0.047 A 
ATOM     24  C   UNL     1       8.107   2.047  21.740  0.00  0.00    +0.003 A 
ATOM     25  C   UNL     1       7.324   3.181  21.960  0.00  0.00    +0.000 A 
ATOM     26  C   UNL     1       7.737   4.149  22.875  0.00  0.00    +0.000 A 
ATOM     27  C   UNL     1       8.934   3.981  23.569  0.00  0.00    +0.000 A 
ATOM     28  C   UNL     1       9.715   2.847  23.352  0.00  0.00    +0.003 A 
ENDBRANCH  22  23
ENDBRANCH  21  22
ENDBRANCH  15  21
ENDBRANCH  13  15
ENDBRANCH   1  13
BRANCH   4  29
ATOM     29  C   UNL     1       5.445  -4.972  22.893  0.00  0.00    +0.234 C 
BRANCH  29  30
ATOM     30  C   UNL     1       5.865  -5.535  21.538  0.00  0.00    +0.323 C 
ATOM     31  O   UNL     1       5.927  -4.832  20.536  0.00  0.00    -0.249 OA
BRANCH  30  32
ATOM     32  O   UNL     1       6.122  -6.857  21.490  0.00  0.00    -0.480 OA
ATOM     33  H   UNL     1       5.768  -7.346  22.271  0.00  0.00    +0.295 HD
ENDBRANCH  30  32
ENDBRANCH  29  30
ENDBRANCH   4  29
TORSDOF 11
ENDMDL
MODEL 9
REMARK VINA RESULT:      -6.7      2.329      7.630
REMARK  Name = 
REMARK  12 active torsions:
REMARK  status: ('A' for Active; 'I' for Inactive)
REMARK    1  A    between atoms: C_1  and  C_2
REMARK    2  A    between atoms: C_2  and  O_3
REMARK    3  A    between atoms: O_3  and  C_4
REMARK    4  A    between atoms: C_4  and  C_6
REMARK    5  A    between atoms: C_6  and  C_8
REMARK    6  A    between atoms: C_6  and  N_16
REMARK    7  A    between atoms: C_8  and  C_9
REMARK    8  A    between atoms: C_9  and  C_10
REMARK    9  A    between atoms: N_16  and  C_17
REMARK   10  A    between atoms: N_27  and  C_28
REMARK   11  A    between atoms: C_28  and  C_29
REMARK   12  A    between atoms: C_29  and  O_30
REMARK                            x       y       z     vdW  Elec       q    Type
REMARK                         _______ _______ _______ _____ _____    ______ ____
ROOT
ATOM      1  C   UNL     1       8.400  -2.151  24.152  0.00  0.00    +0.142 C 
ATOM      2  C   UNL     1       7.279  -1.201  23.670  0.00  0.00    +0.237 C 
ATOM      3  O   UNL     1       6.481  -1.473  22.769  0.00  0.00    -0.274 OA
ATOM      4  N   UNL     1       7.058  -0.088  24.477  0.00  0.00    -0.259 N 
ATOM      5  C   UNL     1       7.890   1.033  24.225  0.00  0.00    +0.040 A 
ATOM      6  C   UNL     1       9.271   0.918  24.474  0.00  0.00    -0.026 A 
ATOM      7  C   UNL     1      10.136   1.939  24.065  0.00  0.00    +0.005 A 
ATOM      8  C   UNL     1       9.641   3.057  23.409  0.00  0.00    +0.000 A 
ATOM      9  C   UNL     1       8.272   3.190  23.197  0.00  0.00    +0.002 A 
ATOM     10  C   UNL     1       9.829  -0.297  25.166  0.00  0.00    +0.039 C 
ATOM     11  C   UNL     1       7.390   2.193  23.626  0.00  0.00    +0.024 A 
ATOM     12  C   UNL     1       9.785  -1.507  24.240  0.00  0.00    +0.033 C 
ENDROOT
BRANCH   1  13
ATOM     13  N   UNL     1       8.454  -3.345  23.277  0.00  0.00    -0.293 NA
ATOM     14  H   UNL     1       8.019  -3.126  22.373  0.00  0.00    +0.123 HD
BRANCH  13  15
ATOM     15  C   UNL     1       7.809  -4.552  23.854  0.00  0.00    +0.164 C 
BRANCH  15  16
ATOM     16  C   UNL     1       8.752  -5.171  24.907  0.00  0.00    +0.324 C 
ATOM     17  O   UNL     1       9.972  -5.205  24.816  0.00  0.00    -0.249 OA
BRANCH  16  18
ATOM     18  O   UNL     1       8.011  -5.694  25.924  0.00  0.00    -0.464 OA
BRANCH  18  20
ATOM     19  C   UNL     1       6.104  -4.756  27.072  0.00  0.00    +0.048 C 
ATOM     20  C   UNL     1       7.618  -4.782  26.960  0.00  0.00    +0.229 C 
ENDBRANCH  18  20
ENDBRANCH  16  18
ENDBRANCH  15  16
BRANCH  15  21
ATOM     21  C   UNL     1       7.436  -5.575  22.776  0.00  0.00    +0.035 C 
BRANCH  21  22
ATOM     22  C   UNL     1       6.050  -5.368  22.160  0.00  0.00    +0.037 C 
BRANCH  22  23
ATOM     23  C   UNL     1       5.016  -5.429  23.260  0.00  0.00    -0.047 A 
ATOM     24  C   UNL     1       4.180  -4.334  23.519  0.00  0.00    +0.003 A 
ATOM     25  C   UNL     1       3.157  -4.432  24.462  0.00  0.00    +0.000 A 
ATOM     26  C   UNL     1       2.958  -5.624  25.157  0.00  0.00    +0.000 A 
ATOM     27  C   UNL     1       3.785  -6.719  24.907  0.00  0.00    +0.000 A 
ATOM     28  C   UNL     1       4.806  -6.623  23.962  0.00  0.00    +0.003 A 
ENDBRANCH  22  23
ENDBRANCH  21  22
ENDBRANCH  15  21
ENDBRANCH  13  15
ENDBRANCH   1  13
BRANCH   4  29
ATOM     29  C   UNL     1       5.728   0.088  25.057  0.00  0.00    +0.234 C 
BRANCH  29  30
ATOM     30  C   UNL     1       5.141  -0.871  26.088  0.00  0.00    +0.323 C 
ATOM     31  O   UNL     1       4.005  -1.319  25.983  0.00  0.00    -0.249 OA
BRANCH  30  32
ATOM     32  O   UNL     1       5.921  -1.166  27.147  0.00  0.00    -0.480 OA
ATOM     33  H   UNL     1       5.576  -0.796  27.994  0.00  0.00    +0.295 HD
ENDBRANCH  30  32
ENDBRANCH  29  30
ENDBRANCH   4  29
TORSDOF 11
ENDMDL
