MODEL 1
REMARK VINA RESULT:      -4.7      0.000      0.000
REMARK  Name = 
REMARK  4 active torsions:
REMARK  status: ('A' for Active; 'I' for Inactive)
REMARK    1  A    between atoms: C_2  and  O_3
REMARK    2  A    between atoms: O_3  and  C_4
REMARK    3  A    between atoms: C_4  and  C_5
REMARK    4  A    between atoms: C_4  and  C_9
REMARK                            x       y       z     vdW  Elec       q    Type
REMARK                         _______ _______ _______ _____ _____    ______ ____
ROOT
ATOM      1  C   UNL     1      10.197   0.324  23.097  0.00  0.00    +0.328 C 
ENDROOT
BRANCH   1   2
ATOM      2  C   UNL     1      10.551   1.173  24.300  0.00  0.00    +0.424 C 
ATOM      3  F   UNL     1      11.158   2.338  23.989  0.00  0.00    -0.168 F 
ATOM      4  F   UNL     1      11.369   0.485  25.132  0.00  0.00    -0.168 F 
ATOM      5  F   UNL     1       9.448   1.481  25.020  0.00  0.00    -0.168 F 
ENDBRANCH   1   2
BRANCH   1   6
ATOM      6  C   UNL     1       9.660   1.245  22.012  0.00  0.00    +0.424 C 
ATOM      7  F   UNL     1       9.221   0.515  20.959  0.00  0.00    -0.168 F 
ATOM      8  F   UNL     1      10.562   2.125  21.524  0.00  0.00    -0.168 F 
ATOM      9  F   UNL     1       8.597   1.962  22.452  0.00  0.00    -0.168 F 
ENDBRANCH   1   6
BRANCH   1  10
ATOM     10  O   UNL     1       9.292  -0.748  23.460  0.00  0.00    -0.329 OA
BRANCH  10  12
ATOM     11  F   UNL     1      10.929  -1.915  22.474  0.00  0.00    -0.218 F 
ATOM     12  C   UNL     1       9.865  -2.029  23.306  0.00  0.00    +0.376 C 
ENDBRANCH  10  12
ENDBRANCH   1  10
TORSDOF 4
ENDMDL
MODEL 2
REMARK VINA RESULT:      -4.5      0.899      2.945
REMARK  Name = 
REMARK  4 active torsions:
REMARK  status: ('A' for Active; 'I' for Inactive)
REMARK    1  A    between atoms: C_2  and  O_3
REMARK    2  A    between atoms: O_3  and  C_4
REMARK    3  A    between atoms: C_4  and  C_5
REMARK    4  A    between atoms: C_4  and  C_9
REMARK                            x       y       z     vdW  Elec       q    Type
REMARK                         _______ _______ _______ _____ _____    ______ ____
ROOT
ATOM      1  C   UNL     1       9.634   0.234  23.234  0.00  0.00    +0.328 C 
ENDROOT
BRANCH   1   2
ATOM      2  C   UNL     1       9.507   1.227  22.098  0.00  0.00    +0.424 C 
ATOM      3  F   UNL     1      10.609   1.981  21.903  0.00  0.00    -0.168 F 
ATOM      4  F   UNL     1       8.463   2.061  22.322  0.00  0.00    -0.168 F 
ATOM      5  F   UNL     1       9.246   0.598  20.929  0.00  0.00    -0.168 F 
ENDBRANCH   1   2
BRANCH   1   6
ATOM      6  C   UNL     1      10.287   0.944  24.410  0.00  0.00    +0.424 C 
ATOM      7  F   UNL     1      10.062   0.253  25.553  0.00  0.00    -0.168 F 
ATOM      8  F   UNL     1       9.844   2.202  24.624  0.00  0.00    -0.168 F 
ATOM      9  F   UNL     1      11.633   1.012  24.261  0.00  0.00    -0.168 F 
ENDBRANCH   1   6
BRANCH   1  10
ATOM     10  O   UNL     1      10.330  -0.963  22.809  0.00  0.00    -0.329 OA
BRANCH  10  12
ATOM     11  F   UNL     1      10.427  -2.908  23.915  0.00  0.00    -0.218 F 
ATOM     12  C   UNL     1       9.631  -2.149  23.121  0.00  0.00    +0.376 C 
ENDBRANCH  10  12
ENDBRANCH   1  10
TORSDOF 4
ENDMDL
MODEL 3
REMARK VINA RESULT:      -4.2      4.102      6.008
REMARK  Name = 
REMARK  4 active torsions:
REMARK  status: ('A' for Active; 'I' for Inactive)
REMARK    1  A    between atoms: C_2  and  O_3
REMARK    2  A    between atoms: O_3  and  C_4
REMARK    3  A    between atoms: C_4  and  C_5
REMARK    4  A    between atoms: C_4  and  C_9
REMARK                            x       y       z     vdW  Elec       q    Type
REMARK                         _______ _______ _______ _____ _____    ______ ____
ROOT
ATOM      1  C   UNL     1       8.565  -4.000  24.503  0.00  0.00    +0.328 C 
ENDROOT
BRANCH   1   2
ATOM      2  C   UNL     1       8.676  -5.023  25.614  0.00  0.00    +0.424 C 
ATOM      3  F   UNL     1       7.514  -5.643  25.906  0.00  0.00    -0.168 F 
ATOM      4  F   UNL     1       9.132  -4.435  26.746  0.00  0.00    -0.168 F 
ATOM      5  F   UNL     1       9.572  -5.987  25.300  0.00  0.00    -0.168 F 
ENDBRANCH   1   2
BRANCH   1   6
ATOM      6  C   UNL     1       7.713  -4.598  23.395  0.00  0.00    +0.424 C 
ATOM      7  F   UNL     1       6.416  -4.644  23.780  0.00  0.00    -0.168 F 
ATOM      8  F   UNL     1       8.057  -5.854  23.036  0.00  0.00    -0.168 F 
ATOM      9  F   UNL     1       7.754  -3.835  22.274  0.00  0.00    -0.168 F 
ENDBRANCH   1   6
BRANCH   1  10
ATOM     10  O   UNL     1       9.873  -3.556  24.066  0.00  0.00    -0.329 OA
BRANCH  10  12
ATOM     11  F   UNL     1      10.658  -1.978  22.685  0.00  0.00    -0.218 F 
ATOM     12  C   UNL     1       9.929  -2.169  23.812  0.00  0.00    +0.376 C 
ENDBRANCH  10  12
ENDBRANCH   1  10
TORSDOF 4
ENDMDL
MODEL 4
REMARK VINA RESULT:      -4.2      1.382      3.294
REMARK  Name = 
REMARK  4 active torsions:
REMARK  status: ('A' for Active; 'I' for Inactive)
REMARK    1  A    between atoms: C_2  and  O_3
REMARK    2  A    between atoms: O_3  and  C_4
REMARK    3  A    between atoms: C_4  and  C_5
REMARK    4  A    between atoms: C_4  and  C_9
REMARK                            x       y       z     vdW  Elec       q    Type
REMARK                         _______ _______ _______ _____ _____    ______ ____
ROOT
ATOM      1  C   UNL     1       9.208  -0.211  23.056  0.00  0.00    +0.328 C 
ENDROOT
BRANCH   1   2
ATOM      2  C   UNL     1       9.735  -1.617  22.854  0.00  0.00    +0.424 C 
ATOM      3  F   UNL     1      10.008  -2.270  24.003  0.00  0.00    -0.168 F 
ATOM      4  F   UNL     1      10.867  -1.588  22.110  0.00  0.00    -0.168 F 
ATOM      5  F   UNL     1       8.848  -2.374  22.169  0.00  0.00    -0.168 F 
ENDBRANCH   1   2
BRANCH   1   6
ATOM      6  C   UNL     1       9.276   0.515  21.721  0.00  0.00    +0.424 C 
ATOM      7  F   UNL     1       8.202   1.327  21.580  0.00  0.00    -0.168 F 
ATOM      8  F   UNL     1       9.295  -0.296  20.640  0.00  0.00    -0.168 F 
ATOM      9  F   UNL     1      10.372   1.310  21.646  0.00  0.00    -0.168 F 
ENDBRANCH   1   6
BRANCH   1  10
ATOM     10  O   UNL     1       9.910   0.463  24.129  0.00  0.00    -0.329 OA
BRANCH  10  12
ATOM     11  F   UNL     1       9.619   2.668  24.387  0.00  0.00    -0.218 F 
ATOM     12  C   UNL     1       9.132   1.459  24.759  0.00  0.00    +0.376 C 
ENDBRANCH  10  12
ENDBRANCH   1  10
TORSDOF 4
ENDMDL
MODEL 5
REMARK VINA RESULT:      -4.1      1.775      3.352
REMARK  Name = 
REMARK  4 active torsions:
REMARK  status: ('A' for Active; 'I' for Inactive)
REMARK    1  A    between atoms: C_2  and  O_3
REMARK    2  A    between atoms: O_3  and  C_4
REMARK    3  A    between atoms: C_4  and  C_5
REMARK    4  A    between atoms: C_4  and  C_9
REMARK                            x       y       z     vdW  Elec       q    Type
REMARK                         _______ _______ _______ _____ _____    ______ ____
ROOT
ATOM      1  C   UNL     1       9.433  -0.227  23.295  0.00  0.00    +0.328 C 
ENDROOT
BRANCH   1   2
ATOM      2  C   UNL     1       9.240  -1.076  24.535  0.00  0.00    +0.424 C 
ATOM      3  F   UNL     1       9.887  -2.260  24.494  0.00  0.00    -0.168 F 
ATOM      4  F   UNL     1       7.922  -1.326  24.728  0.00  0.00    -0.168 F 
ATOM      5  F   UNL     1       9.670  -0.427  25.641  0.00  0.00    -0.168 F 
ENDBRANCH   1   2
BRANCH   1   6
ATOM      6  C   UNL     1       9.562  -1.159  22.101  0.00  0.00    +0.424 C 
ATOM      7  F   UNL     1       9.383  -0.466  20.951  0.00  0.00    -0.168 F 
ATOM      8  F   UNL     1       8.675  -2.177  22.083  0.00  0.00    -0.168 F 
ATOM      9  F   UNL     1      10.802  -1.705  22.031  0.00  0.00    -0.168 F 
ENDBRANCH   1   6
BRANCH   1  10
ATOM     10  O   UNL     1      10.547   0.686  23.454  0.00  0.00    -0.329 OA
BRANCH  10  12
ATOM     11  F   UNL     1      10.479   2.100  21.719  0.00  0.00    -0.218 F 
ATOM     12  C   UNL     1      10.242   2.004  23.051  0.00  0.00    +0.376 C 
ENDBRANCH  10  12
ENDBRANCH   1  10
TORSDOF 4
ENDMDL
MODEL 6
REMARK VINA RESULT:      -4.1      1.639      3.643
REMARK  Name = 
REMARK  4 active torsions:
REMARK  status: ('A' for Active; 'I' for Inactive)
REMARK    1  A    between atoms: C_2  and  O_3
REMARK    2  A    between atoms: O_3  and  C_4
REMARK    3  A    between atoms: C_4  and  C_5
REMARK    4  A    between atoms: C_4  and  C_9
REMARK                            x       y       z     vdW  Elec       q    Type
REMARK                         _______ _______ _______ _____ _____    ______ ____
ROOT
ATOM      1  C   UNL     1       9.012   0.696  23.238  0.00  0.00    +0.328 C 
ENDROOT
BRANCH   1   2
ATOM      2  C   UNL     1       9.596   0.882  21.852  0.00  0.00    +0.424 C 
ATOM      3  F   UNL     1      10.473   1.904  21.760  0.00  0.00    -0.168 F 
ATOM      4  F   UNL     1       8.606   1.097  20.954  0.00  0.00    -0.168 F 
ATOM      5  F   UNL     1      10.244  -0.234  21.445  0.00  0.00    -0.168 F 
ENDBRANCH   1   2
BRANCH   1   6
ATOM      6  C   UNL     1      10.096   0.116  24.133  0.00  0.00    +0.424 C 
ATOM      7  F   UNL     1       9.764   0.287  25.435  0.00  0.00    -0.168 F 
ATOM      8  F   UNL     1      11.318   0.669  23.968  0.00  0.00    -0.168 F 
ATOM      9  F   UNL     1      10.231  -1.220  23.943  0.00  0.00    -0.168 F 
ENDBRANCH   1   6
BRANCH   1  10
ATOM     10  O   UNL     1       7.799  -0.094  23.194  0.00  0.00    -0.329 OA
BRANCH  10  12
ATOM     11  F   UNL     1       6.302   1.519  22.776  0.00  0.00    -0.218 F 
ATOM     12  C   UNL     1       6.673   0.594  23.696  0.00  0.00    +0.376 C 
ENDBRANCH  10  12
ENDBRANCH   1  10
TORSDOF 4
ENDMDL
MODEL 7
REMARK VINA RESULT:      -4.0      1.680      3.176
REMARK  Name = 
REMARK  4 active torsions:
REMARK  status: ('A' for Active; 'I' for Inactive)
REMARK    1  A    between atoms: C_2  and  O_3
REMARK    2  A    between atoms: O_3  and  C_4
REMARK    3  A    between atoms: C_4  and  C_5
REMARK    4  A    between atoms: C_4  and  C_9
REMARK                            x       y       z     vdW  Elec       q    Type
REMARK                         _______ _______ _______ _____ _____    ______ ____
ROOT
ATOM      1  C   UNL     1       9.142   0.985  23.332  0.00  0.00    +0.328 C 
ENDROOT
BRANCH   1   2
ATOM      2  C   UNL     1      10.103   0.169  24.174  0.00  0.00    +0.424 C 
ATOM      3  F   UNL     1      10.123  -1.144  23.864  0.00  0.00    -0.168 F 
ATOM      4  F   UNL     1       9.787   0.285  25.486  0.00  0.00    -0.168 F 
ATOM      5  F   UNL     1      11.369   0.626  24.045  0.00  0.00    -0.168 F 
ENDBRANCH   1   2
BRANCH   1   6
ATOM      6  C   UNL     1       9.637   0.962  21.895  0.00  0.00    +0.424 C 
ATOM      7  F   UNL     1      10.522   1.967  21.693  0.00  0.00    -0.168 F 
ATOM      8  F   UNL     1       8.669   1.103  20.963  0.00  0.00    -0.168 F 
ATOM      9  F   UNL     1      10.296  -0.191  21.617  0.00  0.00    -0.168 F 
ENDBRANCH   1   6
BRANCH   1  10
ATOM     10  O   UNL     1       8.970   2.317  23.875  0.00  0.00    -0.329 OA
BRANCH  10  12
ATOM     11  F   UNL     1       7.914   3.722  22.488  0.00  0.00    -0.218 F 
ATOM     12  C   UNL     1       7.724   2.892  23.544  0.00  0.00    +0.376 C 
ENDBRANCH  10  12
ENDBRANCH   1  10
TORSDOF 4
ENDMDL
MODEL 8
REMARK VINA RESULT:      -4.0      1.705      3.873
REMARK  Name = 
REMARK  4 active torsions:
REMARK  status: ('A' for Active; 'I' for Inactive)
REMARK    1  A    between atoms: C_2  and  O_3
REMARK    2  A    between atoms: O_3  and  C_4
REMARK    3  A    between atoms: C_4  and  C_5
REMARK    4  A    between atoms: C_4  and  C_9
REMARK                            x       y       z     vdW  Elec       q    Type
REMARK                         _______ _______ _______ _____ _____    ______ ____
ROOT
ATOM      1  C   UNL     1      10.126   1.320  23.004  0.00  0.00    +0.328 C 
ENDROOT
BRANCH   1   2
ATOM      2  C   UNL     1       9.313   0.468  22.051  0.00  0.00    +0.424 C 
ATOM      3  F   UNL     1       8.336  -0.245  22.651  0.00  0.00    -0.168 F 
ATOM      4  F   UNL     1      10.121  -0.398  21.395  0.00  0.00    -0.168 F 
ATOM      5  F   UNL     1       8.721   1.230  21.102  0.00  0.00    -0.168 F 
ENDBRANCH   1   2
BRANCH   1   6
ATOM      6  C   UNL     1      10.485   0.467  24.210  0.00  0.00    +0.424 C 
ATOM      7  F   UNL     1       9.567   0.638  25.190  0.00  0.00    -0.168 F 
ATOM      8  F   UNL     1      11.690   0.742  24.756  0.00  0.00    -0.168 F 
ATOM      9  F   UNL     1      10.476  -0.854  23.902  0.00  0.00    -0.168 F 
ENDBRANCH   1   6
BRANCH   1  10
ATOM     10  O   UNL     1       9.429   2.546  23.336  0.00  0.00    -0.329 OA
BRANCH  10  12
ATOM     11  F   UNL     1      11.454   3.408  22.921  0.00  0.00    -0.218 F 
ATOM     12  C   UNL     1      10.302   3.623  23.603  0.00  0.00    +0.376 C 
ENDBRANCH  10  12
ENDBRANCH   1  10
TORSDOF 4
ENDMDL
MODEL 9
REMARK VINA RESULT:      -4.0      1.611      3.143
REMARK  Name = 
REMARK  4 active torsions:
REMARK  status: ('A' for Active; 'I' for Inactive)
REMARK    1  A    between atoms: C_2  and  O_3
REMARK    2  A    between atoms: O_3  and  C_4
REMARK    3  A    between atoms: C_4  and  C_5
REMARK    4  A    between atoms: C_4  and  C_9
REMARK                            x       y       z     vdW  Elec       q    Type
REMARK                         _______ _______ _______ _____ _____    ______ ____
ROOT
ATOM      1  C   UNL     1       9.299   0.218  22.928  0.00  0.00    +0.328 C 
ENDROOT
BRANCH   1   2
ATOM      2  C   UNL     1      10.057   0.027  24.226  0.00  0.00    +0.424 C 
ATOM      3  F   UNL     1      10.043  -1.241  24.687  0.00  0.00    -0.168 F 
ATOM      4  F   UNL     1       9.541   0.828  25.189  0.00  0.00    -0.168 F 
ATOM      5  F   UNL     1      11.354   0.385  24.088  0.00  0.00    -0.168 F 
ENDBRANCH   1   2
BRANCH   1   6
ATOM      6  C   UNL     1       9.531  -1.010  22.061  0.00  0.00    +0.424 C 
ATOM      7  F   UNL     1       8.633  -1.974  22.371  0.00  0.00    -0.168 F 
ATOM      8  F   UNL     1      10.756  -1.565  22.189  0.00  0.00    -0.168 F 
ATOM      9  F   UNL     1       9.354  -0.727  20.746  0.00  0.00    -0.168 F 
ENDBRANCH   1   6
BRANCH   1  10
ATOM     10  O   UNL     1       9.659   1.467  22.289  0.00  0.00    -0.329 OA
BRANCH  10  12
ATOM     11  F   UNL     1       7.862   1.806  20.996  0.00  0.00    -0.218 F 
ATOM     12  C   UNL     1       8.549   2.307  22.053  0.00  0.00    +0.376 C 
ENDBRANCH  10  12
ENDBRANCH   1  10
TORSDOF 4
ENDMDL
