MODEL 1
REMARK VINA RESULT:      -4.0      0.000      0.000
REMARK  Name = 
REMARK  10 active torsions:
REMARK  status: ('A' for Active; 'I' for Inactive)
REMARK    1  A    between atoms: C_1  and  C_2
REMARK    2  A    between atoms: C_2  and  C_3
REMARK    3  A    between atoms: C_3  and  C_4
REMARK    4  A    between atoms: C_4  and  C_5
REMARK    5  A    between atoms: C_5  and  C_6
REMARK    6  A    between atoms: C_6  and  C_7
REMARK    7  A    between atoms: C_7  and  C_8
REMARK    8  A    between atoms: C_8  and  C_9
REMARK    9  A    between atoms: C_9  and  C_10
REMARK   10  A    between atoms: C_10  and  C_11
REMARK                            x       y       z     vdW  Elec       q    Type
REMARK                         _______ _______ _______ _____ _____    ______ ____
ROOT
ATOM      1  C   UNL     1       9.969  -0.808  21.853  0.00  0.00    +0.000 C 
ENDROOT
BRANCH   1   2
ATOM      2  C   UNL     1       9.226   0.492  21.549  0.00  0.00    +0.000 C 
BRANCH   2   3
ATOM      3  C   UNL     1      10.013   1.705  22.049  0.00  0.00    -0.000 C 
BRANCH   3   4
ATOM      4  C   UNL     1      10.328   1.585  23.541  0.00  0.00    -0.000 C 
BRANCH   4   6
ATOM      5  C   UNL     1       8.599   0.855  25.217  0.00  0.00    +0.004 C 
ATOM      6  C   UNL     1       9.139   2.017  24.398  0.00  0.00    -0.003 C 
ENDBRANCH   4   6
ENDBRANCH   3   4
ENDBRANCH   2   3
ENDBRANCH   1   2
BRANCH   1   7
ATOM      7  C   UNL     1       9.078  -1.815  22.584  0.00  0.00    +0.000 C 
BRANCH   7   8
ATOM      8  C   UNL     1       9.824  -2.436  23.766  0.00  0.00    +0.007 C 
BRANCH   8   9
ATOM      9  C   UNL     1       8.875  -2.896  24.868  0.00  0.00    +0.074 C 
BRANCH   9  10
ATOM     10  C   UNL     1       9.234  -4.279  25.385  0.00  0.00    +0.130 C 
ATOM     11  O   UNL     1      10.108  -4.976  24.870  0.00  0.00    -0.298 OA
ATOM     12  C   UNL     1       8.464  -4.783  26.577  0.00  0.00    +0.086 C 
ENDBRANCH   9  10
ENDBRANCH   8   9
ENDBRANCH   7   8
ENDBRANCH   1   7
TORSDOF 8
ENDMDL
MODEL 2
REMARK VINA RESULT:      -4.0      1.813      2.742
REMARK  Name = 
REMARK  10 active torsions:
REMARK  status: ('A' for Active; 'I' for Inactive)
REMARK    1  A    between atoms: C_1  and  C_2
REMARK    2  A    between atoms: C_2  and  C_3
REMARK    3  A    between atoms: C_3  and  C_4
REMARK    4  A    between atoms: C_4  and  C_5
REMARK    5  A    between atoms: C_5  and  C_6
REMARK    6  A    between atoms: C_6  and  C_7
REMARK    7  A    between atoms: C_7  and  C_8
REMARK    8  A    between atoms: C_8  and  C_9
REMARK    9  A    between atoms: C_9  and  C_10
REMARK   10  A    between atoms: C_10  and  C_11
REMARK                            x       y       z     vdW  Elec       q    Type
REMARK                         _______ _______ _______ _____ _____    ______ ____
ROOT
ATOM      1  C   UNL     1       9.100  -1.218  24.791  0.00  0.00    +0.000 C 
ENDROOT
BRANCH   1   2
ATOM      2  C   UNL     1       9.819   0.054  25.239  0.00  0.00    +0.000 C 
BRANCH   2   3
ATOM      3  C   UNL     1      10.791   0.543  24.163  0.00  0.00    -0.000 C 
BRANCH   3   4
ATOM      4  C   UNL     1      10.286   1.826  23.502  0.00  0.00    -0.000 C 
BRANCH   4   6
ATOM      5  C   UNL     1       8.559   1.411  21.718  0.00  0.00    +0.004 C 
ATOM      6  C   UNL     1      10.037   1.623  22.008  0.00  0.00    -0.003 C 
ENDBRANCH   4   6
ENDBRANCH   3   4
ENDBRANCH   2   3
ENDBRANCH   1   2
BRANCH   1   7
ATOM      7  C   UNL     1       9.757  -1.839  23.557  0.00  0.00    +0.000 C 
BRANCH   7   8
ATOM      8  C   UNL     1       8.697  -2.293  22.553  0.00  0.00    +0.007 C 
BRANCH   8   9
ATOM      9  C   UNL     1       7.572  -3.079  23.221  0.00  0.00    +0.074 C 
BRANCH   9  10
ATOM     10  C   UNL     1       7.824  -4.577  23.180  0.00  0.00    +0.130 C 
ATOM     11  O   UNL     1       8.585  -5.145  23.964  0.00  0.00    -0.298 OA
ATOM     12  C   UNL     1       7.098  -5.362  22.121  0.00  0.00    +0.086 C 
ENDBRANCH   9  10
ENDBRANCH   8   9
ENDBRANCH   7   8
ENDBRANCH   1   7
TORSDOF 8
ENDMDL
MODEL 3
REMARK VINA RESULT:      -4.0      1.373      1.997
REMARK  Name = 
REMARK  10 active torsions:
REMARK  status: ('A' for Active; 'I' for Inactive)
REMARK    1  A    between atoms: C_1  and  C_2
REMARK    2  A    between atoms: C_2  and  C_3
REMARK    3  A    between atoms: C_3  and  C_4
REMARK    4  A    between atoms: C_4  and  C_5
REMARK    5  A    between atoms: C_5  and  C_6
REMARK    6  A    between atoms: C_6  and  C_7
REMARK    7  A    between atoms: C_7  and  C_8
REMARK    8  A    between atoms: C_8  and  C_9
REMARK    9  A    between atoms: C_9  and  C_10
REMARK   10  A    between atoms: C_10  and  C_11
REMARK                            x       y       z     vdW  Elec       q    Type
REMARK                         _______ _______ _______ _____ _____    ______ ____
ROOT
ATOM      1  C   UNL     1       8.853   0.939  21.767  0.00  0.00    +0.000 C 
ENDROOT
BRANCH   1   2
ATOM      2  C   UNL     1      10.057   1.803  22.143  0.00  0.00    +0.000 C 
BRANCH   2   3
ATOM      3  C   UNL     1      10.117   2.035  23.654  0.00  0.00    -0.000 C 
BRANCH   3   4
ATOM      4  C   UNL     1      10.925   0.940  24.351  0.00  0.00    -0.000 C 
BRANCH   4   6
ATOM      5  C   UNL     1       8.620   0.635  25.315  0.00  0.00    +0.004 C 
ATOM      6  C   UNL     1      10.048   0.112  25.290  0.00  0.00    -0.003 C 
ENDBRANCH   4   6
ENDBRANCH   3   4
ENDBRANCH   2   3
ENDBRANCH   1   2
BRANCH   1   7
ATOM      7  C   UNL     1       9.271  -0.308  20.985  0.00  0.00    +0.000 C 
BRANCH   7   8
ATOM      8  C   UNL     1       9.670  -1.433  21.940  0.00  0.00    +0.007 C 
BRANCH   8   9
ATOM      9  C   UNL     1       8.472  -1.999  22.697  0.00  0.00    +0.074 C 
BRANCH   9  10
ATOM     10  C   UNL     1       8.863  -3.162  23.593  0.00  0.00    +0.130 C 
ATOM     11  O   UNL     1       9.973  -3.253  24.118  0.00  0.00    -0.298 OA
ATOM     12  C   UNL     1       7.825  -4.228  23.820  0.00  0.00    +0.086 C 
ENDBRANCH   9  10
ENDBRANCH   8   9
ENDBRANCH   7   8
ENDBRANCH   1   7
TORSDOF 8
ENDMDL
MODEL 4
REMARK VINA RESULT:      -4.0      2.432      3.312
REMARK  Name = 
REMARK  10 active torsions:
REMARK  status: ('A' for Active; 'I' for Inactive)
REMARK    1  A    between atoms: C_1  and  C_2
REMARK    2  A    between atoms: C_2  and  C_3
REMARK    3  A    between atoms: C_3  and  C_4
REMARK    4  A    between atoms: C_4  and  C_5
REMARK    5  A    between atoms: C_5  and  C_6
REMARK    6  A    between atoms: C_6  and  C_7
REMARK    7  A    between atoms: C_7  and  C_8
REMARK    8  A    between atoms: C_8  and  C_9
REMARK    9  A    between atoms: C_9  and  C_10
REMARK   10  A    between atoms: C_10  and  C_11
REMARK                            x       y       z     vdW  Elec       q    Type
REMARK                         _______ _______ _______ _____ _____    ______ ____
ROOT
ATOM      1  C   UNL     1       9.717  -1.693  24.371  0.00  0.00    +0.000 C 
ENDROOT
BRANCH   1   2
ATOM      2  C   UNL     1       9.682  -0.243  24.852  0.00  0.00    +0.000 C 
BRANCH   2   3
ATOM      3  C   UNL     1      10.780   0.585  24.183  0.00  0.00    -0.000 C 
BRANCH   3   4
ATOM      4  C   UNL     1      10.229   1.905  23.641  0.00  0.00    -0.000 C 
BRANCH   4   6
ATOM      5  C   UNL     1       8.613   1.867  21.712  0.00  0.00    +0.004 C 
ATOM      6  C   UNL     1      10.077   1.863  22.121  0.00  0.00    -0.003 C 
ENDBRANCH   4   6
ENDBRANCH   3   4
ENDBRANCH   2   3
ENDBRANCH   1   2
BRANCH   1   7
ATOM      7  C   UNL     1       9.896  -1.785  22.854  0.00  0.00    +0.000 C 
BRANCH   7   8
ATOM      8  C   UNL     1       8.537  -1.805  22.153  0.00  0.00    +0.007 C 
BRANCH   8   9
ATOM      9  C   UNL     1       7.767  -3.093  22.427  0.00  0.00    +0.074 C 
BRANCH   9  10
ATOM     10  C   UNL     1       6.280  -2.838  22.608  0.00  0.00    +0.130 C 
ATOM     11  O   UNL     1       5.439  -3.186  21.778  0.00  0.00    -0.298 OA
ATOM     12  C   UNL     1       5.858  -2.126  23.865  0.00  0.00    +0.086 C 
ENDBRANCH   9  10
ENDBRANCH   8   9
ENDBRANCH   7   8
ENDBRANCH   1   7
TORSDOF 8
ENDMDL
MODEL 5
REMARK VINA RESULT:      -3.9      2.852      3.811
REMARK  Name = 
REMARK  10 active torsions:
REMARK  status: ('A' for Active; 'I' for Inactive)
REMARK    1  A    between atoms: C_1  and  C_2
REMARK    2  A    between atoms: C_2  and  C_3
REMARK    3  A    between atoms: C_3  and  C_4
REMARK    4  A    between atoms: C_4  and  C_5
REMARK    5  A    between atoms: C_5  and  C_6
REMARK    6  A    between atoms: C_6  and  C_7
REMARK    7  A    between atoms: C_7  and  C_8
REMARK    8  A    between atoms: C_8  and  C_9
REMARK    9  A    between atoms: C_9  and  C_10
REMARK   10  A    between atoms: C_10  and  C_11
REMARK                            x       y       z     vdW  Elec       q    Type
REMARK                         _______ _______ _______ _____ _____    ______ ____
ROOT
ATOM      1  C   UNL     1       8.646  -2.139  24.244  0.00  0.00    +0.000 C 
ENDROOT
BRANCH   1   2
ATOM      2  C   UNL     1       9.686  -1.060  23.942  0.00  0.00    +0.000 C 
BRANCH   2   3
ATOM      3  C   UNL     1      10.338  -1.291  22.578  0.00  0.00    -0.000 C 
BRANCH   3   4
ATOM      4  C   UNL     1       9.657  -0.459  21.490  0.00  0.00    -0.000 C 
BRANCH   4   6
ATOM      5  C   UNL     1       8.260   1.628  21.655  0.00  0.00    +0.004 C 
ATOM      6  C   UNL     1       9.642   1.026  21.851  0.00  0.00    -0.003 C 
ENDBRANCH   4   6
ENDBRANCH   3   4
ENDBRANCH   2   3
ENDBRANCH   1   2
BRANCH   1   7
ATOM      7  C   UNL     1       7.222  -1.580  24.213  0.00  0.00    +0.000 C 
BRANCH   7   8
ATOM      8  C   UNL     1       6.533  -1.936  22.895  0.00  0.00    +0.007 C 
BRANCH   8   9
ATOM      9  C   UNL     1       7.103  -3.207  22.273  0.00  0.00    +0.074 C 
BRANCH   9  10
ATOM     10  C   UNL     1       6.020  -4.233  21.986  0.00  0.00    +0.130 C 
ATOM     11  O   UNL     1       4.835  -4.047  22.265  0.00  0.00    -0.298 OA
ATOM     12  C   UNL     1       6.455  -5.520  21.335  0.00  0.00    +0.086 C 
ENDBRANCH   9  10
ENDBRANCH   8   9
ENDBRANCH   7   8
ENDBRANCH   1   7
TORSDOF 8
ENDMDL
MODEL 6
REMARK VINA RESULT:      -3.8      2.345      3.127
REMARK  Name = 
REMARK  10 active torsions:
REMARK  status: ('A' for Active; 'I' for Inactive)
REMARK    1  A    between atoms: C_1  and  C_2
REMARK    2  A    between atoms: C_2  and  C_3
REMARK    3  A    between atoms: C_3  and  C_4
REMARK    4  A    between atoms: C_4  and  C_5
REMARK    5  A    between atoms: C_5  and  C_6
REMARK    6  A    between atoms: C_6  and  C_7
REMARK    7  A    between atoms: C_7  and  C_8
REMARK    8  A    between atoms: C_8  and  C_9
REMARK    9  A    between atoms: C_9  and  C_10
REMARK   10  A    between atoms: C_10  and  C_11
REMARK                            x       y       z     vdW  Elec       q    Type
REMARK                         _______ _______ _______ _____ _____    ______ ____
ROOT
ATOM      1  C   UNL     1       9.908  -2.463  23.673  0.00  0.00    +0.000 C 
ENDROOT
BRANCH   1   2
ATOM      2  C   UNL     1      10.386  -1.493  22.593  0.00  0.00    +0.000 C 
BRANCH   2   3
ATOM      3  C   UNL     1       9.240  -1.105  21.657  0.00  0.00    -0.000 C 
BRANCH   3   4
ATOM      4  C   UNL     1       9.250   0.395  21.359  0.00  0.00    -0.000 C 
BRANCH   4   6
ATOM      5  C   UNL     1       9.178   1.883  23.387  0.00  0.00    +0.004 C 
ATOM      6  C   UNL     1      10.074   1.162  22.393  0.00  0.00    -0.003 C 
ENDBRANCH   4   6
ENDBRANCH   3   4
ENDBRANCH   2   3
ENDBRANCH   1   2
BRANCH   1   7
ATOM      7  C   UNL     1       8.695  -1.917  24.430  0.00  0.00    +0.000 C 
BRANCH   7   8
ATOM      8  C   UNL     1       7.526  -2.900  24.354  0.00  0.00    +0.007 C 
BRANCH   8   9
ATOM      9  C   UNL     1       7.903  -4.187  23.625  0.00  0.00    +0.074 C 
BRANCH   9  10
ATOM     10  C   UNL     1       7.111  -4.364  22.341  0.00  0.00    +0.130 C 
ATOM     11  O   UNL     1       6.473  -3.449  21.820  0.00  0.00    -0.298 OA
ATOM     12  C   UNL     1       7.129  -5.732  21.712  0.00  0.00    +0.086 C 
ENDBRANCH   9  10
ENDBRANCH   8   9
ENDBRANCH   7   8
ENDBRANCH   1   7
TORSDOF 8
ENDMDL
MODEL 7
REMARK VINA RESULT:      -3.8      3.298      5.046
REMARK  Name = 
REMARK  10 active torsions:
REMARK  status: ('A' for Active; 'I' for Inactive)
REMARK    1  A    between atoms: C_1  and  C_2
REMARK    2  A    between atoms: C_2  and  C_3
REMARK    3  A    between atoms: C_3  and  C_4
REMARK    4  A    between atoms: C_4  and  C_5
REMARK    5  A    between atoms: C_5  and  C_6
REMARK    6  A    between atoms: C_6  and  C_7
REMARK    7  A    between atoms: C_7  and  C_8
REMARK    8  A    between atoms: C_8  and  C_9
REMARK    9  A    between atoms: C_9  and  C_10
REMARK   10  A    between atoms: C_10  and  C_11
REMARK                            x       y       z     vdW  Elec       q    Type
REMARK                         _______ _______ _______ _____ _____    ______ ____
ROOT
ATOM      1  C   UNL     1       8.556  -2.801  23.066  0.00  0.00    +0.000 C 
ENDROOT
BRANCH   1   2
ATOM      2  C   UNL     1       7.051  -2.556  23.164  0.00  0.00    +0.000 C 
BRANCH   2   3
ATOM      3  C   UNL     1       6.295  -3.336  22.086  0.00  0.00    -0.000 C 
BRANCH   3   4
ATOM      4  C   UNL     1       5.330  -4.346  22.707  0.00  0.00    -0.000 C 
BRANCH   4   6
ATOM      5  C   UNL     1       7.000  -5.863  21.592  0.00  0.00    +0.004 C 
ATOM      6  C   UNL     1       5.877  -5.770  22.613  0.00  0.00    -0.003 C 
ENDBRANCH   4   6
ENDBRANCH   3   4
ENDBRANCH   2   3
ENDBRANCH   1   2
BRANCH   1   7
ATOM      7  C   UNL     1       9.170  -3.122  24.431  0.00  0.00    +0.000 C 
BRANCH   7   8
ATOM      8  C   UNL     1       8.791  -4.536  24.872  0.00  0.00    +0.007 C 
BRANCH   8   9
ATOM      9  C   UNL     1       8.825  -4.694  26.390  0.00  0.00    +0.074 C 
BRANCH   9  10
ATOM     10  C   UNL     1       7.488  -5.157  26.942  0.00  0.00    +0.130 C 
ATOM     11  O   UNL     1       7.393  -5.924  27.900  0.00  0.00    -0.298 OA
ATOM     12  C   UNL     1       6.251  -4.637  26.260  0.00  0.00    +0.086 C 
ENDBRANCH   9  10
ENDBRANCH   8   9
ENDBRANCH   7   8
ENDBRANCH   1   7
TORSDOF 8
ENDMDL
MODEL 8
REMARK VINA RESULT:      -3.7      2.732      5.511
REMARK  Name = 
REMARK  10 active torsions:
REMARK  status: ('A' for Active; 'I' for Inactive)
REMARK    1  A    between atoms: C_1  and  C_2
REMARK    2  A    between atoms: C_2  and  C_3
REMARK    3  A    between atoms: C_3  and  C_4
REMARK    4  A    between atoms: C_4  and  C_5
REMARK    5  A    between atoms: C_5  and  C_6
REMARK    6  A    between atoms: C_6  and  C_7
REMARK    7  A    between atoms: C_7  and  C_8
REMARK    8  A    between atoms: C_8  and  C_9
REMARK    9  A    between atoms: C_9  and  C_10
REMARK   10  A    between atoms: C_10  and  C_11
REMARK                            x       y       z     vdW  Elec       q    Type
REMARK                         _______ _______ _______ _____ _____    ______ ____
ROOT
ATOM      1  C   UNL     1      10.664   0.345  24.430  0.00  0.00    +0.000 C 
ENDROOT
BRANCH   1   2
ATOM      2  C   UNL     1       9.690  -0.831  24.498  0.00  0.00    +0.000 C 
BRANCH   2   3
ATOM      3  C   UNL     1      10.053  -1.905  23.471  0.00  0.00    -0.000 C 
BRANCH   3   4
ATOM      4  C   UNL     1       9.190  -1.785  22.214  0.00  0.00    -0.000 C 
BRANCH   4   6
ATOM      5  C   UNL     1       7.766  -3.693  23.030  0.00  0.00    +0.004 C 
ATOM      6  C   UNL     1       7.767  -2.281  22.466  0.00  0.00    -0.003 C 
ENDBRANCH   4   6
ENDBRANCH   3   4
ENDBRANCH   2   3
ENDBRANCH   1   2
BRANCH   1   7
ATOM      7  C   UNL     1       9.933   1.679  24.263  0.00  0.00    +0.000 C 
BRANCH   7   8
ATOM      8  C   UNL     1      10.232   2.288  22.893  0.00  0.00    +0.007 C 
BRANCH   8   9
ATOM      9  C   UNL     1       9.290   1.764  21.812  0.00  0.00    +0.074 C 
BRANCH   9  10
ATOM     10  C   UNL     1       7.835   2.055  22.138  0.00  0.00    +0.130 C 
ATOM     11  O   UNL     1       7.013   1.167  22.366  0.00  0.00    -0.298 OA
ATOM     12  C   UNL     1       7.419   3.501  22.170  0.00  0.00    +0.086 C 
ENDBRANCH   9  10
ENDBRANCH   8   9
ENDBRANCH   7   8
ENDBRANCH   1   7
TORSDOF 8
ENDMDL
MODEL 9
REMARK VINA RESULT:      -3.7      2.353      3.637
REMARK  Name = 
REMARK  10 active torsions:
REMARK  status: ('A' for Active; 'I' for Inactive)
REMARK    1  A    between atoms: C_1  and  C_2
REMARK    2  A    between atoms: C_2  and  C_3
REMARK    3  A    between atoms: C_3  and  C_4
REMARK    4  A    between atoms: C_4  and  C_5
REMARK    5  A    between atoms: C_5  and  C_6
REMARK    6  A    between atoms: C_6  and  C_7
REMARK    7  A    between atoms: C_7  and  C_8
REMARK    8  A    between atoms: C_8  and  C_9
REMARK    9  A    between atoms: C_9  and  C_10
REMARK   10  A    between atoms: C_10  and  C_11
REMARK                            x       y       z     vdW  Elec       q    Type
REMARK                         _______ _______ _______ _____ _____    ______ ____
ROOT
ATOM      1  C   UNL     1       9.134   2.355  22.731  0.00  0.00    +0.000 C 
ENDROOT
BRANCH   1   2
ATOM      2  C   UNL     1       9.956   2.992  23.851  0.00  0.00    +0.000 C 
BRANCH   2   3
ATOM      3  C   UNL     1      11.208   3.673  23.295  0.00  0.00    -0.000 C 
BRANCH   3   4
ATOM      4  C   UNL     1      11.232   5.161  23.644  0.00  0.00    -0.000 C 
BRANCH   4   6
ATOM      5  C   UNL     1       9.113   6.493  23.380  0.00  0.00    +0.004 C 
ATOM      6  C   UNL     1       9.924   5.600  24.303  0.00  0.00    -0.003 C 
ENDBRANCH   4   6
ENDBRANCH   3   4
ENDBRANCH   2   3
ENDBRANCH   1   2
BRANCH   1   7
ATOM      7  C   UNL     1       9.958   1.353  21.920  0.00  0.00    +0.000 C 
BRANCH   7   8
ATOM      8  C   UNL     1       9.263  -0.008  21.880  0.00  0.00    +0.007 C 
BRANCH   8   9
ATOM      9  C   UNL     1      10.211  -1.150  22.238  0.00  0.00    +0.074 C 
BRANCH   9  10
ATOM     10  C   UNL     1       9.797  -1.850  23.522  0.00  0.00    +0.130 C 
ATOM     11  O   UNL     1      10.208  -2.968  23.832  0.00  0.00    -0.298 OA
ATOM     12  C   UNL     1       8.841  -1.114  24.422  0.00  0.00    +0.086 C 
ENDBRANCH   9  10
ENDBRANCH   8   9
ENDBRANCH   7   8
ENDBRANCH   1   7
TORSDOF 8
ENDMDL
