MODEL 1
REMARK VINA RESULT:      -5.4      0.000      0.000
REMARK  Name = 
REMARK  3 active torsions:
REMARK  status: ('A' for Active; 'I' for Inactive)
REMARK    1  A    between atoms: C_1  and  N_2
REMARK    2  A    between atoms: N_2  and  C_3
REMARK    3  A    between atoms: C_3  and  C_10
REMARK                            x       y       z     vdW  Elec       q    Type
REMARK                         _______ _______ _______ _____ _____    ______ ____
ROOT
ATOM      1  C   UNL     1       8.721  -0.184  23.918  0.00  0.00    +0.104 C 
ATOM      2  C   UNL     1      10.005   0.645  24.272  0.00  0.00    +0.158 C 
ATOM      3  O   UNL     1      10.919   0.240  24.995  0.00  0.00    -0.295 OA
ATOM      4  C   UNL     1      10.097   2.022  23.626  0.00  0.00    +0.076 C 
ATOM      5  C   UNL     1      10.126   1.864  22.117  0.00  0.00    +0.008 C 
ATOM      6  C   UNL     1       8.917   1.081  21.620  0.00  0.00    +0.003 C 
ATOM      7  C   UNL     1       8.761  -0.251  22.357  0.00  0.00    +0.035 C 
ENDROOT
BRANCH   1   8
ATOM      8  C   UNL     1       8.723  -1.598  24.563  0.00  0.00    -0.002 A 
ATOM      9  C   UNL     1       8.553  -1.828  25.949  0.00  0.00    +0.046 A 
ATOM     10 CL   UNL     1       8.312  -0.553  27.095  0.00  0.00    -0.083 Cl
ATOM     11  C   UNL     1       8.512  -3.132  26.472  0.00  0.00    +0.020 A 
ATOM     12  C   UNL     1       8.628  -4.242  25.635  0.00  0.00    +0.001 A 
ATOM     13  C   UNL     1       8.789  -4.053  24.277  0.00  0.00    +0.000 A 
ATOM     14  C   UNL     1       8.836  -2.756  23.753  0.00  0.00    +0.007 A 
ENDBRANCH   1   8
BRANCH   1  16
ATOM     15  C   UNL     1       6.252   0.151  24.056  0.00  0.00    +0.102 C 
ATOM     16  N   UNL     1       7.575   0.636  24.411  0.00  0.00    -0.304 NA
ATOM     17  H   UNL     1       7.642   0.666  25.432  0.00  0.00    +0.123 HD
ENDBRANCH   1  16
TORSDOF 2
ENDMDL
MODEL 2
REMARK VINA RESULT:      -5.4      1.985      4.908
REMARK  Name = 
REMARK  3 active torsions:
REMARK  status: ('A' for Active; 'I' for Inactive)
REMARK    1  A    between atoms: C_1  and  N_2
REMARK    2  A    between atoms: N_2  and  C_3
REMARK    3  A    between atoms: C_3  and  C_10
REMARK                            x       y       z     vdW  Elec       q    Type
REMARK                         _______ _______ _______ _____ _____    ______ ____
ROOT
ATOM      1  C   UNL     1       8.510  -1.824  24.503  0.00  0.00    +0.104 C 
ATOM      2  C   UNL     1       9.443  -3.065  24.273  0.00  0.00    +0.158 C 
ATOM      3  O   UNL     1      10.551  -3.013  23.735  0.00  0.00    -0.295 OA
ATOM      4  C   UNL     1       8.912  -4.392  24.801  0.00  0.00    +0.076 C 
ATOM      5  C   UNL     1       8.736  -4.296  26.306  0.00  0.00    +0.008 C 
ATOM      6  C   UNL     1       7.831  -3.130  26.683  0.00  0.00    +0.003 C 
ATOM      7  C   UNL     1       8.302  -1.818  26.052  0.00  0.00    +0.035 C 
ENDROOT
BRANCH   1   8
ATOM      8  C   UNL     1       9.140  -0.497  23.993  0.00  0.00    -0.002 A 
ATOM      9  C   UNL     1       9.413  -0.232  22.631  0.00  0.00    +0.046 A 
ATOM     10 CL   UNL     1       9.067  -1.357  21.361  0.00  0.00    -0.083 Cl
ATOM     11  C   UNL     1       9.937   1.006  22.220  0.00  0.00    +0.020 A 
ATOM     12  C   UNL     1      10.194   2.017  23.147  0.00  0.00    +0.001 A 
ATOM     13  C   UNL     1       9.933   1.792  24.484  0.00  0.00    +0.000 A 
ATOM     14  C   UNL     1       9.416   0.559  24.898  0.00  0.00    +0.007 A 
ENDBRANCH   1   8
BRANCH   1  16
ATOM     15  C   UNL     1       6.100  -1.313  24.104  0.00  0.00    +0.102 C 
ATOM     16  N   UNL     1       7.247  -2.141  23.772  0.00  0.00    -0.304 NA
ATOM     17  H   UNL     1       7.441  -2.033  22.773  0.00  0.00    +0.123 HD
ENDBRANCH   1  16
TORSDOF 2
ENDMDL
MODEL 3
REMARK VINA RESULT:      -5.4      2.264      2.930
REMARK  Name = 
REMARK  3 active torsions:
REMARK  status: ('A' for Active; 'I' for Inactive)
REMARK    1  A    between atoms: C_1  and  N_2
REMARK    2  A    between atoms: N_2  and  C_3
REMARK    3  A    between atoms: C_3  and  C_10
REMARK                            x       y       z     vdW  Elec       q    Type
REMARK                         _______ _______ _______ _____ _____    ______ ____
ROOT
ATOM      1  C   UNL     1       8.516  -1.535  24.061  0.00  0.00    +0.104 C 
ATOM      2  C   UNL     1       9.958  -1.260  23.506  0.00  0.00    +0.158 C 
ATOM      3  O   UNL     1      10.528  -1.962  22.668  0.00  0.00    -0.295 OA
ATOM      4  C   UNL     1      10.642  -0.008  24.043  0.00  0.00    +0.076 C 
ATOM      5  C   UNL     1       9.824   1.211  23.658  0.00  0.00    +0.008 C 
ATOM      6  C   UNL     1       8.387   1.091  24.149  0.00  0.00    +0.003 C 
ATOM      7  C   UNL     1       7.743  -0.224  23.706  0.00  0.00    +0.035 C 
ENDROOT
BRANCH   1   8
ATOM      8  C   UNL     1       7.858  -2.792  23.426  0.00  0.00    -0.002 A 
ATOM      9  C   UNL     1       8.225  -4.118  23.753  0.00  0.00    +0.046 A 
ATOM     10 CL   UNL     1       9.451  -4.501  24.915  0.00  0.00    -0.083 Cl
ATOM     11  C   UNL     1       7.561  -5.219  23.186  0.00  0.00    +0.020 A 
ATOM     12  C   UNL     1       6.510  -5.035  22.287  0.00  0.00    +0.001 A 
ATOM     13  C   UNL     1       6.124  -3.752  21.951  0.00  0.00    +0.000 A 
ATOM     14  C   UNL     1       6.785  -2.654  22.510  0.00  0.00    +0.007 A 
ENDBRANCH   1   8
BRANCH   1  16
ATOM     15  C   UNL     1       7.466  -1.656  26.322  0.00  0.00    +0.102 C 
ATOM     16  N   UNL     1       8.687  -1.698  25.535  0.00  0.00    -0.304 NA
ATOM     17  H   UNL     1       9.137  -2.605  25.689  0.00  0.00    +0.123 HD
ENDBRANCH   1  16
TORSDOF 2
ENDMDL
MODEL 4
REMARK VINA RESULT:      -5.3      2.085      4.755
REMARK  Name = 
REMARK  3 active torsions:
REMARK  status: ('A' for Active; 'I' for Inactive)
REMARK    1  A    between atoms: C_1  and  N_2
REMARK    2  A    between atoms: N_2  and  C_3
REMARK    3  A    between atoms: C_3  and  C_10
REMARK                            x       y       z     vdW  Elec       q    Type
REMARK                         _______ _______ _______ _____ _____    ______ ____
ROOT
ATOM      1  C   UNL     1       7.913  -2.705  23.618  0.00  0.00    +0.104 C 
ATOM      2  C   UNL     1       8.904  -3.789  24.173  0.00  0.00    +0.158 C 
ATOM      3  O   UNL     1      10.123  -3.632  24.276  0.00  0.00    -0.295 OA
ATOM      4  C   UNL     1       8.262  -5.091  24.636  0.00  0.00    +0.076 C 
ATOM      5  C   UNL     1       7.307  -4.798  25.779  0.00  0.00    +0.008 C 
ATOM      6  C   UNL     1       6.266  -3.760  25.378  0.00  0.00    +0.003 C 
ATOM      7  C   UNL     1       6.915  -2.499  24.802  0.00  0.00    +0.035 C 
ENDROOT
BRANCH   1   8
ATOM      8  C   UNL     1       8.631  -1.384  23.221  0.00  0.00    -0.002 A 
ATOM      9  C   UNL     1       9.156  -0.465  24.159  0.00  0.00    +0.046 A 
ATOM     10 CL   UNL     1       9.071  -0.709  25.871  0.00  0.00    -0.083 Cl
ATOM     11  C   UNL     1       9.841   0.689  23.743  0.00  0.00    +0.020 A 
ATOM     12  C   UNL     1      10.031   0.959  22.387  0.00  0.00    +0.001 A 
ATOM     13  C   UNL     1       9.536   0.078  21.446  0.00  0.00    +0.000 A 
ATOM     14  C   UNL     1       8.849  -1.070  21.856  0.00  0.00    +0.007 A 
ENDBRANCH   1   8
BRANCH   1  16
ATOM     15  C   UNL     1       5.874  -2.959  22.203  0.00  0.00    +0.102 C 
ATOM     16  N   UNL     1       7.256  -3.341  22.438  0.00  0.00    -0.304 NA
ATOM     17  H   UNL     1       7.804  -3.087  21.613  0.00  0.00    +0.123 HD
ENDBRANCH   1  16
TORSDOF 2
ENDMDL
MODEL 5
REMARK VINA RESULT:      -5.3      2.954      4.371
REMARK  Name = 
REMARK  3 active torsions:
REMARK  status: ('A' for Active; 'I' for Inactive)
REMARK    1  A    between atoms: C_1  and  N_2
REMARK    2  A    between atoms: N_2  and  C_3
REMARK    3  A    between atoms: C_3  and  C_10
REMARK                            x       y       z     vdW  Elec       q    Type
REMARK                         _______ _______ _______ _____ _____    ______ ____
ROOT
ATOM      1  C   UNL     1       8.392  -3.375  24.267  0.00  0.00    +0.104 C 
ATOM      2  C   UNL     1       8.844  -2.132  23.421  0.00  0.00    +0.158 C 
ATOM      3  O   UNL     1       8.422  -1.866  22.293  0.00  0.00    -0.295 OA
ATOM      4  C   UNL     1       9.845  -1.204  24.099  0.00  0.00    +0.076 C 
ATOM      5  C   UNL     1       9.219  -0.628  25.356  0.00  0.00    +0.008 C 
ATOM      6  C   UNL     1       8.740  -1.732  26.291  0.00  0.00    +0.003 C 
ATOM      7  C   UNL     1       7.829  -2.728  25.573  0.00  0.00    +0.035 C 
ENDROOT
BRANCH   1   8
ATOM      8  C   UNL     1       7.328  -4.242  23.537  0.00  0.00    -0.002 A 
ATOM      9  C   UNL     1       5.953  -3.914  23.481  0.00  0.00    +0.046 A 
ATOM     10 CL   UNL     1       5.291  -2.493  24.216  0.00  0.00    -0.083 Cl
ATOM     11  C   UNL     1       5.043  -4.707  22.763  0.00  0.00    +0.020 A 
ATOM     12  C   UNL     1       5.472  -5.842  22.074  0.00  0.00    +0.001 A 
ATOM     13  C   UNL     1       6.809  -6.187  22.103  0.00  0.00    +0.000 A 
ATOM     14  C   UNL     1       7.718  -5.402  22.821  0.00  0.00    +0.007 A 
ENDBRANCH   1   8
BRANCH   1  16
ATOM     15  C   UNL     1       9.606  -5.048  25.666  0.00  0.00    +0.102 C 
ATOM     16  N   UNL     1       9.642  -4.151  24.523  0.00  0.00    -0.304 NA
ATOM     17  H   UNL     1       9.830  -4.707  23.685  0.00  0.00    +0.123 HD
ENDBRANCH   1  16
TORSDOF 2
ENDMDL
MODEL 6
REMARK VINA RESULT:      -5.3      1.360      1.451
REMARK  Name = 
REMARK  3 active torsions:
REMARK  status: ('A' for Active; 'I' for Inactive)
REMARK    1  A    between atoms: C_1  and  N_2
REMARK    2  A    between atoms: N_2  and  C_3
REMARK    3  A    between atoms: C_3  and  C_10
REMARK                            x       y       z     vdW  Elec       q    Type
REMARK                         _______ _______ _______ _____ _____    ______ ____
ROOT
ATOM      1  C   UNL     1       8.544  -1.322  23.692  0.00  0.00    +0.104 C 
ATOM      2  C   UNL     1       9.128   0.017  24.266  0.00  0.00    +0.158 C 
ATOM      3  O   UNL     1       9.618   0.138  25.391  0.00  0.00    -0.295 OA
ATOM      4  C   UNL     1       9.098   1.207  23.315  0.00  0.00    +0.076 C 
ATOM      5  C   UNL     1       9.941   0.892  22.093  0.00  0.00    +0.008 C 
ATOM      6  C   UNL     1       9.475  -0.391  21.415  0.00  0.00    +0.003 C 
ATOM      7  C   UNL     1       9.394  -1.557  22.402  0.00  0.00    +0.035 C 
ENDROOT
BRANCH   1   8
ATOM      8  C   UNL     1       8.662  -2.506  24.694  0.00  0.00    -0.002 A 
ATOM      9  C   UNL     1       7.898  -2.608  25.880  0.00  0.00    +0.046 A 
ATOM     10 CL   UNL     1       6.727  -1.425  26.355  0.00  0.00    -0.083 Cl
ATOM     11  C   UNL     1       8.009  -3.727  26.724  0.00  0.00    +0.020 A 
ATOM     12  C   UNL     1       8.871  -4.777  26.410  0.00  0.00    +0.001 A 
ATOM     13  C   UNL     1       9.627  -4.711  25.255  0.00  0.00    +0.000 A 
ATOM     14  C   UNL     1       9.523  -3.597  24.415  0.00  0.00    +0.007 A 
ENDBRANCH   1   8
BRANCH   1  16
ATOM     15  C   UNL     1       6.379  -2.088  22.715  0.00  0.00    +0.102 C 
ATOM     16  N   UNL     1       7.116  -1.023  23.373  0.00  0.00    -0.304 NA
ATOM     17  H   UNL     1       6.647  -0.806  24.256  0.00  0.00    +0.123 HD
ENDBRANCH   1  16
TORSDOF 2
ENDMDL
MODEL 7
REMARK VINA RESULT:      -5.2      2.246      4.605
REMARK  Name = 
REMARK  3 active torsions:
REMARK  status: ('A' for Active; 'I' for Inactive)
REMARK    1  A    between atoms: C_1  and  N_2
REMARK    2  A    between atoms: N_2  and  C_3
REMARK    3  A    between atoms: C_3  and  C_10
REMARK                            x       y       z     vdW  Elec       q    Type
REMARK                         _______ _______ _______ _____ _____    ______ ____
ROOT
ATOM      1  C   UNL     1       7.843  -1.718  23.574  0.00  0.00    +0.104 C 
ATOM      2  C   UNL     1       6.365  -1.444  24.027  0.00  0.00    +0.158 C 
ATOM      3  O   UNL     1       5.906  -0.326  24.268  0.00  0.00    -0.295 OA
ATOM      4  C   UNL     1       5.470  -2.674  24.127  0.00  0.00    +0.076 C 
ATOM      5  C   UNL     1       5.357  -3.320  22.759  0.00  0.00    +0.008 C 
ATOM      6  C   UNL     1       6.730  -3.659  22.191  0.00  0.00    +0.003 C 
ATOM      7  C   UNL     1       7.663  -2.447  22.204  0.00  0.00    +0.035 C 
ENDROOT
BRANCH   1   8
ATOM      8  C   UNL     1       8.679  -0.414  23.437  0.00  0.00    -0.002 A 
ATOM      9  C   UNL     1       9.150   0.334  24.541  0.00  0.00    +0.046 A 
ATOM     10 CL   UNL     1       8.857  -0.121  26.185  0.00  0.00    -0.083 Cl
ATOM     11  C   UNL     1       9.946   1.478  24.359  0.00  0.00    +0.020 A 
ATOM     12  C   UNL     1      10.304   1.905  23.080  0.00  0.00    +0.001 A 
ATOM     13  C   UNL     1       9.865   1.193  21.981  0.00  0.00    +0.000 A 
ATOM     14  C   UNL     1       9.068   0.057  22.158  0.00  0.00    +0.007 A 
ENDBRANCH   1   8
BRANCH   1  16
ATOM     15  C   UNL     1       9.684  -3.243  24.287  0.00  0.00    +0.102 C 
ATOM     16  N   UNL     1       8.413  -2.621  24.616  0.00  0.00    -0.304 NA
ATOM     17  H   UNL     1       8.540  -2.063  25.464  0.00  0.00    +0.123 HD
ENDBRANCH   1  16
TORSDOF 2
ENDMDL
MODEL 8
REMARK VINA RESULT:      -5.2      2.222      4.920
REMARK  Name = 
REMARK  3 active torsions:
REMARK  status: ('A' for Active; 'I' for Inactive)
REMARK    1  A    between atoms: C_1  and  N_2
REMARK    2  A    between atoms: N_2  and  C_3
REMARK    3  A    between atoms: C_3  and  C_10
REMARK                            x       y       z     vdW  Elec       q    Type
REMARK                         _______ _______ _______ _____ _____    ______ ____
ROOT
ATOM      1  C   UNL     1       8.228  -1.863  24.146  0.00  0.00    +0.104 C 
ATOM      2  C   UNL     1       7.115  -2.839  23.625  0.00  0.00    +0.158 C 
ATOM      3  O   UNL     1       6.402  -2.622  22.643  0.00  0.00    -0.295 OA
ATOM      4  C   UNL     1       6.970  -4.143  24.400  0.00  0.00    +0.076 C 
ATOM      5  C   UNL     1       8.267  -4.926  24.304  0.00  0.00    +0.008 C 
ATOM      6  C   UNL     1       9.449  -4.100  24.796  0.00  0.00    +0.003 C 
ATOM      7  C   UNL     1       9.520  -2.740  24.098  0.00  0.00    +0.035 C 
ENDROOT
BRANCH   1   8
ATOM      8  C   UNL     1       8.359  -0.582  23.275  0.00  0.00    -0.002 A 
ATOM      9  C   UNL     1       7.407   0.464  23.272  0.00  0.00    +0.046 A 
ATOM     10 CL   UNL     1       5.980   0.446  24.251  0.00  0.00    -0.083 Cl
ATOM     11  C   UNL     1       7.601   1.624  22.502  0.00  0.00    +0.020 A 
ATOM     12  C   UNL     1       8.748   1.782  21.723  0.00  0.00    +0.001 A 
ATOM     13  C   UNL     1       9.700   0.781  21.709  0.00  0.00    +0.000 A 
ATOM     14  C   UNL     1       9.508  -0.377  22.470  0.00  0.00    +0.007 A 
ENDBRANCH   1   8
BRANCH   1  16
ATOM     15  C   UNL     1       8.845  -0.856  26.345  0.00  0.00    +0.102 C 
ATOM     16  N   UNL     1       7.834  -1.528  25.547  0.00  0.00    -0.304 NA
ATOM     17  H   UNL     1       7.012  -0.920  25.493  0.00  0.00    +0.123 HD
ENDBRANCH   1  16
TORSDOF 2
ENDMDL
MODEL 9
REMARK VINA RESULT:      -5.2      2.906      5.126
REMARK  Name = 
REMARK  3 active torsions:
REMARK  status: ('A' for Active; 'I' for Inactive)
REMARK    1  A    between atoms: C_1  and  N_2
REMARK    2  A    between atoms: N_2  and  C_3
REMARK    3  A    between atoms: C_3  and  C_10
REMARK                            x       y       z     vdW  Elec       q    Type
REMARK                         _______ _______ _______ _____ _____    ______ ____
ROOT
ATOM      1  C   UNL     1       7.443  -3.698  23.841  0.00  0.00    +0.104 C 
ATOM      2  C   UNL     1       5.962  -3.234  24.075  0.00  0.00    +0.158 C 
ATOM      3  O   UNL     1       5.601  -2.056  24.127  0.00  0.00    -0.295 OA
ATOM      4  C   UNL     1       4.935  -4.352  24.203  0.00  0.00    +0.076 C 
ATOM      5  C   UNL     1       4.906  -5.153  22.914  0.00  0.00    +0.008 C 
ATOM      6  C   UNL     1       6.289  -5.686  22.563  0.00  0.00    +0.003 C 
ATOM      7  C   UNL     1       7.340  -4.575  22.552  0.00  0.00    +0.035 C 
ENDROOT
BRANCH   1   8
ATOM      8  C   UNL     1       8.424  -2.506  23.661  0.00  0.00    -0.002 A 
ATOM      9  C   UNL     1       8.874  -1.693  24.727  0.00  0.00    +0.046 A 
ATOM     10 CL   UNL     1       8.390  -1.938  26.371  0.00  0.00    -0.083 Cl
ATOM     11  C   UNL     1       9.803  -0.660  24.514  0.00  0.00    +0.020 A 
ATOM     12  C   UNL     1      10.316  -0.410  23.241  0.00  0.00    +0.001 A 
ATOM     13  C   UNL     1       9.901  -1.190  22.179  0.00  0.00    +0.000 A 
ATOM     14  C   UNL     1       8.974  -2.216  22.386  0.00  0.00    +0.007 A 
ENDBRANCH   1   8
BRANCH   1  16
ATOM     15  C   UNL     1       9.029  -5.273  24.952  0.00  0.00    +0.102 C 
ATOM     16  N   UNL     1       7.794  -4.512  25.043  0.00  0.00    -0.304 NA
ATOM     17  H   UNL     1       7.871  -3.867  25.833  0.00  0.00    +0.123 HD
ENDBRANCH   1  16
TORSDOF 2
ENDMDL
