MODEL 1
REMARK VINA RESULT:      -8.0      0.000      0.000
REMARK  Name = 
REMARK  18 active torsions:
REMARK  status: ('A' for Active; 'I' for Inactive)
REMARK    1  A    between atoms: C_1  and  N_2
REMARK    2  A    between atoms: C_3  and  N_4
REMARK    3  A    between atoms: C_5  and  N_6
REMARK    4  A    between atoms: N_9  and  C_10
REMARK    5  A    between atoms: C_10  and  C_11
REMARK    6  A    between atoms: C_11  and  N_12
REMARK    7  A    between atoms: N_14  and  C_15
REMARK    8  A    between atoms: C_15  and  C_16
REMARK    9  A    between atoms: CA_17  and  C_45
REMARK   10  A    between atoms: CA_23  and  N_25
REMARK   11  A    between atoms: C_26  and  C_28
REMARK   12  A    between atoms: C_28  and  C_37
REMARK   13  A    between atoms: N_29  and  O_30
REMARK   14  A    between atoms: O_30  and  C_31
REMARK   15  A    between atoms: C_31  and  C_32
REMARK   16  A    between atoms: C_31  and  C_33
REMARK   17  A    between atoms: C_31  and  C_34
REMARK   18  A    between atoms: C_34  and  O_35
REMARK                            x       y       z     vdW  Elec       q    Type
REMARK                         _______ _______ _______ _____ _____    ______ ____
ROOT
ATOM      1  C   UNL     1       7.270  -0.523  24.800  0.00  0.00    +0.030 C 
ATOM      2  C   UNL     1       6.061  -0.958  24.034  0.00  0.00    +0.110 C 
ATOM      3  S   UNL     1       6.109  -2.416  23.007  0.00  0.00    -0.131 S 
ATOM      4  C   UNL     1       7.773  -3.025  23.258  0.00  0.00    +0.168 C 
ATOM      5  CA  UNL     1       7.909  -4.367  24.039  0.00  0.00    +0.191 C 
ATOM      6  C   UNL     1       8.681  -3.524  25.070  0.00  0.00    +0.244 C 
ATOM      7  O   UNL     1       9.023  -3.743  26.212  0.00  0.00    -0.273 OA
ATOM      8  N   UNL     1       8.619  -2.411  24.268  0.00  0.00    -0.253 N 
ATOM      9  CA  UNL     1       8.471  -1.138  24.771  0.00  0.00    +0.066 C 
ENDROOT
BRANCH   5  10
ATOM     10  N   UNL     1       6.696  -5.121  24.534  0.00  0.00    -0.296 N 
ATOM     11  H   UNL     1       6.321  -4.865  25.444  0.00  0.00    +0.150 HD
ATOM     12  C   UNL     1       5.880  -5.962  23.784  0.00  0.00    +0.270 C 
ATOM     13  O   UNL     1       6.017  -6.192  22.591  0.00  0.00    -0.268 OA
BRANCH  12  14
ATOM     14  C   UNL     1       4.690  -6.551  24.524  0.00  0.00    +0.208 C 
ATOM     15  N   UNL     1       4.611  -6.808  25.794  0.00  0.00    -0.075 NA
BRANCH  14  16
ATOM     16  C   UNL     1       3.370  -6.853  23.952  0.00  0.00    +0.197 A 
ATOM     17  N   UNL     1       2.837  -8.111  24.301  0.00  0.00    -0.202 NA
ATOM     18  C   UNL     1       1.687  -8.295  23.724  0.00  0.00    +0.176 A 
ATOM     19  N   UNL     1       0.828  -9.240  24.160  0.00  0.00    -0.336 N 
ATOM     20  H   UNL     1       1.074  -9.526  25.110  0.00  0.00    +0.144 HD
ATOM     21  H   UNL     1      -0.158  -9.014  24.116  0.00  0.00    +0.144 HD
ATOM     22  S   UNL     1       1.390  -7.069  22.543  0.00  0.00    +0.049 S 
ATOM     23  N   UNL     1       2.709  -6.118  23.044  0.00  0.00    -0.185 NA
ENDBRANCH  14  16
BRANCH  15  24
ATOM     24  O   UNL     1       5.677  -6.771  26.657  0.00  0.00    -0.376 OA
BRANCH  24  25
ATOM     25  C   UNL     1       5.168  -6.103  27.847  0.00  0.00    +0.228 C 
ATOM     26  C   UNL     1       3.766  -6.643  28.075  0.00  0.00    +0.070 C 
ATOM     27  C   UNL     1       5.115  -4.568  27.660  0.00  0.00    +0.070 C 
BRANCH  25  28
ATOM     28  C   UNL     1       6.024  -6.427  29.094  0.00  0.00    +0.351 C 
ATOM     29  O   UNL     1       6.701  -7.439  29.225  0.00  0.00    -0.246 OA
BRANCH  28  30
ATOM     30  O   UNL     1       5.989  -5.464  30.049  0.00  0.00    -0.478 OA
ATOM     31  H   UNL     1       5.855  -4.596  29.609  0.00  0.00    +0.295 HD
ENDBRANCH  28  30
ENDBRANCH  25  28
ENDBRANCH  24  25
ENDBRANCH  15  24
ENDBRANCH  12  14
ENDBRANCH   5  10
BRANCH   9  32
ATOM     32  C   UNL     1       9.737  -0.420  25.400  0.00  0.00    +0.086 C 
ATOM     33  OXT UNL     1      10.558   0.054  24.581  0.00  0.00    -0.543 OA
ATOM     34  O   UNL     1       9.746  -0.386  26.667  0.00  0.00    -0.543 OA
ENDBRANCH   9  32
BRANCH   1  35
ATOM     35  C   UNL     1       6.987   0.693  25.680  0.00  0.00    +0.420 C 
BRANCH  35  38
ATOM     36  C   UNL     1       4.620   2.255  24.557  0.00  0.00    +0.223 C 
ATOM     37  N   UNL     1       6.001   2.711  24.572  0.00  0.00    -0.138 N 
ATOM     38  N   UNL     1       7.078   1.934  24.875  0.00  0.00    -0.106 N 
ATOM     39  C   UNL     1       8.226   2.555  24.300  0.00  0.00    +0.363 A 
ATOM     40  C   UNL     1       7.865   3.853  23.737  0.00  0.00    +0.145 A 
ATOM     41  C   UNL     1       6.454   3.934  24.032  0.00  0.00    +0.179 A 
BRANCH  40  42
ATOM     42  N   UNL     1       8.749   4.721  23.107  0.00  0.00    -0.262 N 
ATOM     43  H   UNL     1       8.814   4.660  22.100  0.00  0.00    +0.157 HD
ATOM     44  C   UNL     1       9.609   5.569  23.777  0.00  0.00    +0.304 C 
ATOM     45  N   UNL     1      10.725   5.860  23.020  0.00  0.00    -0.298 N 
ATOM     46  H   UNL     1      10.731   5.618  22.040  0.00  0.00    +0.150 HD
ATOM     47  O   UNL     1       9.547   5.834  24.973  0.00  0.00    -0.253 OA
BRANCH  45  48
ATOM     48  C   UNL     1      12.045   5.942  23.657  0.00  0.00    +0.120 C 
BRANCH  48  49
ATOM     49  C   UNL     1      12.899   4.703  23.377  0.00  0.00    +0.096 C 
BRANCH  49  50
ATOM     50  N   UNL     1      14.228   5.168  23.004  0.00  0.00    -0.329 NA
ATOM     51  H   UNL     1      14.914   4.825  23.677  0.00  0.00    +0.118 HD
ATOM     52  H   UNL     1      14.528   4.764  22.120  0.00  0.00    +0.118 HD
ENDBRANCH  49  50
ENDBRANCH  48  49
ENDBRANCH  45  48
ENDBRANCH  40  42
BRANCH  41  53
ATOM     53  N   UNL     1       5.620   5.002  23.914  0.00  0.00    -0.339 N 
ATOM     54  H   UNL     1       5.033   5.069  23.059  0.00  0.00    +0.144 HD
ATOM     55  H   UNL     1       5.864   5.930  24.233  0.00  0.00    +0.144 HD
ENDBRANCH  41  53
ENDBRANCH  35  38
ENDBRANCH   1  35
TORSDOF 15
ENDMDL
MODEL 2
REMARK VINA RESULT:      -7.6      2.442      3.727
REMARK  Name = 
REMARK  18 active torsions:
REMARK  status: ('A' for Active; 'I' for Inactive)
REMARK    1  A    between atoms: C_1  and  N_2
REMARK    2  A    between atoms: C_3  and  N_4
REMARK    3  A    between atoms: C_5  and  N_6
REMARK    4  A    between atoms: N_9  and  C_10
REMARK    5  A    between atoms: C_10  and  C_11
REMARK    6  A    between atoms: C_11  and  N_12
REMARK    7  A    between atoms: N_14  and  C_15
REMARK    8  A    between atoms: C_15  and  C_16
REMARK    9  A    between atoms: CA_17  and  C_45
REMARK   10  A    between atoms: CA_23  and  N_25
REMARK   11  A    between atoms: C_26  and  C_28
REMARK   12  A    between atoms: C_28  and  C_37
REMARK   13  A    between atoms: N_29  and  O_30
REMARK   14  A    between atoms: O_30  and  C_31
REMARK   15  A    between atoms: C_31  and  C_32
REMARK   16  A    between atoms: C_31  and  C_33
REMARK   17  A    between atoms: C_31  and  C_34
REMARK   18  A    between atoms: C_34  and  O_35
REMARK                            x       y       z     vdW  Elec       q    Type
REMARK                         _______ _______ _______ _____ _____    ______ ____
ROOT
ATOM      1  C   UNL     1       7.678  -1.819  24.538  0.00  0.00    +0.030 C 
ATOM      2  C   UNL     1       6.209  -1.746  24.808  0.00  0.00    +0.110 C 
ATOM      3  S   UNL     1       5.056  -2.698  23.834  0.00  0.00    -0.131 S 
ATOM      4  C   UNL     1       6.127  -3.597  22.716  0.00  0.00    +0.168 C 
ATOM      5  CA  UNL     1       6.213  -5.139  22.930  0.00  0.00    +0.191 C 
ATOM      6  C   UNL     1       7.701  -4.872  23.220  0.00  0.00    +0.244 C 
ATOM      7  O   UNL     1       8.570  -5.555  23.717  0.00  0.00    -0.273 OA
ATOM      8  N   UNL     1       7.567  -3.543  22.901  0.00  0.00    -0.253 N 
ATOM      9  CA  UNL     1       8.254  -2.548  23.560  0.00  0.00    +0.066 C 
ENDROOT
BRANCH   5  10
ATOM     10  N   UNL     1       5.413  -5.835  24.008  0.00  0.00    -0.296 N 
ATOM     11  H   UNL     1       4.772  -6.570  23.718  0.00  0.00    +0.150 HD
ATOM     12  C   UNL     1       5.628  -5.757  25.380  0.00  0.00    +0.270 C 
ATOM     13  O   UNL     1       6.527  -5.123  25.915  0.00  0.00    -0.268 OA
BRANCH  12  14
ATOM     14  C   UNL     1       4.705  -6.607  26.236  0.00  0.00    +0.208 C 
ATOM     15  N   UNL     1       3.890  -7.531  25.825  0.00  0.00    -0.075 NA
BRANCH  14  16
ATOM     16  C   UNL     1       4.630  -6.606  27.704  0.00  0.00    +0.197 A 
ATOM     17  N   UNL     1       3.600  -5.816  28.255  0.00  0.00    -0.202 NA
ATOM     18  C   UNL     1       3.637  -5.858  29.553  0.00  0.00    +0.176 A 
ATOM     19  N   UNL     1       2.575  -5.484  30.296  0.00  0.00    -0.336 N 
ATOM     20  H   UNL     1       1.730  -5.477  29.721  0.00  0.00    +0.144 HD
ATOM     21  H   UNL     1       2.406  -6.009  31.145  0.00  0.00    +0.144 HD
ATOM     22  S   UNL     1       5.087  -6.622  30.101  0.00  0.00    +0.049 S 
ATOM     23  N   UNL     1       5.515  -7.164  28.546  0.00  0.00    -0.185 NA
ENDBRANCH  14  16
BRANCH  15  24
ATOM     24  O   UNL     1       3.583  -7.758  24.508  0.00  0.00    -0.376 OA
BRANCH  24  25
ATOM     25  C   UNL     1       2.127  -7.804  24.469  0.00  0.00    +0.228 C 
ATOM     26  C   UNL     1       1.747  -8.112  23.030  0.00  0.00    +0.070 C 
ATOM     27  C   UNL     1       1.503  -6.455  24.900  0.00  0.00    +0.070 C 
BRANCH  25  28
ATOM     28  C   UNL     1       1.567  -8.927  25.373  0.00  0.00    +0.351 C 
ATOM     29  O   UNL     1       0.558  -8.825  26.060  0.00  0.00    -0.246 OA
BRANCH  28  30
ATOM     30  O   UNL     1       2.284 -10.077  25.326  0.00  0.00    -0.478 OA
ATOM     31  H   UNL     1       3.239  -9.848  25.339  0.00  0.00    +0.295 HD
ENDBRANCH  28  30
ENDBRANCH  25  28
ENDBRANCH  24  25
ENDBRANCH  15  24
ENDBRANCH  12  14
ENDBRANCH   5  10
BRANCH   9  32
ATOM     32  C   UNL     1       9.782  -2.318  23.204  0.00  0.00    +0.086 C 
ATOM     33  OXT UNL     1      10.011  -1.475  22.306  0.00  0.00    -0.543 OA
ATOM     34  O   UNL     1      10.592  -2.998  23.902  0.00  0.00    -0.543 OA
ENDBRANCH   9  32
BRANCH   1  35
ATOM     35  C   UNL     1       8.487  -0.997  25.541  0.00  0.00    +0.420 C 
BRANCH  35  38
ATOM     36  C   UNL     1       6.468   0.897  26.821  0.00  0.00    +0.223 C 
ATOM     37  N   UNL     1       7.584   1.297  25.978  0.00  0.00    -0.138 N 
ATOM     38  N   UNL     1       8.351   0.448  25.240  0.00  0.00    -0.106 N 
ATOM     39  C   UNL     1       8.961   1.216  24.204  0.00  0.00    +0.363 A 
ATOM     40  C   UNL     1       8.672   2.634  24.396  0.00  0.00    +0.145 A 
ATOM     41  C   UNL     1       7.874   2.625  25.599  0.00  0.00    +0.179 A 
BRANCH  40  42
ATOM     42  N   UNL     1       9.122   3.656  23.568  0.00  0.00    -0.262 N 
ATOM     43  H   UNL     1       9.085   3.490  22.571  0.00  0.00    +0.157 HD
ATOM     44  C   UNL     1       9.707   4.821  24.025  0.00  0.00    +0.304 C 
ATOM     45  N   UNL     1      10.556   5.364  23.083  0.00  0.00    -0.298 N 
ATOM     46  H   UNL     1      10.531   5.012  22.137  0.00  0.00    +0.150 HD
ATOM     47  O   UNL     1       9.698   5.203  25.190  0.00  0.00    -0.253 OA
BRANCH  45  48
ATOM     48  C   UNL     1      11.832   5.960  23.499  0.00  0.00    +0.120 C 
BRANCH  48  49
ATOM     49  C   UNL     1      12.951   5.691  22.490  0.00  0.00    +0.096 C 
BRANCH  49  50
ATOM     50  N   UNL     1      14.019   5.001  23.201  0.00  0.00    -0.329 NA
ATOM     51  H   UNL     1      14.776   5.654  23.403  0.00  0.00    +0.118 HD
ATOM     52  H   UNL     1      13.711   4.689  24.119  0.00  0.00    +0.118 HD
ENDBRANCH  49  50
ENDBRANCH  48  49
ENDBRANCH  45  48
ENDBRANCH  40  42
BRANCH  41  53
ATOM     53  N   UNL     1       7.477   3.677  26.364  0.00  0.00    -0.339 N 
ATOM     54  H   UNL     1       8.155   4.063  27.051  0.00  0.00    +0.144 HD
ATOM     55  H   UNL     1       6.536   3.775  26.723  0.00  0.00    +0.144 HD
ENDBRANCH  41  53
ENDBRANCH  35  38
ENDBRANCH   1  35
TORSDOF 15
ENDMDL
MODEL 3
REMARK VINA RESULT:      -7.6      2.615      4.351
REMARK  Name = 
REMARK  18 active torsions:
REMARK  status: ('A' for Active; 'I' for Inactive)
REMARK    1  A    between atoms: C_1  and  N_2
REMARK    2  A    between atoms: C_3  and  N_4
REMARK    3  A    between atoms: C_5  and  N_6
REMARK    4  A    between atoms: N_9  and  C_10
REMARK    5  A    between atoms: C_10  and  C_11
REMARK    6  A    between atoms: C_11  and  N_12
REMARK    7  A    between atoms: N_14  and  C_15
REMARK    8  A    between atoms: C_15  and  C_16
REMARK    9  A    between atoms: CA_17  and  C_45
REMARK   10  A    between atoms: CA_23  and  N_25
REMARK   11  A    between atoms: C_26  and  C_28
REMARK   12  A    between atoms: C_28  and  C_37
REMARK   13  A    between atoms: N_29  and  O_30
REMARK   14  A    between atoms: O_30  and  C_31
REMARK   15  A    between atoms: C_31  and  C_32
REMARK   16  A    between atoms: C_31  and  C_33
REMARK   17  A    between atoms: C_31  and  C_34
REMARK   18  A    between atoms: C_34  and  O_35
REMARK                            x       y       z     vdW  Elec       q    Type
REMARK                         _______ _______ _______ _____ _____    ______ ____
ROOT
ATOM      1  C   UNL     1       7.473  -1.827  23.978  0.00  0.00    +0.030 C 
ATOM      2  C   UNL     1       5.985  -1.849  24.128  0.00  0.00    +0.110 C 
ATOM      3  S   UNL     1       4.998  -3.038  23.236  0.00  0.00    -0.131 S 
ATOM      4  C   UNL     1       6.227  -3.993  22.353  0.00  0.00    +0.168 C 
ATOM      5  CA  UNL     1       6.415  -5.471  22.813  0.00  0.00    +0.191 C 
ATOM      6  C   UNL     1       7.848  -5.030  23.162  0.00  0.00    +0.244 C 
ATOM      7  O   UNL     1       8.724  -5.547  23.821  0.00  0.00    -0.273 OA
ATOM      8  N   UNL     1       7.638  -3.782  22.630  0.00  0.00    -0.253 N 
ATOM      9  CA  UNL     1       8.186  -2.640  23.170  0.00  0.00    +0.066 C 
ENDROOT
BRANCH   5  10
ATOM     10  N   UNL     1       5.585  -6.067  23.927  0.00  0.00    -0.296 N 
ATOM     11  H   UNL     1       5.032  -6.893  23.712  0.00  0.00    +0.150 HD
ATOM     12  C   UNL     1       5.676  -5.763  25.281  0.00  0.00    +0.270 C 
ATOM     13  O   UNL     1       6.473  -4.976  25.772  0.00  0.00    -0.268 OA
BRANCH  12  14
ATOM     14  C   UNL     1       4.754  -6.555  26.193  0.00  0.00    +0.208 C 
ATOM     15  N   UNL     1       3.939  -7.504  25.845  0.00  0.00    -0.075 NA
BRANCH  14  16
ATOM     16  C   UNL     1       4.681  -6.457  27.658  0.00  0.00    +0.197 A 
ATOM     17  N   UNL     1       3.887  -5.402  28.153  0.00  0.00    -0.202 NA
ATOM     18  C   UNL     1       3.911  -5.383  29.452  0.00  0.00    +0.176 A 
ATOM     19  N   UNL     1       2.980  -4.710  30.160  0.00  0.00    -0.336 N 
ATOM     20  H   UNL     1       2.165  -4.518  29.573  0.00  0.00    +0.144 HD
ATOM     21  H   UNL     1       2.681  -5.129  31.032  0.00  0.00    +0.144 HD
ATOM     22  S   UNL     1       5.116  -6.463  30.058  0.00  0.00    +0.049 S 
ATOM     23  N   UNL     1       5.392  -7.177  28.539  0.00  0.00    -0.185 NA
ENDBRANCH  14  16
BRANCH  15  24
ATOM     24  O   UNL     1       3.629  -7.817  24.545  0.00  0.00    -0.376 OA
BRANCH  24  25
ATOM     25  C   UNL     1       2.225  -7.457  24.401  0.00  0.00    +0.228 C 
ATOM     26  C   UNL     1       1.585  -7.681  25.762  0.00  0.00    +0.070 C 
ATOM     27  C   UNL     1       1.519  -8.332  23.339  0.00  0.00    +0.070 C 
BRANCH  25  28
ATOM     28  C   UNL     1       2.053  -5.968  24.020  0.00  0.00    +0.351 C 
ATOM     29  O   UNL     1       1.483  -5.137  24.715  0.00  0.00    -0.246 OA
BRANCH  28  30
ATOM     30  O   UNL     1       2.622  -5.637  22.834  0.00  0.00    -0.478 OA
ATOM     31  H   UNL     1       3.239  -6.356  22.574  0.00  0.00    +0.295 HD
ENDBRANCH  28  30
ENDBRANCH  25  28
ENDBRANCH  24  25
ENDBRANCH  15  24
ENDBRANCH  12  14
ENDBRANCH   5  10
BRANCH   9  32
ATOM     32  C   UNL     1       9.715  -2.328  22.893  0.00  0.00    +0.086 C 
ATOM     33  OXT UNL     1      10.526  -2.802  23.722  0.00  0.00    -0.543 OA
ATOM     34  O   UNL     1       9.932  -1.660  21.838  0.00  0.00    -0.543 OA
ENDBRANCH   9  32
BRANCH   1  35
ATOM     35  C   UNL     1       8.127  -0.794  24.894  0.00  0.00    +0.420 C 
BRANCH  35  38
ATOM     36  C   UNL     1      10.800   0.667  24.730  0.00  0.00    +0.223 C 
ATOM     37  N   UNL     1       9.624   0.965  23.927  0.00  0.00    -0.138 N 
ATOM     38  N   UNL     1       8.378   0.461  24.146  0.00  0.00    -0.106 N 
ATOM     39  C   UNL     1       7.447   1.341  23.520  0.00  0.00    +0.363 A 
ATOM     40  C   UNL     1       8.157   2.361  22.755  0.00  0.00    +0.145 A 
ATOM     41  C   UNL     1       9.539   2.004  22.976  0.00  0.00    +0.179 A 
BRANCH  40  42
ATOM     42  N   UNL     1       7.549   3.370  22.018  0.00  0.00    -0.262 N 
ATOM     43  H   UNL     1       7.702   3.366  21.018  0.00  0.00    +0.157 HD
ATOM     44  C   UNL     1       6.851   4.423  22.578  0.00  0.00    +0.304 C 
ATOM     45  N   UNL     1       6.864   5.532  21.757  0.00  0.00    -0.298 N 
ATOM     46  H   UNL     1       7.179   5.434  20.803  0.00  0.00    +0.150 HD
ATOM     47  O   UNL     1       6.485   4.483  23.746  0.00  0.00    -0.253 OA
BRANCH  45  48
ATOM     48  C   UNL     1       7.013   6.873  22.334  0.00  0.00    +0.120 C 
BRANCH  48  49
ATOM     49  C   UNL     1       8.195   6.957  23.303  0.00  0.00    +0.096 C 
BRANCH  49  50
ATOM     50  N   UNL     1       9.248   6.101  22.775  0.00  0.00    -0.329 NA
ATOM     51  H   UNL     1       9.591   6.482  21.893  0.00  0.00    +0.118 HD
ATOM     52  H   UNL     1      10.066   6.104  23.379  0.00  0.00    +0.118 HD
ENDBRANCH  49  50
ENDBRANCH  48  49
ENDBRANCH  45  48
ENDBRANCH  40  42
BRANCH  41  53
ATOM     53  N   UNL     1      10.651   2.484  22.357  0.00  0.00    -0.339 N 
ATOM     54  H   UNL     1      11.402   1.808  22.112  0.00  0.00    +0.144 HD
ATOM     55  H   UNL     1      11.060   3.383  22.576  0.00  0.00    +0.144 HD
ENDBRANCH  41  53
ENDBRANCH  35  38
ENDBRANCH   1  35
TORSDOF 15
ENDMDL
MODEL 4
REMARK VINA RESULT:      -7.5      2.976     11.387
REMARK  Name = 
REMARK  18 active torsions:
REMARK  status: ('A' for Active; 'I' for Inactive)
REMARK    1  A    between atoms: C_1  and  N_2
REMARK    2  A    between atoms: C_3  and  N_4
REMARK    3  A    between atoms: C_5  and  N_6
REMARK    4  A    between atoms: N_9  and  C_10
REMARK    5  A    between atoms: C_10  and  C_11
REMARK    6  A    between atoms: C_11  and  N_12
REMARK    7  A    between atoms: N_14  and  C_15
REMARK    8  A    between atoms: C_15  and  C_16
REMARK    9  A    between atoms: CA_17  and  C_45
REMARK   10  A    between atoms: CA_23  and  N_25
REMARK   11  A    between atoms: C_26  and  C_28
REMARK   12  A    between atoms: C_28  and  C_37
REMARK   13  A    between atoms: N_29  and  O_30
REMARK   14  A    between atoms: O_30  and  C_31
REMARK   15  A    between atoms: C_31  and  C_32
REMARK   16  A    between atoms: C_31  and  C_33
REMARK   17  A    between atoms: C_31  and  C_34
REMARK   18  A    between atoms: C_34  and  O_35
REMARK                            x       y       z     vdW  Elec       q    Type
REMARK                         _______ _______ _______ _____ _____    ______ ____
ROOT
ATOM      1  C   UNL     1       6.773  -2.509  24.808  0.00  0.00    +0.030 C 
ATOM      2  C   UNL     1       7.151  -1.740  26.033  0.00  0.00    +0.110 C 
ATOM      3  S   UNL     1       8.819  -1.149  26.259  0.00  0.00    -0.131 S 
ATOM      4  C   UNL     1       9.635  -1.678  24.756  0.00  0.00    +0.168 C 
ATOM      5  CA  UNL     1      10.066  -0.551  23.769  0.00  0.00    +0.191 C 
ATOM      6  C   UNL     1       9.089  -1.230  22.792  0.00  0.00    +0.244 C 
ATOM      7  O   UNL     1       8.601  -0.869  21.742  0.00  0.00    -0.273 OA
ATOM      8  N   UNL     1       8.851  -2.253  23.676  0.00  0.00    -0.253 N 
ATOM      9  CA  UNL     1       7.617  -2.849  23.811  0.00  0.00    +0.066 C 
ENDROOT
BRANCH   5  10
ATOM     10  N   UNL     1       9.827   0.909  24.081  0.00  0.00    -0.296 N 
ATOM     11  H   UNL     1       9.757   1.177  25.060  0.00  0.00    +0.150 HD
ATOM     12  C   UNL     1       9.934   1.975  23.193  0.00  0.00    +0.270 C 
ATOM     13  O   UNL     1      10.268   1.880  22.020  0.00  0.00    -0.268 OA
BRANCH  12  14
ATOM     14  C   UNL     1       9.692   3.351  23.789  0.00  0.00    +0.208 C 
ATOM     15  N   UNL     1       8.632   3.750  24.425  0.00  0.00    -0.075 NA
BRANCH  14  16
ATOM     16  C   UNL     1      10.652   4.463  23.838  0.00  0.00    +0.197 A 
ATOM     17  N   UNL     1      11.954   4.154  23.393  0.00  0.00    -0.202 NA
ATOM     18  C   UNL     1      12.732   5.189  23.504  0.00  0.00    +0.176 A 
ATOM     19  N   UNL     1      13.902   5.261  22.836  0.00  0.00    -0.336 N 
ATOM     20  H   UNL     1      13.909   4.587  22.068  0.00  0.00    +0.144 HD
ATOM     21  H   UNL     1      14.174   6.174  22.492  0.00  0.00    +0.144 HD
ATOM     22  S   UNL     1      11.959   6.443  24.409  0.00  0.00    +0.049 S 
ATOM     23  N   UNL     1      10.442   5.671  24.384  0.00  0.00    -0.185 NA
ENDBRANCH  14  16
BRANCH  15  24
ATOM     24  O   UNL     1       7.460   3.041  24.491  0.00  0.00    -0.376 OA
BRANCH  24  25
ATOM     25  C   UNL     1       6.510   3.820  23.707  0.00  0.00    +0.228 C 
ATOM     26  C   UNL     1       6.560   5.235  24.258  0.00  0.00    +0.070 C 
ATOM     27  C   UNL     1       5.074   3.259  23.831  0.00  0.00    +0.070 C 
BRANCH  25  28
ATOM     28  C   UNL     1       6.904   3.864  22.213  0.00  0.00    +0.351 C 
ATOM     29  O   UNL     1       6.790   2.923  21.437  0.00  0.00    -0.246 OA
BRANCH  28  30
ATOM     30  O   UNL     1       7.377   5.069  21.806  0.00  0.00    -0.478 OA
ATOM     31  H   UNL     1       6.905   5.326  20.984  0.00  0.00    +0.295 HD
ENDBRANCH  28  30
ENDBRANCH  25  28
ENDBRANCH  24  25
ENDBRANCH  15  24
ENDBRANCH  12  14
ENDBRANCH   5  10
BRANCH   9  32
ATOM     32  C   UNL     1       7.158  -3.899  22.716  0.00  0.00    +0.086 C 
ATOM     33  OXT UNL     1       7.558  -5.074  22.887  0.00  0.00    -0.543 OA
ATOM     34  O   UNL     1       6.409  -3.422  21.812  0.00  0.00    -0.543 OA
ENDBRANCH   9  32
BRANCH   1  35
ATOM     35  C   UNL     1       5.282  -2.841  24.775  0.00  0.00    +0.420 C 
BRANCH  35  38
ATOM     36  C   UNL     1       6.692  -4.603  26.826  0.00  0.00    +0.223 C 
ATOM     37  N   UNL     1       5.570  -5.009  25.994  0.00  0.00    -0.138 N 
ATOM     38  N   UNL     1       5.083  -4.301  24.938  0.00  0.00    -0.106 N 
ATOM     39  C   UNL     1       4.375  -5.214  24.103  0.00  0.00    +0.363 A 
ATOM     40  C   UNL     1       4.298  -6.523  24.745  0.00  0.00    +0.145 A 
ATOM     41  C   UNL     1       4.993  -6.297  25.989  0.00  0.00    +0.179 A 
BRANCH  40  42
ATOM     42  N   UNL     1       3.670  -7.639  24.203  0.00  0.00    -0.262 N 
ATOM     43  H   UNL     1       4.225  -8.231  23.600  0.00  0.00    +0.157 HD
ATOM     44  C   UNL     1       2.326  -7.918  24.353  0.00  0.00    +0.304 C 
ATOM     45  N   UNL     1       1.848  -8.680  23.306  0.00  0.00    -0.298 N 
ATOM     46  H   UNL     1       2.504  -9.111  22.672  0.00  0.00    +0.150 HD
ATOM     47  O   UNL     1       1.576  -7.365  25.150  0.00  0.00    -0.253 OA
BRANCH  45  48
ATOM     48  C   UNL     1       0.517  -8.411  22.748  0.00  0.00    +0.120 C 
BRANCH  48  49
ATOM     49  C   UNL     1       0.590  -7.862  21.320  0.00  0.00    +0.096 C 
BRANCH  49  50
ATOM     50  N   UNL     1       1.485  -8.731  20.568  0.00  0.00    -0.329 NA
ATOM     51  H   UNL     1       2.031  -9.303  21.213  0.00  0.00    +0.118 HD
ATOM     52  H   UNL     1       0.965  -9.409  20.016  0.00  0.00    +0.118 HD
ENDBRANCH  49  50
ENDBRANCH  48  49
ENDBRANCH  45  48
ENDBRANCH  40  42
BRANCH  41  53
ATOM     53  N   UNL     1       5.072  -7.107  27.080  0.00  0.00    -0.339 N 
ATOM     54  H   UNL     1       4.776  -6.718  27.997  0.00  0.00    +0.144 HD
ATOM     55  H   UNL     1       5.820  -7.774  27.218  0.00  0.00    +0.144 HD
ENDBRANCH  41  53
ENDBRANCH  35  38
ENDBRANCH   1  35
TORSDOF 15
ENDMDL
MODEL 5
REMARK VINA RESULT:      -7.5      2.383      3.260
REMARK  Name = 
REMARK  18 active torsions:
REMARK  status: ('A' for Active; 'I' for Inactive)
REMARK    1  A    between atoms: C_1  and  N_2
REMARK    2  A    between atoms: C_3  and  N_4
REMARK    3  A    between atoms: C_5  and  N_6
REMARK    4  A    between atoms: N_9  and  C_10
REMARK    5  A    between atoms: C_10  and  C_11
REMARK    6  A    between atoms: C_11  and  N_12
REMARK    7  A    between atoms: N_14  and  C_15
REMARK    8  A    between atoms: C_15  and  C_16
REMARK    9  A    between atoms: CA_17  and  C_45
REMARK   10  A    between atoms: CA_23  and  N_25
REMARK   11  A    between atoms: C_26  and  C_28
REMARK   12  A    between atoms: C_28  and  C_37
REMARK   13  A    between atoms: N_29  and  O_30
REMARK   14  A    between atoms: O_30  and  C_31
REMARK   15  A    between atoms: C_31  and  C_32
REMARK   16  A    between atoms: C_31  and  C_33
REMARK   17  A    between atoms: C_31  and  C_34
REMARK   18  A    between atoms: C_34  and  O_35
REMARK                            x       y       z     vdW  Elec       q    Type
REMARK                         _______ _______ _______ _____ _____    ______ ____
ROOT
ATOM      1  C   UNL     1       7.294  -2.004  23.849  0.00  0.00    +0.030 C 
ATOM      2  C   UNL     1       5.801  -2.093  23.812  0.00  0.00    +0.110 C 
ATOM      3  S   UNL     1       4.987  -3.354  22.848  0.00  0.00    -0.131 S 
ATOM      4  C   UNL     1       6.358  -4.277  22.161  0.00  0.00    +0.168 C 
ATOM      5  CA  UNL     1       6.551  -5.729  22.694  0.00  0.00    +0.191 C 
ATOM      6  C   UNL     1       7.908  -5.209  23.204  0.00  0.00    +0.244 C 
ATOM      7  O   UNL     1       8.714  -5.664  23.986  0.00  0.00    -0.273 OA
ATOM      8  N   UNL     1       7.712  -3.990  22.605  0.00  0.00    -0.253 N 
ATOM      9  CA  UNL     1       8.137  -2.807  23.167  0.00  0.00    +0.066 C 
ENDROOT
BRANCH   5  10
ATOM     10  N   UNL     1       5.613  -6.328  23.717  0.00  0.00    -0.296 N 
ATOM     11  H   UNL     1       5.189  -7.227  23.498  0.00  0.00    +0.150 HD
ATOM     12  C   UNL     1       5.447  -5.913  25.034  0.00  0.00    +0.270 C 
ATOM     13  O   UNL     1       6.068  -5.003  25.566  0.00  0.00    -0.268 OA
BRANCH  12  14
ATOM     14  C   UNL     1       4.472  -6.733  25.862  0.00  0.00    +0.208 C 
ATOM     15  N   UNL     1       4.574  -7.025  27.124  0.00  0.00    -0.075 NA
BRANCH  14  16
ATOM     16  C   UNL     1       3.182  -7.272  25.410  0.00  0.00    +0.197 A 
ATOM     17  N   UNL     1       3.023  -7.365  24.012  0.00  0.00    -0.202 NA
ATOM     18  C   UNL     1       1.843  -7.822  23.716  0.00  0.00    +0.176 A 
ATOM     19  N   UNL     1       1.574  -8.326  22.493  0.00  0.00    -0.336 N 
ATOM     20  H   UNL     1       2.444  -8.557  22.011  0.00  0.00    +0.144 HD
ATOM     21  H   UNL     1       0.942  -9.116  22.456  0.00  0.00    +0.144 HD
ATOM     22  S   UNL     1       0.834  -7.868  25.118  0.00  0.00    +0.049 S 
ATOM     23  N   UNL     1       2.120  -7.545  26.185  0.00  0.00    -0.185 NA
ENDBRANCH  14  16
BRANCH  15  24
ATOM     24  O   UNL     1       5.697  -6.802  27.879  0.00  0.00    -0.376 OA
BRANCH  24  25
ATOM     25  C   UNL     1       5.204  -6.177  29.100  0.00  0.00    +0.228 C 
ATOM     26  C   UNL     1       5.149  -4.684  28.824  0.00  0.00    +0.070 C 
ATOM     27  C   UNL     1       6.140  -6.455  30.299  0.00  0.00    +0.070 C 
BRANCH  25  28
ATOM     28  C   UNL     1       3.779  -6.661  29.453  0.00  0.00    +0.351 C 
ATOM     29  O   UNL     1       3.531  -7.643  30.142  0.00  0.00    -0.246 OA
BRANCH  28  30
ATOM     30  O   UNL     1       2.793  -5.877  28.949  0.00  0.00    -0.478 OA
ATOM     31  H   UNL     1       2.929  -4.960  29.274  0.00  0.00    +0.295 HD
ENDBRANCH  28  30
ENDBRANCH  25  28
ENDBRANCH  24  25
ENDBRANCH  15  24
ENDBRANCH  12  14
ENDBRANCH   5  10
BRANCH   9  32
ATOM     32  C   UNL     1       9.675  -2.432  23.072  0.00  0.00    +0.086 C 
ATOM     33  OXT UNL     1      10.411  -2.925  23.958  0.00  0.00    -0.543 OA
ATOM     34  O   UNL     1       9.976  -1.699  22.083  0.00  0.00    -0.543 OA
ENDBRANCH   9  32
BRANCH   1  35
ATOM     35  C   UNL     1       7.781  -0.914  24.801  0.00  0.00    +0.420 C 
BRANCH  35  38
ATOM     36  C   UNL     1      10.071   1.061  24.398  0.00  0.00    +0.223 C 
ATOM     37  N   UNL     1       8.747   1.172  23.806  0.00  0.00    -0.138 N 
ATOM     38  N   UNL     1       7.669   0.414  24.152  0.00  0.00    -0.106 N 
ATOM     39  C   UNL     1       6.501   1.130  23.757  0.00  0.00    +0.363 A 
ATOM     40  C   UNL     1       6.875   2.322  23.001  0.00  0.00    +0.145 A 
ATOM     41  C   UNL     1       8.316   2.235  22.984  0.00  0.00    +0.179 A 
BRANCH  40  42
ATOM     42  N   UNL     1       5.978   3.237  22.463  0.00  0.00    -0.262 N 
ATOM     43  H   UNL     1       5.701   3.097  21.500  0.00  0.00    +0.157 HD
ATOM     44  C   UNL     1       5.538   4.368  23.122  0.00  0.00    +0.304 C 
ATOM     45  N   UNL     1       5.166   5.358  22.236  0.00  0.00    -0.298 N 
ATOM     46  H   UNL     1       5.059   5.128  21.259  0.00  0.00    +0.150 HD
ATOM     47  O   UNL     1       5.690   4.589  24.318  0.00  0.00    -0.253 OA
BRANCH  45  48
ATOM     48  C   UNL     1       5.492   6.761  22.520  0.00  0.00    +0.120 C 
BRANCH  48  49
ATOM     49  C   UNL     1       6.964   7.079  22.245  0.00  0.00    +0.096 C 
BRANCH  49  50
ATOM     50  N   UNL     1       7.510   5.969  21.476  0.00  0.00    -0.329 NA
ATOM     51  H   UNL     1       7.880   5.260  22.110  0.00  0.00    +0.118 HD
ATOM     52  H   UNL     1       6.781   5.482  20.960  0.00  0.00    +0.118 HD
ENDBRANCH  49  50
ENDBRANCH  48  49
ENDBRANCH  45  48
ENDBRANCH  40  42
BRANCH  41  53
ATOM     53  N   UNL     1       9.204   2.969  22.261  0.00  0.00    -0.339 N 
ATOM     54  H   UNL     1       9.580   2.553  21.386  0.00  0.00    +0.144 HD
ATOM     55  H   UNL     1       9.907   3.560  22.686  0.00  0.00    +0.144 HD
ENDBRANCH  41  53
ENDBRANCH  35  38
ENDBRANCH   1  35
TORSDOF 15
ENDMDL
MODEL 6
REMARK VINA RESULT:      -7.4      2.905      5.266
REMARK  Name = 
REMARK  18 active torsions:
REMARK  status: ('A' for Active; 'I' for Inactive)
REMARK    1  A    between atoms: C_1  and  N_2
REMARK    2  A    between atoms: C_3  and  N_4
REMARK    3  A    between atoms: C_5  and  N_6
REMARK    4  A    between atoms: N_9  and  C_10
REMARK    5  A    between atoms: C_10  and  C_11
REMARK    6  A    between atoms: C_11  and  N_12
REMARK    7  A    between atoms: N_14  and  C_15
REMARK    8  A    between atoms: C_15  and  C_16
REMARK    9  A    between atoms: CA_17  and  C_45
REMARK   10  A    between atoms: CA_23  and  N_25
REMARK   11  A    between atoms: C_26  and  C_28
REMARK   12  A    between atoms: C_28  and  C_37
REMARK   13  A    between atoms: N_29  and  O_30
REMARK   14  A    between atoms: O_30  and  C_31
REMARK   15  A    between atoms: C_31  and  C_32
REMARK   16  A    between atoms: C_31  and  C_33
REMARK   17  A    between atoms: C_31  and  C_34
REMARK   18  A    between atoms: C_34  and  O_35
REMARK                            x       y       z     vdW  Elec       q    Type
REMARK                         _______ _______ _______ _____ _____    ______ ____
ROOT
ATOM      1  C   UNL     1       7.577  -0.582  23.654  0.00  0.00    +0.030 C 
ATOM      2  C   UNL     1       6.389  -1.134  22.933  0.00  0.00    +0.110 C 
ATOM      3  S   UNL     1       6.429  -2.773  22.231  0.00  0.00    -0.131 S 
ATOM      4  C   UNL     1       8.058  -3.361  22.686  0.00  0.00    +0.168 C 
ATOM      5  CA  UNL     1       8.109  -4.515  23.732  0.00  0.00    +0.191 C 
ATOM      6  C   UNL     1       8.865  -3.498  24.606  0.00  0.00    +0.244 C 
ATOM      7  O   UNL     1       9.148  -3.485  25.785  0.00  0.00    -0.273 OA
ATOM      8  N   UNL     1       8.879  -2.574  23.590  0.00  0.00    -0.253 N 
ATOM      9  CA  UNL     1       8.756  -1.221  23.813  0.00  0.00    +0.066 C 
ENDROOT
BRANCH   5  10
ATOM     10  N   UNL     1       6.849  -5.119  24.309  0.00  0.00    -0.296 N 
ATOM     11  H   UNL     1       6.487  -4.720  25.172  0.00  0.00    +0.150 HD
ATOM     12  C   UNL     1       5.984  -6.000  23.668  0.00  0.00    +0.270 C 
ATOM     13  O   UNL     1       6.111  -6.397  22.518  0.00  0.00    -0.268 OA
BRANCH  12  14
ATOM     14  C   UNL     1       4.757  -6.409  24.465  0.00  0.00    +0.208 C 
ATOM     15  N   UNL     1       4.658  -6.493  25.758  0.00  0.00    -0.075 NA
BRANCH  14  16
ATOM     16  C   UNL     1       3.420  -6.695  23.924  0.00  0.00    +0.197 A 
ATOM     17  N   UNL     1       2.909  -7.974  24.227  0.00  0.00    -0.202 NA
ATOM     18  C   UNL     1       1.742  -8.140  23.681  0.00  0.00    +0.176 A 
ATOM     19  N   UNL     1       0.906  -9.114  24.097  0.00  0.00    -0.336 N 
ATOM     20  H   UNL     1       1.186  -9.444  25.023  0.00  0.00    +0.144 HD
ATOM     21  H   UNL     1      -0.083  -8.896  24.097  0.00  0.00    +0.144 HD
ATOM     22  S   UNL     1       1.396  -6.860  22.573  0.00  0.00    +0.049 S 
ATOM     23  N   UNL     1       2.723  -5.922  23.076  0.00  0.00    -0.185 NA
ENDBRANCH  14  16
BRANCH  15  24
ATOM     24  O   UNL     1       5.723  -6.415  26.619  0.00  0.00    -0.376 OA
BRANCH  24  25
ATOM     25  C   UNL     1       5.148  -5.958  27.878  0.00  0.00    +0.228 C 
ATOM     26  C   UNL     1       6.115  -6.388  28.969  0.00  0.00    +0.070 C 
ATOM     27  C   UNL     1       3.758  -6.585  28.131  0.00  0.00    +0.070 C 
BRANCH  25  28
ATOM     28  C   UNL     1       5.019  -4.418  27.920  0.00  0.00    +0.351 C 
ATOM     29  O   UNL     1       4.567  -3.786  28.867  0.00  0.00    -0.246 OA
BRANCH  28  30
ATOM     30  O   UNL     1       5.483  -3.798  26.806  0.00  0.00    -0.478 OA
ATOM     31  H   UNL     1       6.450  -3.957  26.743  0.00  0.00    +0.295 HD
ENDBRANCH  28  30
ENDBRANCH  25  28
ENDBRANCH  24  25
ENDBRANCH  15  24
ENDBRANCH  12  14
ENDBRANCH   5  10
BRANCH   9  32
ATOM     32  C   UNL     1      10.017  -0.422  24.346  0.00  0.00    +0.086 C 
ATOM     33  OXT UNL     1      10.813  -0.013  23.468  0.00  0.00    -0.543 OA
ATOM     34  O   UNL     1      10.047  -0.266  25.603  0.00  0.00    -0.543 OA
ENDBRANCH   9  32
BRANCH   1  35
ATOM     35  C   UNL     1       7.299   0.797  24.250  0.00  0.00    +0.420 C 
BRANCH  35  38
ATOM     36  C   UNL     1       7.149   2.812  26.534  0.00  0.00    +0.223 C 
ATOM     37  N   UNL     1       6.258   1.677  26.351  0.00  0.00    -0.138 N 
ATOM     38  N   UNL     1       6.454   0.665  25.460  0.00  0.00    -0.106 N 
ATOM     39  C   UNL     1       5.699  -0.455  25.917  0.00  0.00    +0.363 A 
ATOM     40  C   UNL     1       4.883  -0.075  27.067  0.00  0.00    +0.145 A 
ATOM     41  C   UNL     1       5.212   1.322  27.229  0.00  0.00    +0.179 A 
BRANCH  40  42
ATOM     42  N   UNL     1       4.025  -0.928  27.750  0.00  0.00    -0.262 N 
ATOM     43  H   UNL     1       4.442  -1.558  28.422  0.00  0.00    +0.157 HD
ATOM     44  C   UNL     1       2.673  -1.037  27.488  0.00  0.00    +0.304 C 
ATOM     45  N   UNL     1       2.188  -2.280  27.839  0.00  0.00    -0.298 N 
ATOM     46  H   UNL     1       2.762  -2.891  28.401  0.00  0.00    +0.150 HD
ATOM     47  O   UNL     1       2.024  -0.256  26.802  0.00  0.00    -0.253 OA
BRANCH  45  48
ATOM     48  C   UNL     1       1.202  -2.954  26.985  0.00  0.00    +0.120 C 
BRANCH  48  49
ATOM     49  C   UNL     1       1.812  -4.124  26.209  0.00  0.00    +0.096 C 
BRANCH  49  50
ATOM     50  N   UNL     1       2.792  -3.566  25.287  0.00  0.00    -0.329 NA
ATOM     51  H   UNL     1       3.715  -3.569  25.723  0.00  0.00    +0.118 HD
ATOM     52  H   UNL     1       2.906  -4.156  24.466  0.00  0.00    +0.118 HD
ENDBRANCH  49  50
ENDBRANCH  48  49
ENDBRANCH  45  48
ENDBRANCH  40  42
BRANCH  41  53
ATOM     53  N   UNL     1       4.614   2.250  28.022  0.00  0.00    -0.339 N 
ATOM     54  H   UNL     1       4.568   3.229  27.676  0.00  0.00    +0.144 HD
ATOM     55  H   UNL     1       4.696   2.250  29.031  0.00  0.00    +0.144 HD
ENDBRANCH  41  53
ENDBRANCH  35  38
ENDBRANCH   1  35
TORSDOF 15
ENDMDL
MODEL 7
REMARK VINA RESULT:      -7.4      3.364      9.109
REMARK  Name = 
REMARK  18 active torsions:
REMARK  status: ('A' for Active; 'I' for Inactive)
REMARK    1  A    between atoms: C_1  and  N_2
REMARK    2  A    between atoms: C_3  and  N_4
REMARK    3  A    between atoms: C_5  and  N_6
REMARK    4  A    between atoms: N_9  and  C_10
REMARK    5  A    between atoms: C_10  and  C_11
REMARK    6  A    between atoms: C_11  and  N_12
REMARK    7  A    between atoms: N_14  and  C_15
REMARK    8  A    between atoms: C_15  and  C_16
REMARK    9  A    between atoms: CA_17  and  C_45
REMARK   10  A    between atoms: CA_23  and  N_25
REMARK   11  A    between atoms: C_26  and  C_28
REMARK   12  A    between atoms: C_28  and  C_37
REMARK   13  A    between atoms: N_29  and  O_30
REMARK   14  A    between atoms: O_30  and  C_31
REMARK   15  A    between atoms: C_31  and  C_32
REMARK   16  A    between atoms: C_31  and  C_33
REMARK   17  A    between atoms: C_31  and  C_34
REMARK   18  A    between atoms: C_34  and  O_35
REMARK                            x       y       z     vdW  Elec       q    Type
REMARK                         _______ _______ _______ _____ _____    ______ ____
ROOT
ATOM      1  C   UNL     1       8.001  -4.362  24.594  0.00  0.00    +0.030 C 
ATOM      2  C   UNL     1       9.081  -3.462  25.105  0.00  0.00    +0.110 C 
ATOM      3  S   UNL     1       9.827  -2.240  24.041  0.00  0.00    -0.131 S 
ATOM      4  C   UNL     1       8.928  -2.446  22.507  0.00  0.00    +0.168 C 
ATOM      5  CA  UNL     1       7.982  -1.276  22.097  0.00  0.00    +0.191 C 
ATOM      6  C   UNL     1       6.863  -2.326  22.222  0.00  0.00    +0.244 C 
ATOM      7  O   UNL     1       5.656  -2.230  22.272  0.00  0.00    -0.273 OA
ATOM      8  N   UNL     1       7.773  -3.326  22.463  0.00  0.00    -0.253 N 
ATOM      9  CA  UNL     1       7.524  -4.365  23.332  0.00  0.00    +0.066 C 
ENDROOT
BRANCH   5  10
ATOM     10  N   UNL     1       7.855  -0.027  22.940  0.00  0.00    -0.296 N 
ATOM     11  H   UNL     1       7.445  -0.124  23.866  0.00  0.00    +0.150 HD
ATOM     12  C   UNL     1       8.457   1.202  22.696  0.00  0.00    +0.270 C 
ATOM     13  O   UNL     1       9.209   1.443  21.762  0.00  0.00    -0.268 OA
BRANCH  12  14
ATOM     14  C   UNL     1       8.202   2.275  23.741  0.00  0.00    +0.208 C 
ATOM     15  N   UNL     1       8.005   2.095  25.012  0.00  0.00    -0.075 NA
BRANCH  14  16
ATOM     16  C   UNL     1       8.224   3.729  23.523  0.00  0.00    +0.197 A 
ATOM     17  N   UNL     1       7.444   4.188  22.442  0.00  0.00    -0.202 NA
ATOM     18  C   UNL     1       7.553   5.476  22.315  0.00  0.00    +0.176 A 
ATOM     19  N   UNL     1       6.657   6.188  21.600  0.00  0.00    -0.336 N 
ATOM     20  H   UNL     1       5.802   5.644  21.469  0.00  0.00    +0.144 HD
ATOM     21  H   UNL     1       6.425   7.110  21.949  0.00  0.00    +0.144 HD
ATOM     22  S   UNL     1       8.818   6.087  23.323  0.00  0.00    +0.049 S 
ATOM     23  N   UNL     1       9.007   4.616  24.157  0.00  0.00    -0.185 NA
ENDBRANCH  14  16
BRANCH  15  24
ATOM     24  O   UNL     1       7.796   0.871  25.595  0.00  0.00    -0.376 OA
BRANCH  24  25
ATOM     25  C   UNL     1       6.629   1.059  26.446  0.00  0.00    +0.228 C 
ATOM     26  C   UNL     1       6.527   2.553  26.707  0.00  0.00    +0.070 C 
ATOM     27  C   UNL     1       6.773   0.301  27.786  0.00  0.00    +0.070 C 
BRANCH  25  28
ATOM     28  C   UNL     1       5.331   0.596  25.745  0.00  0.00    +0.351 C 
ATOM     29  O   UNL     1       4.211   0.682  26.234  0.00  0.00    -0.246 OA
BRANCH  28  30
ATOM     30  O   UNL     1       5.528   0.098  24.499  0.00  0.00    -0.478 OA
ATOM     31  H   UNL     1       5.101  -0.785  24.447  0.00  0.00    +0.295 HD
ENDBRANCH  28  30
ENDBRANCH  25  28
ENDBRANCH  24  25
ENDBRANCH  15  24
ENDBRANCH  12  14
ENDBRANCH   5  10
BRANCH   9  32
ATOM     32  C   UNL     1       6.586  -5.548  22.849  0.00  0.00    +0.086 C 
ATOM     33  OXT UNL     1       5.362  -5.398  23.070  0.00  0.00    -0.543 OA
ATOM     34  O   UNL     1       7.193  -6.495  22.264  0.00  0.00    -0.543 OA
ENDBRANCH   9  32
BRANCH   1  35
ATOM     35  C   UNL     1       7.443  -5.269  25.689  0.00  0.00    +0.420 C 
BRANCH  35  38
ATOM     36  C   UNL     1       4.864  -6.830  26.153  0.00  0.00    +0.223 C 
ATOM     37  N   UNL     1       5.122  -5.472  26.607  0.00  0.00    -0.138 N 
ATOM     38  N   UNL     1       6.179  -4.706  26.220  0.00  0.00    -0.106 N 
ATOM     39  C   UNL     1       5.823  -3.344  26.447  0.00  0.00    +0.363 A 
ATOM     40  C   UNL     1       4.540  -3.270  27.140  0.00  0.00    +0.145 A 
ATOM     41  C   UNL     1       4.196  -4.663  27.299  0.00  0.00    +0.179 A 
BRANCH  40  42
ATOM     42  N   UNL     1       3.906  -2.092  27.519  0.00  0.00    -0.262 N 
ATOM     43  H   UNL     1       3.733  -1.410  26.792  0.00  0.00    +0.157 HD
ATOM     44  C   UNL     1       3.606  -1.761  28.825  0.00  0.00    +0.304 C 
ATOM     45  N   UNL     1       3.543  -0.393  28.999  0.00  0.00    -0.298 N 
ATOM     46  H   UNL     1       3.520   0.205  28.187  0.00  0.00    +0.150 HD
ATOM     47  O   UNL     1       3.643  -2.536  29.774  0.00  0.00    -0.253 OA
BRANCH  45  48
ATOM     48  C   UNL     1       4.088   0.220  30.217  0.00  0.00    +0.120 C 
BRANCH  48  49
ATOM     49  C   UNL     1       4.065   1.749  30.154  0.00  0.00    +0.096 C 
BRANCH  49  50
ATOM     50  N   UNL     1       3.633   2.120  28.813  0.00  0.00    -0.329 NA
ATOM     51  H   UNL     1       4.428   2.084  28.174  0.00  0.00    +0.118 HD
ATOM     52  H   UNL     1       2.980   1.440  28.432  0.00  0.00    +0.118 HD
ENDBRANCH  49  50
ENDBRANCH  48  49
ENDBRANCH  45  48
ENDBRANCH  40  42
BRANCH  41  53
ATOM     53  N   UNL     1       3.200  -5.214  28.044  0.00  0.00    -0.339 N 
ATOM     54  H   UNL     1       2.819  -6.133  27.743  0.00  0.00    +0.144 HD
ATOM     55  H   UNL     1       2.466  -4.667  28.476  0.00  0.00    +0.144 HD
ENDBRANCH  41  53
ENDBRANCH  35  38
ENDBRANCH   1  35
TORSDOF 15
ENDMDL
MODEL 8
REMARK VINA RESULT:      -7.3      1.629      2.163
REMARK  Name = 
REMARK  18 active torsions:
REMARK  status: ('A' for Active; 'I' for Inactive)
REMARK    1  A    between atoms: C_1  and  N_2
REMARK    2  A    between atoms: C_3  and  N_4
REMARK    3  A    between atoms: C_5  and  N_6
REMARK    4  A    between atoms: N_9  and  C_10
REMARK    5  A    between atoms: C_10  and  C_11
REMARK    6  A    between atoms: C_11  and  N_12
REMARK    7  A    between atoms: N_14  and  C_15
REMARK    8  A    between atoms: C_15  and  C_16
REMARK    9  A    between atoms: CA_17  and  C_45
REMARK   10  A    between atoms: CA_23  and  N_25
REMARK   11  A    between atoms: C_26  and  C_28
REMARK   12  A    between atoms: C_28  and  C_37
REMARK   13  A    between atoms: N_29  and  O_30
REMARK   14  A    between atoms: O_30  and  C_31
REMARK   15  A    between atoms: C_31  and  C_32
REMARK   16  A    between atoms: C_31  and  C_33
REMARK   17  A    between atoms: C_31  and  C_34
REMARK   18  A    between atoms: C_34  and  O_35
REMARK                            x       y       z     vdW  Elec       q    Type
REMARK                         _______ _______ _______ _____ _____    ______ ____
ROOT
ATOM      1  C   UNL     1       7.490  -1.973  24.078  0.00  0.00    +0.030 C 
ATOM      2  C   UNL     1       5.995  -1.959  24.018  0.00  0.00    +0.110 C 
ATOM      3  S   UNL     1       5.121  -2.988  22.853  0.00  0.00    -0.131 S 
ATOM      4  C   UNL     1       6.444  -3.869  22.030  0.00  0.00    +0.168 C 
ATOM      5  CA  UNL     1       6.538  -5.399  22.315  0.00  0.00    +0.191 C 
ATOM      6  C   UNL     1       7.915  -5.059  22.912  0.00  0.00    +0.244 C 
ATOM      7  O   UNL     1       8.680  -5.687  23.611  0.00  0.00    -0.273 OA
ATOM      8  N   UNL     1       7.805  -3.746  22.522  0.00  0.00    -0.253 N 
ATOM      9  CA  UNL     1       8.293  -2.703  23.276  0.00  0.00    +0.066 C 
ENDROOT
BRANCH   5  10
ATOM     10  N   UNL     1       5.548  -6.100  23.218  0.00  0.00    -0.296 N 
ATOM     11  H   UNL     1       5.023  -6.878  22.827  0.00  0.00    +0.150 HD
ATOM     12  C   UNL     1       5.444  -5.962  24.598  0.00  0.00    +0.270 C 
ATOM     13  O   UNL     1       6.170  -5.262  25.290  0.00  0.00    -0.268 OA
BRANCH  12  14
ATOM     14  C   UNL     1       4.392  -6.831  25.266  0.00  0.00    +0.208 C 
ATOM     15  N   UNL     1       4.335  -7.163  26.520  0.00  0.00    -0.075 NA
BRANCH  14  16
ATOM     16  C   UNL     1       3.185  -7.382  24.632  0.00  0.00    +0.197 A 
ATOM     17  N   UNL     1       2.453  -6.474  23.838  0.00  0.00    -0.202 NA
ATOM     18  C   UNL     1       1.394  -7.047  23.350  0.00  0.00    +0.176 A 
ATOM     19  N   UNL     1       0.731  -6.516  22.301  0.00  0.00    -0.336 N 
ATOM     20  H   UNL     1       1.328  -5.845  21.813  0.00  0.00    +0.144 HD
ATOM     21  H   UNL     1       0.335  -7.168  21.636  0.00  0.00    +0.144 HD
ATOM     22  S   UNL     1       1.139  -8.592  24.082  0.00  0.00    +0.049 S 
ATOM     23  N   UNL     1       2.659  -8.597  24.848  0.00  0.00    -0.185 NA
ENDBRANCH  14  16
BRANCH  15  24
ATOM     24  O   UNL     1       5.344  -6.941  27.423  0.00  0.00    -0.376 OA
BRANCH  24  25
ATOM     25  C   UNL     1       4.684  -6.348  28.579  0.00  0.00    +0.228 C 
ATOM     26  C   UNL     1       5.725  -6.295  29.685  0.00  0.00    +0.070 C 
ATOM     27  C   UNL     1       3.472  -7.192  29.038  0.00  0.00    +0.070 C 
BRANCH  25  28
ATOM     28  C   UNL     1       4.208  -4.906  28.287  0.00  0.00    +0.351 C 
ATOM     29  O   UNL     1       3.109  -4.463  28.594  0.00  0.00    -0.246 OA
BRANCH  28  30
ATOM     30  O   UNL     1       5.140  -4.136  27.669  0.00  0.00    -0.478 OA
ATOM     31  H   UNL     1       5.216  -3.289  28.159  0.00  0.00    +0.295 HD
ENDBRANCH  28  30
ENDBRANCH  25  28
ENDBRANCH  24  25
ENDBRANCH  15  24
ENDBRANCH  12  14
ENDBRANCH   5  10
BRANCH   9  32
ATOM     32  C   UNL     1       9.852  -2.415  23.254  0.00  0.00    +0.086 C 
ATOM     33  OXT UNL     1      10.229  -1.522  22.460  0.00  0.00    -0.543 OA
ATOM     34  O   UNL     1      10.526  -3.108  24.073  0.00  0.00    -0.543 OA
ENDBRANCH   9  32
BRANCH   1  35
ATOM     35  C   UNL     1       8.028  -1.088  25.201  0.00  0.00    +0.420 C 
BRANCH  35  38
ATOM     36  C   UNL     1       5.699   0.775  25.838  0.00  0.00    +0.223 C 
ATOM     37  N   UNL     1       6.982   1.186  25.292  0.00  0.00    -0.138 N 
ATOM     38  N   UNL     1       7.936   0.339  24.812  0.00  0.00    -0.106 N 
ATOM     39  C   UNL     1       8.770   1.091  23.933  0.00  0.00    +0.363 A 
ATOM     40  C   UNL     1       8.403   2.504  23.982  0.00  0.00    +0.145 A 
ATOM     41  C   UNL     1       7.324   2.509  24.940  0.00  0.00    +0.179 A 
BRANCH  40  42
ATOM     42  N   UNL     1       9.023   3.512  23.251  0.00  0.00    -0.262 N 
ATOM     43  H   UNL     1       9.160   3.345  22.263  0.00  0.00    +0.157 HD
ATOM     44  C   UNL     1       9.549   4.660  23.810  0.00  0.00    +0.304 C 
ATOM     45  N   UNL     1      10.569   5.177  23.037  0.00  0.00    -0.298 N 
ATOM     46  H   UNL     1      10.703   4.825  22.101  0.00  0.00    +0.150 HD
ATOM     47  O   UNL     1       9.342   5.044  24.956  0.00  0.00    -0.253 OA
BRANCH  45  48
ATOM     48  C   UNL     1      11.766   5.737  23.677  0.00  0.00    +0.120 C 
BRANCH  48  49
ATOM     49  C   UNL     1      13.029   4.942  23.336  0.00  0.00    +0.096 C 
BRANCH  49  50
ATOM     50  N   UNL     1      13.799   5.739  22.390  0.00  0.00    -0.329 NA
ATOM     51  H   UNL     1      13.277   5.838  21.519  0.00  0.00    +0.118 HD
ATOM     52  H   UNL     1      13.914   6.694  22.719  0.00  0.00    +0.118 HD
ENDBRANCH  49  50
ENDBRANCH  48  49
ENDBRANCH  45  48
ENDBRANCH  40  42
BRANCH  41  53
ATOM     53  N   UNL     1       6.716   3.572  25.531  0.00  0.00    -0.339 N 
ATOM     54  H   UNL     1       5.824   3.913  25.120  0.00  0.00    +0.144 HD
ATOM     55  H   UNL     1       7.227   4.350  25.928  0.00  0.00    +0.144 HD
ENDBRANCH  41  53
ENDBRANCH  35  38
ENDBRANCH   1  35
TORSDOF 15
ENDMDL
MODEL 9
REMARK VINA RESULT:      -7.3      3.226      5.899
REMARK  Name = 
REMARK  18 active torsions:
REMARK  status: ('A' for Active; 'I' for Inactive)
REMARK    1  A    between atoms: C_1  and  N_2
REMARK    2  A    between atoms: C_3  and  N_4
REMARK    3  A    between atoms: C_5  and  N_6
REMARK    4  A    between atoms: N_9  and  C_10
REMARK    5  A    between atoms: C_10  and  C_11
REMARK    6  A    between atoms: C_11  and  N_12
REMARK    7  A    between atoms: N_14  and  C_15
REMARK    8  A    between atoms: C_15  and  C_16
REMARK    9  A    between atoms: CA_17  and  C_45
REMARK   10  A    between atoms: CA_23  and  N_25
REMARK   11  A    between atoms: C_26  and  C_28
REMARK   12  A    between atoms: C_28  and  C_37
REMARK   13  A    between atoms: N_29  and  O_30
REMARK   14  A    between atoms: O_30  and  C_31
REMARK   15  A    between atoms: C_31  and  C_32
REMARK   16  A    between atoms: C_31  and  C_33
REMARK   17  A    between atoms: C_31  and  C_34
REMARK   18  A    between atoms: C_34  and  O_35
REMARK                            x       y       z     vdW  Elec       q    Type
REMARK                         _______ _______ _______ _____ _____    ______ ____
ROOT
ATOM      1  C   UNL     1       7.872   0.519  22.767  0.00  0.00    +0.030 C 
ATOM      2  C   UNL     1       7.367  -0.735  22.128  0.00  0.00    +0.110 C 
ATOM      3  S   UNL     1       8.196  -2.292  22.398  0.00  0.00    -0.131 S 
ATOM      4  C   UNL     1       9.520  -1.849  23.518  0.00  0.00    +0.168 C 
ATOM      5  CA  UNL     1       9.410  -2.401  24.972  0.00  0.00    +0.191 C 
ATOM      6  C   UNL     1       9.347  -0.917  25.379  0.00  0.00    +0.244 C 
ATOM      7  O   UNL     1       9.035  -0.367  26.413  0.00  0.00    -0.273 OA
ATOM      8  N   UNL     1       9.564  -0.511  24.085  0.00  0.00    -0.253 N 
ATOM      9  CA  UNL     1       8.970   0.608  23.547  0.00  0.00    +0.066 C 
ENDROOT
BRANCH   5  10
ATOM     10  N   UNL     1       8.259  -3.283  25.400  0.00  0.00    -0.296 N 
ATOM     11  H   UNL     1       7.425  -3.285  24.817  0.00  0.00    +0.150 HD
ATOM     12  C   UNL     1       8.296  -4.283  26.366  0.00  0.00    +0.270 C 
ATOM     13  O   UNL     1       9.290  -4.612  26.998  0.00  0.00    -0.268 OA
BRANCH  12  14
ATOM     14  C   UNL     1       7.002  -5.057  26.557  0.00  0.00    +0.208 C 
ATOM     15  N   UNL     1       6.329  -5.691  25.644  0.00  0.00    -0.075 NA
BRANCH  14  16
ATOM     16  C   UNL     1       6.318  -5.311  27.833  0.00  0.00    +0.197 A 
ATOM     17  N   UNL     1       5.331  -4.368  28.186  0.00  0.00    -0.202 NA
ATOM     18  C   UNL     1       4.809  -4.663  29.339  0.00  0.00    +0.176 A 
ATOM     19  N   UNL     1       3.630  -4.135  29.729  0.00  0.00    -0.336 N 
ATOM     20  H   UNL     1       3.126  -3.768  28.920  0.00  0.00    +0.144 HD
ATOM     21  H   UNL     1       3.019  -4.737  30.268  0.00  0.00    +0.144 HD
ATOM     22  S   UNL     1       5.710  -5.916  30.117  0.00  0.00    +0.049 S 
ATOM     23  N   UNL     1       6.636  -6.257  28.731  0.00  0.00    -0.185 NA
ENDBRANCH  14  16
BRANCH  15  24
ATOM     24  O   UNL     1       6.579  -5.598  24.299  0.00  0.00    -0.376 OA
BRANCH  24  25
ATOM     25  C   UNL     1       5.261  -5.592  23.677  0.00  0.00    +0.228 C 
ATOM     26  C   UNL     1       4.522  -6.799  24.229  0.00  0.00    +0.070 C 
ATOM     27  C   UNL     1       5.358  -5.694  22.137  0.00  0.00    +0.070 C 
BRANCH  25  28
ATOM     28  C   UNL     1       4.462  -4.320  24.046  0.00  0.00    +0.351 C 
ATOM     29  O   UNL     1       3.245  -4.280  24.178  0.00  0.00    -0.246 OA
BRANCH  28  30
ATOM     30  O   UNL     1       5.237  -3.224  24.243  0.00  0.00    -0.478 OA
ATOM     31  H   UNL     1       5.975  -3.245  23.596  0.00  0.00    +0.295 HD
ENDBRANCH  28  30
ENDBRANCH  25  28
ENDBRANCH  24  25
ENDBRANCH  15  24
ENDBRANCH  12  14
ENDBRANCH   5  10
BRANCH   9  32
ATOM     32  C   UNL     1       9.552   2.032  23.926  0.00  0.00    +0.086 C 
ATOM     33  OXT UNL     1      10.438   2.480  23.161  0.00  0.00    -0.543 OA
ATOM     34  O   UNL     1       9.021   2.562  24.947  0.00  0.00    -0.543 OA
ENDBRANCH   9  32
BRANCH   1  35
ATOM     35  C   UNL     1       6.967   1.716  22.477  0.00  0.00    +0.420 C 
BRANCH  35  38
ATOM     36  C   UNL     1       5.504   4.331  23.048  0.00  0.00    +0.223 C 
ATOM     37  N   UNL     1       5.280   3.070  23.739  0.00  0.00    -0.138 N 
ATOM     38  N   UNL     1       6.074   1.968  23.632  0.00  0.00    -0.106 N 
ATOM     39  C   UNL     1       5.847   1.167  24.790  0.00  0.00    +0.363 A 
ATOM     40  C   UNL     1       4.756   1.728  25.582  0.00  0.00    +0.145 A 
ATOM     41  C   UNL     1       4.375   2.883  24.804  0.00  0.00    +0.179 A 
BRANCH  40  42
ATOM     42  N   UNL     1       4.275   1.188  26.769  0.00  0.00    -0.262 N 
ATOM     43  H   UNL     1       4.961   0.930  27.467  0.00  0.00    +0.157 HD
ATOM     44  C   UNL     1       2.947   0.890  27.001  0.00  0.00    +0.304 C 
ATOM     45  N   UNL     1       2.811  -0.119  27.933  0.00  0.00    -0.298 N 
ATOM     46  H   UNL     1       3.613  -0.396  28.479  0.00  0.00    +0.150 HD
ATOM     47  O   UNL     1       2.010   1.263  26.305  0.00  0.00    -0.253 OA
BRANCH  45  48
ATOM     48  C   UNL     1       1.784  -1.153  27.754  0.00  0.00    +0.120 C 
BRANCH  48  49
ATOM     49  C   UNL     1       2.244  -2.264  26.806  0.00  0.00    +0.096 C 
BRANCH  49  50
ATOM     50  N   UNL     1       3.700  -2.280  26.832  0.00  0.00    -0.329 NA
ATOM     51  H   UNL     1       4.034  -3.244  26.829  0.00  0.00    +0.118 HD
ATOM     52  H   UNL     1       4.090  -1.881  25.982  0.00  0.00    +0.118 HD
ENDBRANCH  49  50
ENDBRANCH  48  49
ENDBRANCH  45  48
ENDBRANCH  40  42
BRANCH  41  53
ATOM     53  N   UNL     1       3.286   3.686  24.951  0.00  0.00    -0.339 N 
ATOM     54  H   UNL     1       2.365   3.319  24.637  0.00  0.00    +0.144 HD
ATOM     55  H   UNL     1       3.317   4.688  24.816  0.00  0.00    +0.144 HD
ENDBRANCH  41  53
ENDBRANCH  35  38
ENDBRANCH   1  35
TORSDOF 15
ENDMDL
