MODEL 1
REMARK VINA RESULT:      -8.8      0.000      0.000
REMARK  Name = 
REMARK  6 active torsions:
REMARK  status: ('A' for Active; 'I' for Inactive)
REMARK    1  A    between atoms: C_1  and  N_2
REMARK    2  A    between atoms: C_3  and  C_5
REMARK    3  A    between atoms: C_9  and  O_10
REMARK    4  A    between atoms: O_10  and  C_11
REMARK    5  A    between atoms: N_19  and  C_20
REMARK    6  A    between atoms: C_22  and  C_27
REMARK                            x       y       z     vdW  Elec       q    Type
REMARK                         _______ _______ _______ _____ _____    ______ ____
ROOT
ATOM      1  C   UNL     1       7.035  -3.971  23.338  0.00  0.00    +0.131 A 
ATOM      2  C   UNL     1       6.099  -2.984  23.003  0.00  0.00    +0.048 A 
ATOM      3  C   UNL     1       6.462  -1.637  22.966  0.00  0.00    +0.033 A 
ATOM      4  C   UNL     1       7.757  -1.288  23.354  0.00  0.00    +0.091 A 
ATOM      5  N   UNL     1       8.321  -0.051  23.422  0.00  0.00    -0.214 NA
ATOM      6  C   UNL     1       9.528  -0.219  23.909  0.00  0.00    +0.198 A 
ATOM      7  N   UNL     1       9.780  -1.557  24.105  0.00  0.00    -0.326 N 
ATOM      8  H   UNL     1      10.636  -1.945  24.467  0.00  0.00    +0.169 HD
ATOM      9  N   UNL     1      10.462   0.723  24.186  0.00  0.00    -0.285 N 
ATOM     10  H   UNL     1      11.414   0.470  24.410  0.00  0.00    +0.155 HD
ATOM     11  C   UNL     1       8.653  -2.267  23.759  0.00  0.00    +0.071 A 
ATOM     12  C   UNL     1       8.333  -3.628  23.760  0.00  0.00    +0.074 A 
ENDROOT
BRANCH   9  13
ATOM     13  C   UNL     1      10.254   2.108  23.990  0.00  0.00    +0.034 A 
ATOM     14  C   UNL     1       9.008   2.669  24.272  0.00  0.00    +0.025 A 
ATOM     15  C   UNL     1       8.824   4.057  24.232  0.00  0.00    +0.022 A 
ATOM     16  C   UNL     1       9.890   4.907  23.920  0.00  0.00    +0.053 A 
ATOM     17 CL   UNL     1       9.594   6.607  23.943  0.00  0.00    -0.083 Cl
ATOM     18  C   UNL     1      11.144   4.378  23.619  0.00  0.00    +0.075 A 
ATOM     19  C   UNL     1      11.297   2.982  23.637  0.00  0.00    +0.037 A 
BRANCH  18  20
ATOM     20  C   UNL     1      12.336   5.249  23.327  0.00  0.00    +0.419 C 
ATOM     21  F   UNL     1      12.598   6.145  24.320  0.00  0.00    -0.166 F 
ATOM     22  F   UNL     1      12.197   5.976  22.183  0.00  0.00    -0.166 F 
ATOM     23  F   UNL     1      13.497   4.548  23.163  0.00  0.00    -0.166 F 
ENDBRANCH  18  20
ENDBRANCH   9  13
BRANCH   1  24
ATOM     24  O   UNL     1       6.745  -5.324  23.330  0.00  0.00    -0.456 OA
BRANCH  24  27
ATOM     25  C   UNL     1       5.074  -6.350  26.434  0.00  0.00    +0.129 A 
ATOM     26  C   UNL     1       6.014  -5.732  25.625  0.00  0.00    +0.079 A 
ATOM     27  C   UNL     1       5.844  -5.822  24.246  0.00  0.00    +0.132 A 
ATOM     28  C   UNL     1       4.696  -6.419  23.734  0.00  0.00    +0.066 A 
ATOM     29  C   UNL     1       3.786  -6.965  24.626  0.00  0.00    +0.115 A 
ATOM     30  N   UNL     1       3.952  -6.967  25.966  0.00  0.00    -0.250 NA
BRANCH  25  34
ATOM     31  C   UNL     1       5.237  -5.173  30.023  0.00  0.00    +0.128 C 
ATOM     32  N   UNL     1       5.120  -5.242  28.592  0.00  0.00    -0.313 N 
ATOM     33  H   UNL     1       4.812  -4.440  28.047  0.00  0.00    +0.149 HD
ATOM     34  C   UNL     1       5.325  -6.421  27.909  0.00  0.00    +0.262 C 
ATOM     35  O   UNL     1       5.660  -7.469  28.450  0.00  0.00    -0.269 OA
ENDBRANCH  25  34
ENDBRANCH  24  27
ENDBRANCH   1  24
TORSDOF 5
ENDMDL
MODEL 2
REMARK VINA RESULT:      -8.7      1.268      2.462
REMARK  Name = 
REMARK  6 active torsions:
REMARK  status: ('A' for Active; 'I' for Inactive)
REMARK    1  A    between atoms: C_1  and  N_2
REMARK    2  A    between atoms: C_3  and  C_5
REMARK    3  A    between atoms: C_9  and  O_10
REMARK    4  A    between atoms: O_10  and  C_11
REMARK    5  A    between atoms: N_19  and  C_20
REMARK    6  A    between atoms: C_22  and  C_27
REMARK                            x       y       z     vdW  Elec       q    Type
REMARK                         _______ _______ _______ _____ _____    ______ ____
ROOT
ATOM      1  C   UNL     1       7.179  -4.004  23.327  0.00  0.00    +0.131 A 
ATOM      2  C   UNL     1       6.233  -3.033  22.969  0.00  0.00    +0.048 A 
ATOM      3  C   UNL     1       6.577  -1.681  22.928  0.00  0.00    +0.033 A 
ATOM      4  C   UNL     1       7.860  -1.310  23.335  0.00  0.00    +0.091 A 
ATOM      5  N   UNL     1       8.404  -0.065  23.404  0.00  0.00    -0.214 NA
ATOM      6  C   UNL     1       9.606  -0.211  23.911  0.00  0.00    +0.198 A 
ATOM      7  N   UNL     1       9.874  -1.543  24.120  0.00  0.00    -0.326 N 
ATOM      8  H   UNL     1      10.730  -1.917  24.498  0.00  0.00    +0.169 HD
ATOM      9  N   UNL     1      10.521   0.747  24.196  0.00  0.00    -0.285 N 
ATOM     10  H   UNL     1      11.473   0.510  24.437  0.00  0.00    +0.155 HD
ATOM     11  C   UNL     1       8.764  -2.273  23.762  0.00  0.00    +0.071 A 
ATOM     12  C   UNL     1       8.465  -3.638  23.767  0.00  0.00    +0.074 A 
ENDROOT
BRANCH   9  13
ATOM     13  C   UNL     1      10.296   2.127  23.987  0.00  0.00    +0.034 A 
ATOM     14  C   UNL     1       9.044   2.676  24.271  0.00  0.00    +0.025 A 
ATOM     15  C   UNL     1       8.844   4.062  24.217  0.00  0.00    +0.022 A 
ATOM     16  C   UNL     1       9.899   4.921  23.891  0.00  0.00    +0.053 A 
ATOM     17 CL   UNL     1       9.583   6.618  23.898  0.00  0.00    -0.083 Cl
ATOM     18  C   UNL     1      11.157   4.404  23.588  0.00  0.00    +0.075 A 
ATOM     19  C   UNL     1      11.327   3.009  23.620  0.00  0.00    +0.037 A 
BRANCH  18  20
ATOM     20  C   UNL     1      12.337   5.285  23.281  0.00  0.00    +0.419 C 
ATOM     21  F   UNL     1      12.574   6.215  24.249  0.00  0.00    -0.166 F 
ATOM     22  F   UNL     1      12.197   5.975  22.114  0.00  0.00    -0.166 F 
ATOM     23  F   UNL     1      13.511   4.600  23.149  0.00  0.00    -0.166 F 
ENDBRANCH  18  20
ENDBRANCH   9  13
BRANCH   1  24
ATOM     24  O   UNL     1       6.910  -5.361  23.323  0.00  0.00    -0.456 OA
BRANCH  24  27
ATOM     25  C   UNL     1       3.991  -7.071  24.752  0.00  0.00    +0.129 A 
ATOM     26  C   UNL     1       4.932  -6.713  23.799  0.00  0.00    +0.079 A 
ATOM     27  C   UNL     1       5.958  -5.858  24.189  0.00  0.00    +0.132 A 
ATOM     28  C   UNL     1       6.072  -5.487  25.525  0.00  0.00    +0.066 A 
ATOM     29  C   UNL     1       5.110  -5.937  26.415  0.00  0.00    +0.115 A 
ATOM     30  N   UNL     1       4.056  -6.704  26.063  0.00  0.00    -0.250 NA
BRANCH  25  34
ATOM     31  C   UNL     1       1.168  -8.194  22.502  0.00  0.00    +0.128 C 
ATOM     32  N   UNL     1       2.273  -7.488  23.091  0.00  0.00    -0.313 N 
ATOM     33  H   UNL     1       2.757  -6.748  22.587  0.00  0.00    +0.149 HD
ATOM     34  C   UNL     1       2.782  -7.844  24.320  0.00  0.00    +0.262 C 
ATOM     35  O   UNL     1       2.318  -8.742  25.013  0.00  0.00    -0.269 OA
ENDBRANCH  25  34
ENDBRANCH  24  27
ENDBRANCH   1  24
TORSDOF 5
ENDMDL
MODEL 3
REMARK VINA RESULT:      -8.4      1.692      2.837
REMARK  Name = 
REMARK  6 active torsions:
REMARK  status: ('A' for Active; 'I' for Inactive)
REMARK    1  A    between atoms: C_1  and  N_2
REMARK    2  A    between atoms: C_3  and  C_5
REMARK    3  A    between atoms: C_9  and  O_10
REMARK    4  A    between atoms: O_10  and  C_11
REMARK    5  A    between atoms: N_19  and  C_20
REMARK    6  A    between atoms: C_22  and  C_27
REMARK                            x       y       z     vdW  Elec       q    Type
REMARK                         _______ _______ _______ _____ _____    ______ ____
ROOT
ATOM      1  C   UNL     1       8.421  -3.646  25.583  0.00  0.00    +0.131 A 
ATOM      2  C   UNL     1       8.111  -2.702  26.572  0.00  0.00    +0.048 A 
ATOM      3  C   UNL     1       8.264  -1.336  26.330  0.00  0.00    +0.033 A 
ATOM      4  C   UNL     1       8.815  -0.936  25.110  0.00  0.00    +0.091 A 
ATOM      5  N   UNL     1       9.079   0.323  24.668  0.00  0.00    -0.214 NA
ATOM      6  C   UNL     1       9.659   0.192  23.498  0.00  0.00    +0.198 A 
ATOM      7  N   UNL     1       9.724  -1.135  23.145  0.00  0.00    -0.326 N 
ATOM      8  H   UNL     1      10.120  -1.497  22.292  0.00  0.00    +0.169 HD
ATOM      9  N   UNL     1      10.133   1.164  22.680  0.00  0.00    -0.285 N 
ATOM     10  H   UNL     1      10.418   0.961  21.733  0.00  0.00    +0.155 HD
ATOM     11  C   UNL     1       9.190  -1.884  24.169  0.00  0.00    +0.071 A 
ATOM     12  C   UNL     1       9.004  -3.256  24.364  0.00  0.00    +0.074 A 
ENDROOT
BRANCH   9  13
ATOM     13  C   UNL     1      10.078   2.542  22.994  0.00  0.00    +0.034 A 
ATOM     14  C   UNL     1       8.873   3.110  23.410  0.00  0.00    +0.025 A 
ATOM     15  C   UNL     1       8.829   4.433  23.870  0.00  0.00    +0.022 A 
ATOM     16  C   UNL     1       9.995   5.203  23.933  0.00  0.00    +0.053 A 
ATOM     17 CL   UNL     1       9.865   6.805  24.561  0.00  0.00    -0.083 Cl
ATOM     18  C   UNL     1      11.212   4.670  23.511  0.00  0.00    +0.075 A 
ATOM     19  C   UNL     1      11.226   3.352  23.025  0.00  0.00    +0.037 A 
BRANCH  18  20
ATOM     20  C   UNL     1      12.502   5.437  23.603  0.00  0.00    +0.419 C 
ATOM     21  F   UNL     1      12.685   6.028  24.818  0.00  0.00    -0.166 F 
ATOM     22  F   UNL     1      12.599   6.432  22.677  0.00  0.00    -0.166 F 
ATOM     23  F   UNL     1      13.612   4.665  23.411  0.00  0.00    -0.166 F 
ENDBRANCH  18  20
ENDBRANCH   9  13
BRANCH   1  24
ATOM     24  O   UNL     1       8.229  -5.007  25.749  0.00  0.00    -0.456 OA
BRANCH  24  27
ATOM     25  C   UNL     1       4.861  -6.067  24.740  0.00  0.00    +0.129 A 
ATOM     26  C   UNL     1       6.167  -5.627  24.595  0.00  0.00    +0.079 A 
ATOM     27  C   UNL     1       6.944  -5.508  25.743  0.00  0.00    +0.132 A 
ATOM     28  C   UNL     1       6.434  -5.936  26.964  0.00  0.00    +0.066 A 
ATOM     29  C   UNL     1       5.132  -6.410  27.002  0.00  0.00    +0.115 A 
ATOM     30  N   UNL     1       4.319  -6.469  25.925  0.00  0.00    -0.250 NA
BRANCH  25  34
ATOM     31  C   UNL     1       1.868  -6.919  22.593  0.00  0.00    +0.128 C 
ATOM     32  N   UNL     1       2.876  -6.895  23.617  0.00  0.00    -0.313 N 
ATOM     33  H   UNL     1       2.790  -7.462  24.458  0.00  0.00    +0.149 HD
ATOM     34  C   UNL     1       3.951  -6.036  23.551  0.00  0.00    +0.262 C 
ATOM     35  O   UNL     1       4.152  -5.272  22.613  0.00  0.00    -0.269 OA
ENDBRANCH  25  34
ENDBRANCH  24  27
ENDBRANCH   1  24
TORSDOF 5
ENDMDL
MODEL 4
REMARK VINA RESULT:      -8.3      1.386      2.148
REMARK  Name = 
REMARK  6 active torsions:
REMARK  status: ('A' for Active; 'I' for Inactive)
REMARK    1  A    between atoms: C_1  and  N_2
REMARK    2  A    between atoms: C_3  and  C_5
REMARK    3  A    between atoms: C_9  and  O_10
REMARK    4  A    between atoms: O_10  and  C_11
REMARK    5  A    between atoms: N_19  and  C_20
REMARK    6  A    between atoms: C_22  and  C_27
REMARK                            x       y       z     vdW  Elec       q    Type
REMARK                         _______ _______ _______ _____ _____    ______ ____
ROOT
ATOM      1  C   UNL     1       8.174  -2.843  23.201  0.00  0.00    +0.131 A 
ATOM      2  C   UNL     1       9.393  -2.504  23.806  0.00  0.00    +0.048 A 
ATOM      3  C   UNL     1       9.690  -1.178  24.122  0.00  0.00    +0.033 A 
ATOM      4  C   UNL     1       8.782  -0.186  23.744  0.00  0.00    +0.091 A 
ATOM      5  N   UNL     1       8.870   1.160  23.921  0.00  0.00    -0.214 NA
ATOM      6  C   UNL     1       7.817   1.682  23.336  0.00  0.00    +0.198 A 
ATOM      7  N   UNL     1       7.013   0.687  22.829  0.00  0.00    -0.326 N 
ATOM      8  H   UNL     1       6.145   0.829  22.338  0.00  0.00    +0.169 HD
ATOM      9  N   UNL     1       7.480   2.989  23.221  0.00  0.00    -0.285 N 
ATOM     10  H   UNL     1       6.569   3.270  22.888  0.00  0.00    +0.155 HD
ATOM     11  C   UNL     1       7.614  -0.526  23.075  0.00  0.00    +0.071 A 
ATOM     12  C   UNL     1       7.267  -1.850  22.788  0.00  0.00    +0.074 A 
ENDROOT
BRANCH   9  13
ATOM     13  C   UNL     1       8.267   4.046  23.735  0.00  0.00    +0.034 A 
ATOM     14  C   UNL     1       7.762   4.852  24.756  0.00  0.00    +0.025 A 
ATOM     15  C   UNL     1       8.578   5.802  25.384  0.00  0.00    +0.022 A 
ATOM     16  C   UNL     1       9.917   5.952  25.007  0.00  0.00    +0.053 A 
ATOM     17 CL   UNL     1      10.868   7.108  25.865  0.00  0.00    -0.083 Cl
ATOM     18  C   UNL     1      10.448   5.172  23.981  0.00  0.00    +0.075 A 
ATOM     19  C   UNL     1       9.603   4.246  23.346  0.00  0.00    +0.037 A 
BRANCH  18  20
ATOM     20  C   UNL     1      11.893   5.256  23.570  0.00  0.00    +0.419 C 
ATOM     21  F   UNL     1      12.079   5.964  22.420  0.00  0.00    -0.166 F 
ATOM     22  F   UNL     1      12.461   4.035  23.363  0.00  0.00    -0.166 F 
ATOM     23  F   UNL     1      12.689   5.865  24.497  0.00  0.00    -0.166 F 
ENDBRANCH  18  20
ENDBRANCH   9  13
BRANCH   1  24
ATOM     24  O   UNL     1       7.803  -4.147  22.923  0.00  0.00    -0.456 OA
BRANCH  24  27
ATOM     25  C   UNL     1       6.175  -5.505  25.920  0.00  0.00    +0.129 A 
ATOM     26  C   UNL     1       7.049  -4.734  25.170  0.00  0.00    +0.079 A 
ATOM     27  C   UNL     1       6.946  -4.798  23.784  0.00  0.00    +0.132 A 
ATOM     28  C   UNL     1       5.914  -5.531  23.206  0.00  0.00    +0.066 A 
ATOM     29  C   UNL     1       5.058  -6.230  24.041  0.00  0.00    +0.115 A 
ATOM     30  N   UNL     1       5.170  -6.256  25.386  0.00  0.00    -0.250 NA
BRANCH  25  34
ATOM     31  C   UNL     1       5.306  -5.306  29.594  0.00  0.00    +0.128 C 
ATOM     32  N   UNL     1       5.297  -5.199  28.161  0.00  0.00    -0.313 N 
ATOM     33  H   UNL     1       4.466  -4.895  27.659  0.00  0.00    +0.149 HD
ATOM     34  C   UNL     1       6.377  -5.593  27.402  0.00  0.00    +0.262 C 
ATOM     35  O   UNL     1       7.424  -6.014  27.880  0.00  0.00    -0.269 OA
ENDBRANCH  25  34
ENDBRANCH  24  27
ENDBRANCH   1  24
TORSDOF 5
ENDMDL
MODEL 5
REMARK VINA RESULT:      -8.1      5.778     10.231
REMARK  Name = 
REMARK  6 active torsions:
REMARK  status: ('A' for Active; 'I' for Inactive)
REMARK    1  A    between atoms: C_1  and  N_2
REMARK    2  A    between atoms: C_3  and  C_5
REMARK    3  A    between atoms: C_9  and  O_10
REMARK    4  A    between atoms: O_10  and  C_11
REMARK    5  A    between atoms: N_19  and  C_20
REMARK    6  A    between atoms: C_22  and  C_27
REMARK                            x       y       z     vdW  Elec       q    Type
REMARK                         _______ _______ _______ _____ _____    ______ ____
ROOT
ATOM      1  C   UNL     1      10.320   2.078  22.873  0.00  0.00    +0.131 A 
ATOM      2  C   UNL     1       9.461   1.602  21.872  0.00  0.00    +0.048 A 
ATOM      3  C   UNL     1       8.710   0.442  22.067  0.00  0.00    +0.033 A 
ATOM      4  C   UNL     1       8.899  -0.281  23.246  0.00  0.00    +0.091 A 
ATOM      5  N   UNL     1       8.305  -1.440  23.638  0.00  0.00    -0.214 NA
ATOM      6  C   UNL     1       8.855  -1.772  24.783  0.00  0.00    +0.198 A 
ATOM      7  N   UNL     1       9.759  -0.812  25.171  0.00  0.00    -0.326 N 
ATOM      8  H   UNL     1      10.310  -0.832  26.015  0.00  0.00    +0.169 HD
ATOM      9  N   UNL     1       8.611  -2.864  25.548  0.00  0.00    -0.285 N 
ATOM     10  H   UNL     1       8.977  -2.940  26.487  0.00  0.00    +0.155 HD
ATOM     11  C   UNL     1       9.810   0.158  24.197  0.00  0.00    +0.071 A 
ATOM     12  C   UNL     1      10.540   1.342  24.051  0.00  0.00    +0.074 A 
ENDROOT
BRANCH   9  13
ATOM     13  C   UNL     1       7.683  -3.871  25.197  0.00  0.00    +0.034 A 
ATOM     14  C   UNL     1       6.649  -4.197  26.076  0.00  0.00    +0.025 A 
ATOM     15  C   UNL     1       5.633  -5.079  25.687  0.00  0.00    +0.022 A 
ATOM     16  C   UNL     1       5.629  -5.639  24.405  0.00  0.00    +0.053 A 
ATOM     17 CL   UNL     1       4.314  -6.674  23.985  0.00  0.00    -0.083 Cl
ATOM     18  C   UNL     1       6.654  -5.344  23.508  0.00  0.00    +0.075 A 
ATOM     19  C   UNL     1       7.678  -4.481  23.931  0.00  0.00    +0.037 A 
BRANCH  18  20
ATOM     20  C   UNL     1       6.672  -5.879  22.101  0.00  0.00    +0.419 C 
ATOM     21  F   UNL     1       6.781  -7.236  22.049  0.00  0.00    -0.166 F 
ATOM     22  F   UNL     1       7.699  -5.385  21.356  0.00  0.00    -0.166 F 
ATOM     23  F   UNL     1       5.544  -5.583  21.391  0.00  0.00    -0.166 F 
ENDBRANCH  18  20
ENDBRANCH   9  13
BRANCH   1  24
ATOM     24  O   UNL     1      11.039   3.254  22.757  0.00  0.00    -0.456 OA
BRANCH  24  27
ATOM     25  C   UNL     1       9.220   5.635  24.879  0.00  0.00    +0.129 A 
ATOM     26  C   UNL     1       9.465   4.465  24.179  0.00  0.00    +0.079 A 
ATOM     27  C   UNL     1      10.699   4.329  23.551  0.00  0.00    +0.132 A 
ATOM     28  C   UNL     1      11.675   5.304  23.738  0.00  0.00    +0.066 A 
ATOM     29  C   UNL     1      11.353   6.417  24.498  0.00  0.00    +0.115 A 
ATOM     30  N   UNL     1      10.143   6.623  25.060  0.00  0.00    -0.250 NA
BRANCH  25  34
ATOM     31  C   UNL     1       5.441   5.595  24.986  0.00  0.00    +0.128 C 
ATOM     32  N   UNL     1       6.817   5.500  24.579  0.00  0.00    -0.313 N 
ATOM     33  H   UNL     1       7.077   5.080  23.689  0.00  0.00    +0.149 HD
ATOM     34  C   UNL     1       7.843   5.884  25.414  0.00  0.00    +0.262 C 
ATOM     35  O   UNL     1       7.668   6.368  26.527  0.00  0.00    -0.269 OA
ENDBRANCH  25  34
ENDBRANCH  24  27
ENDBRANCH   1  24
TORSDOF 5
ENDMDL
MODEL 6
REMARK VINA RESULT:      -8.0      1.581      2.268
REMARK  Name = 
REMARK  6 active torsions:
REMARK  status: ('A' for Active; 'I' for Inactive)
REMARK    1  A    between atoms: C_1  and  N_2
REMARK    2  A    between atoms: C_3  and  C_5
REMARK    3  A    between atoms: C_9  and  O_10
REMARK    4  A    between atoms: O_10  and  C_11
REMARK    5  A    between atoms: N_19  and  C_20
REMARK    6  A    between atoms: C_22  and  C_27
REMARK                            x       y       z     vdW  Elec       q    Type
REMARK                         _______ _______ _______ _____ _____    ______ ____
ROOT
ATOM      1  C   UNL     1       6.967  -4.397  23.547  0.00  0.00    +0.131 A 
ATOM      2  C   UNL     1       8.308  -4.291  23.941  0.00  0.00    +0.048 A 
ATOM      3  C   UNL     1       8.917  -3.043  24.079  0.00  0.00    +0.033 A 
ATOM      4  C   UNL     1       8.184  -1.906  23.731  0.00  0.00    +0.091 A 
ATOM      5  N   UNL     1       8.573  -0.602  23.759  0.00  0.00    -0.214 NA
ATOM      6  C   UNL     1       7.572   0.095  23.275  0.00  0.00    +0.198 A 
ATOM      7  N   UNL     1       6.512  -0.733  22.987  0.00  0.00    -0.326 N 
ATOM      8  H   UNL     1       5.625  -0.440  22.609  0.00  0.00    +0.169 HD
ATOM      9  N   UNL     1       7.497   1.434  23.078  0.00  0.00    -0.285 N 
ATOM     10  H   UNL     1       6.621   1.883  22.847  0.00  0.00    +0.155 HD
ATOM     11  C   UNL     1       6.882  -2.028  23.268  0.00  0.00    +0.071 A 
ATOM     12  C   UNL     1       6.230  -3.261  23.166  0.00  0.00    +0.074 A 
ENDROOT
BRANCH   9  13
ATOM     13  C   UNL     1       8.554   2.326  23.370  0.00  0.00    +0.034 A 
ATOM     14  C   UNL     1       9.841   2.049  22.907  0.00  0.00    +0.025 A 
ATOM     15  C   UNL     1      10.869   2.990  23.053  0.00  0.00    +0.022 A 
ATOM     16  C   UNL     1      10.620   4.229  23.652  0.00  0.00    +0.053 A 
ATOM     17 CL   UNL     1      11.927   5.352  23.745  0.00  0.00    -0.083 Cl
ATOM     18  C   UNL     1       9.349   4.531  24.137  0.00  0.00    +0.075 A 
ATOM     19  C   UNL     1       8.341   3.560  24.007  0.00  0.00    +0.037 A 
BRANCH  18  20
ATOM     20  C   UNL     1       9.015   5.866  24.744  0.00  0.00    +0.419 C 
ATOM     21  F   UNL     1       7.713   5.963  25.134  0.00  0.00    -0.166 F 
ATOM     22  F   UNL     1       9.237   6.908  23.895  0.00  0.00    -0.166 F 
ATOM     23  F   UNL     1       9.745   6.156  25.861  0.00  0.00    -0.166 F 
ENDBRANCH  18  20
ENDBRANCH   9  13
BRANCH   1  24
ATOM     24  O   UNL     1       6.298  -5.605  23.455  0.00  0.00    -0.456 OA
BRANCH  24  27
ATOM     25  C   UNL     1       4.882  -6.409  26.747  0.00  0.00    +0.129 A 
ATOM     26  C   UNL     1       5.793  -5.919  25.825  0.00  0.00    +0.079 A 
ATOM     27  C   UNL     1       5.452  -5.982  24.477  0.00  0.00    +0.132 A 
ATOM     28  C   UNL     1       4.183  -6.421  24.110  0.00  0.00    +0.066 A 
ATOM     29  C   UNL     1       3.322  -6.844  25.109  0.00  0.00    +0.115 A 
ATOM     30  N   UNL     1       3.642  -6.872  26.421  0.00  0.00    -0.250 NA
BRANCH  25  34
ATOM     31  C   UNL     1       5.327  -5.367  30.353  0.00  0.00    +0.128 C 
ATOM     32  N   UNL     1       5.065  -5.389  28.940  0.00  0.00    -0.313 N 
ATOM     33  H   UNL     1       4.636  -4.596  28.469  0.00  0.00    +0.149 HD
ATOM     34  C   UNL     1       5.294  -6.517  28.183  0.00  0.00    +0.262 C 
ATOM     35  O   UNL     1       5.770  -7.552  28.635  0.00  0.00    -0.269 OA
ENDBRANCH  25  34
ENDBRANCH  24  27
ENDBRANCH   1  24
TORSDOF 5
ENDMDL
MODEL 7
REMARK VINA RESULT:      -8.0      2.616      3.946
REMARK  Name = 
REMARK  6 active torsions:
REMARK  status: ('A' for Active; 'I' for Inactive)
REMARK    1  A    between atoms: C_1  and  N_2
REMARK    2  A    between atoms: C_3  and  C_5
REMARK    3  A    between atoms: C_9  and  O_10
REMARK    4  A    between atoms: O_10  and  C_11
REMARK    5  A    between atoms: N_19  and  C_20
REMARK    6  A    between atoms: C_22  and  C_27
REMARK                            x       y       z     vdW  Elec       q    Type
REMARK                         _______ _______ _______ _____ _____    ______ ____
ROOT
ATOM      1  C   UNL     1       6.896  -4.711  25.712  0.00  0.00    +0.131 A 
ATOM      2  C   UNL     1       6.868  -3.772  26.752  0.00  0.00    +0.048 A 
ATOM      3  C   UNL     1       7.172  -2.430  26.512  0.00  0.00    +0.033 A 
ATOM      4  C   UNL     1       7.587  -2.063  25.230  0.00  0.00    +0.091 A 
ATOM      5  N   UNL     1       7.954  -0.835  24.774  0.00  0.00    -0.214 NA
ATOM      6  C   UNL     1       8.332  -0.999  23.527  0.00  0.00    +0.198 A 
ATOM      7  N   UNL     1       8.160  -2.309  23.147  0.00  0.00    -0.326 N 
ATOM      8  H   UNL     1       8.372  -2.688  22.238  0.00  0.00    +0.169 HD
ATOM      9  N   UNL     1       8.809  -0.069  22.664  0.00  0.00    -0.285 N 
ATOM     10  H   UNL     1       8.921  -0.273  21.681  0.00  0.00    +0.155 HD
ATOM     11  C   UNL     1       7.685  -3.017  24.227  0.00  0.00    +0.071 A 
ATOM     12  C   UNL     1       7.341  -4.358  24.425  0.00  0.00    +0.074 A 
ENDROOT
BRANCH   9  13
ATOM     13  C   UNL     1       8.992   1.291  23.005  0.00  0.00    +0.034 A 
ATOM     14  C   UNL     1      10.246   1.737  23.424  0.00  0.00    +0.025 A 
ATOM     15  C   UNL     1      10.488   3.104  23.619  0.00  0.00    +0.022 A 
ATOM     16  C   UNL     1       9.481   4.046  23.385  0.00  0.00    +0.053 A 
ATOM     17 CL   UNL     1       9.875   5.712  23.598  0.00  0.00    -0.083 Cl
ATOM     18  C   UNL     1       8.213   3.631  22.980  0.00  0.00    +0.075 A 
ATOM     19  C   UNL     1       7.985   2.254  22.820  0.00  0.00    +0.037 A 
BRANCH  18  20
ATOM     20  C   UNL     1       7.110   4.604  22.667  0.00  0.00    +0.419 C 
ATOM     21  F   UNL     1       6.720   5.334  23.750  0.00  0.00    -0.166 F 
ATOM     22  F   UNL     1       5.986   4.000  22.189  0.00  0.00    -0.166 F 
ATOM     23  F   UNL     1       7.447   5.526  21.718  0.00  0.00    -0.166 F 
ENDBRANCH  18  20
ENDBRANCH   9  13
BRANCH   1  24
ATOM     24  O   UNL     1       6.544  -6.039  25.881  0.00  0.00    -0.456 OA
BRANCH  24  27
ATOM     25  C   UNL     1       3.184  -6.828  24.628  0.00  0.00    +0.129 A 
ATOM     26  C   UNL     1       4.540  -6.547  24.580  0.00  0.00    +0.079 A 
ATOM     27  C   UNL     1       5.216  -6.398  25.787  0.00  0.00    +0.132 A 
ATOM     28  C   UNL     1       4.548  -6.645  26.983  0.00  0.00    +0.066 A 
ATOM     29  C   UNL     1       3.202  -6.971  26.927  0.00  0.00    +0.115 A 
ATOM     30  N   UNL     1       2.491  -7.050  25.781  0.00  0.00    -0.250 NA
BRANCH  25  34
ATOM     31  C   UNL     1       1.084  -8.188  21.794  0.00  0.00    +0.128 C 
ATOM     32  N   UNL     1       1.926  -8.048  22.950  0.00  0.00    -0.313 N 
ATOM     33  H   UNL     1       2.141  -8.843  23.547  0.00  0.00    +0.149 HD
ATOM     34  C   UNL     1       2.398  -6.818  23.353  0.00  0.00    +0.262 C 
ATOM     35  O   UNL     1       2.179  -5.776  22.746  0.00  0.00    -0.269 OA
ENDBRANCH  25  34
ENDBRANCH  24  27
ENDBRANCH   1  24
TORSDOF 5
ENDMDL
MODEL 8
REMARK VINA RESULT:      -7.9      1.805      3.108
REMARK  Name = 
REMARK  6 active torsions:
REMARK  status: ('A' for Active; 'I' for Inactive)
REMARK    1  A    between atoms: C_1  and  N_2
REMARK    2  A    between atoms: C_3  and  C_5
REMARK    3  A    between atoms: C_9  and  O_10
REMARK    4  A    between atoms: O_10  and  C_11
REMARK    5  A    between atoms: N_19  and  C_20
REMARK    6  A    between atoms: C_22  and  C_27
REMARK                            x       y       z     vdW  Elec       q    Type
REMARK                         _______ _______ _______ _____ _____    ______ ____
ROOT
ATOM      1  C   UNL     1       8.294  -2.969  23.468  0.00  0.00    +0.131 A 
ATOM      2  C   UNL     1       9.548  -2.585  23.965  0.00  0.00    +0.048 A 
ATOM      3  C   UNL     1       9.828  -1.245  24.240  0.00  0.00    +0.033 A 
ATOM      4  C   UNL     1       8.861  -0.288  23.927  0.00  0.00    +0.091 A 
ATOM      5  N   UNL     1       8.921   1.063  24.080  0.00  0.00    -0.214 NA
ATOM      6  C   UNL     1       7.807   1.544  23.579  0.00  0.00    +0.198 A 
ATOM      7  N   UNL     1       6.996   0.518  23.154  0.00  0.00    -0.326 N 
ATOM      8  H   UNL     1       6.085   0.626  22.736  0.00  0.00    +0.169 HD
ATOM      9  N   UNL     1       7.421   2.839  23.478  0.00  0.00    -0.285 N 
ATOM     10  H   UNL     1       6.476   3.087  23.219  0.00  0.00    +0.155 HD
ATOM     11  C   UNL     1       7.653  -0.672  23.363  0.00  0.00    +0.071 A 
ATOM     12  C   UNL     1       7.325  -2.010  23.122  0.00  0.00    +0.074 A 
ENDROOT
BRANCH   9  13
ATOM     13  C   UNL     1       8.214   3.926  23.912  0.00  0.00    +0.034 A 
ATOM     14  C   UNL     1       7.746   4.764  24.924  0.00  0.00    +0.025 A 
ATOM     15  C   UNL     1       8.576   5.751  25.474  0.00  0.00    +0.022 A 
ATOM     16  C   UNL     1       9.892   5.905  25.026  0.00  0.00    +0.053 A 
ATOM     17 CL   UNL     1      10.864   7.108  25.791  0.00  0.00    -0.083 Cl
ATOM     18  C   UNL     1      10.385   5.093  24.006  0.00  0.00    +0.075 A 
ATOM     19  C   UNL     1       9.526   4.130  23.450  0.00  0.00    +0.037 A 
BRANCH  18  20
ATOM     20  C   UNL     1      11.807   5.182  23.522  0.00  0.00    +0.419 C 
ATOM     21  F   UNL     1      12.304   3.983  23.107  0.00  0.00    -0.166 F 
ATOM     22  F   UNL     1      12.666   5.642  24.474  0.00  0.00    -0.166 F 
ATOM     23  F   UNL     1      11.971   6.024  22.460  0.00  0.00    -0.166 F 
ENDBRANCH  18  20
ENDBRANCH   9  13
BRANCH   1  24
ATOM     24  O   UNL     1       7.943  -4.288  23.238  0.00  0.00    -0.456 OA
BRANCH  24  27
ATOM     25  C   UNL     1       4.900  -5.806  24.624  0.00  0.00    +0.129 A 
ATOM     26  C   UNL     1       5.755  -5.286  23.665  0.00  0.00    +0.079 A 
ATOM     27  C   UNL     1       7.026  -4.892  24.071  0.00  0.00    +0.132 A 
ATOM     28  C   UNL     1       7.433  -5.134  25.380  0.00  0.00    +0.066 A 
ATOM     29  C   UNL     1       6.524  -5.705  26.255  0.00  0.00    +0.115 A 
ATOM     30  N   UNL     1       5.256  -6.031  25.921  0.00  0.00    -0.250 NA
BRANCH  25  34
ATOM     31  C   UNL     1       1.987  -7.039  22.554  0.00  0.00    +0.128 C 
ATOM     32  N   UNL     1       3.290  -6.646  23.016  0.00  0.00    -0.313 N 
ATOM     33  H   UNL     1       4.127  -6.845  22.470  0.00  0.00    +0.149 HD
ATOM     34  C   UNL     1       3.473  -6.071  24.254  0.00  0.00    +0.262 C 
ATOM     35  O   UNL     1       2.555  -5.815  25.025  0.00  0.00    -0.269 OA
ENDBRANCH  25  34
ENDBRANCH  24  27
ENDBRANCH   1  24
TORSDOF 5
ENDMDL
MODEL 9
REMARK VINA RESULT:      -7.8      6.173     10.646
REMARK  Name = 
REMARK  6 active torsions:
REMARK  status: ('A' for Active; 'I' for Inactive)
REMARK    1  A    between atoms: C_1  and  N_2
REMARK    2  A    between atoms: C_3  and  C_5
REMARK    3  A    between atoms: C_9  and  O_10
REMARK    4  A    between atoms: O_10  and  C_11
REMARK    5  A    between atoms: N_19  and  C_20
REMARK    6  A    between atoms: C_22  and  C_27
REMARK                            x       y       z     vdW  Elec       q    Type
REMARK                         _______ _______ _______ _____ _____    ______ ____
ROOT
ATOM      1  C   UNL     1      10.110   1.663  24.089  0.00  0.00    +0.131 A 
ATOM      2  C   UNL     1       8.986   1.757  24.920  0.00  0.00    +0.048 A 
ATOM      3  C   UNL     1       8.353   0.608  25.399  0.00  0.00    +0.033 A 
ATOM      4  C   UNL     1       8.814  -0.635  24.960  0.00  0.00    +0.091 A 
ATOM      5  N   UNL     1       8.343  -1.873  25.267  0.00  0.00    -0.214 NA
ATOM      6  C   UNL     1       9.047  -2.726  24.560  0.00  0.00    +0.198 A 
ATOM      7  N   UNL     1      10.011  -2.061  23.838  0.00  0.00    -0.326 N 
ATOM      8  H   UNL     1      10.681  -2.491  23.220  0.00  0.00    +0.169 HD
ATOM      9  N   UNL     1       8.928  -4.074  24.505  0.00  0.00    -0.285 N 
ATOM     10  H   UNL     1       9.624  -4.646  24.047  0.00  0.00    +0.155 HD
ATOM     11  C   UNL     1       9.880  -0.712  24.074  0.00  0.00    +0.071 A 
ATOM     12  C   UNL     1      10.563   0.418  23.617  0.00  0.00    +0.074 A 
ENDROOT
BRANCH   9  13
ATOM     13  C   UNL     1       7.961  -4.802  25.237  0.00  0.00    +0.034 A 
ATOM     14  C   UNL     1       8.121  -4.975  26.613  0.00  0.00    +0.025 A 
ATOM     15  C   UNL     1       7.104  -5.559  27.381  0.00  0.00    +0.022 A 
ATOM     16  C   UNL     1       5.906  -5.966  26.784  0.00  0.00    +0.053 A 
ATOM     17 CL   UNL     1       4.684  -6.626  27.808  0.00  0.00    -0.083 Cl
ATOM     18  C   UNL     1       5.721  -5.820  25.410  0.00  0.00    +0.075 A 
ATOM     19  C   UNL     1       6.766  -5.260  24.656  0.00  0.00    +0.037 A 
BRANCH  18  20
ATOM     20  C   UNL     1       4.435  -6.195  24.727  0.00  0.00    +0.419 C 
ATOM     21  F   UNL     1       4.110  -7.508  24.887  0.00  0.00    -0.166 F 
ATOM     22  F   UNL     1       4.459  -5.969  23.383  0.00  0.00    -0.166 F 
ATOM     23  F   UNL     1       3.351  -5.500  25.183  0.00  0.00    -0.166 F 
ENDBRANCH  18  20
ENDBRANCH   9  13
BRANCH   1  24
ATOM     24  O   UNL     1      10.812   2.768  23.637  0.00  0.00    -0.456 OA
BRANCH  24  27
ATOM     25  C   UNL     1       8.372   5.470  23.165  0.00  0.00    +0.129 A 
ATOM     26  C   UNL     1       8.856   4.173  23.234  0.00  0.00    +0.079 A 
ATOM     27  C   UNL     1      10.184   3.995  23.607  0.00  0.00    +0.132 A 
ATOM     28  C   UNL     1      10.940   5.095  24.002  0.00  0.00    +0.066 A 
ATOM     29  C   UNL     1      10.352   6.348  23.947  0.00  0.00    +0.115 A 
ATOM     30  N   UNL     1       9.091   6.573  23.518  0.00  0.00    -0.250 NA
BRANCH  25  34
ATOM     31  C   UNL     1       4.609   5.241  22.883  0.00  0.00    +0.128 C 
ATOM     32  N   UNL     1       5.984   5.050  23.254  0.00  0.00    -0.313 N 
ATOM     33  H   UNL     1       6.241   4.483  24.059  0.00  0.00    +0.149 HD
ATOM     34  C   UNL     1       7.004   5.702  22.598  0.00  0.00    +0.262 C 
ATOM     35  O   UNL     1       6.829   6.444  21.639  0.00  0.00    -0.269 OA
ENDBRANCH  25  34
ENDBRANCH  24  27
ENDBRANCH   1  24
TORSDOF 5
ENDMDL
