MODEL 1
REMARK VINA RESULT:      -6.6      0.000      0.000
REMARK  Name = 
REMARK  11 active torsions:
REMARK  status: ('A' for Active; 'I' for Inactive)
REMARK    1  A    between atoms: CA_2  and  C_3
REMARK    2  A    between atoms: CA_2  and  N_5
REMARK    3  A    between atoms: CA_2  and  CB_27
REMARK    4  A    between atoms: C_3  and  O_4
REMARK    5  A    between atoms: N_12  and  C_13
REMARK    6  A    between atoms: C_13  and  C_14
REMARK    7  A    between atoms: C_13  and  C_15
REMARK    8  A    between atoms: N_17  and  C_18
REMARK    9  A    between atoms: C_23  and  N_24
REMARK   10  A    between atoms: CB_27  and  CG1_28
REMARK   11  A    between atoms: CB_27  and  CG2_29
REMARK                            x       y       z     vdW  Elec       q    Type
REMARK                         _______ _______ _______ _____ _____    ______ ____
ROOT
ATOM      1  N   VAL A   1       7.240   1.244  27.017  0.00  0.00    -0.308 N 
ATOM      2  H   VAL A   1       7.703   1.126  27.914  0.00  0.00    +0.149 HD
ATOM      3  C   UNK A   0       8.076   0.734  26.032  0.00  0.00    +0.219 A 
ATOM      4  N   UNK A   0       8.614   1.574  25.128  0.00  0.00    -0.197 NA
ATOM      5  C   UNK A   0       9.363   1.100  24.095  0.00  0.00    +0.156 A 
ATOM      6  N   UNK A   0       9.927   1.983  23.156  0.00  0.00    -0.297 N 
ATOM      7  H   UNK A   0      10.462   1.485  22.448  0.00  0.00    +0.154 HD
ATOM      8  C   UNK A   0       9.505  -0.288  23.983  0.00  0.00    +0.148 A 
ATOM      9  N   UNK A   0      10.146  -1.084  23.057  0.00  0.00    -0.231 NA
ATOM     10  C   UNK A   0       9.924  -2.312  23.470  0.00  0.00    +0.201 A 
ATOM     11  N   UNK A   0       9.174  -2.346  24.618  0.00  0.00    -0.312 N 
ATOM     12  C   UNK A   0       8.922  -1.051  24.979  0.00  0.00    +0.167 A 
ATOM     13  N   UNK A   0       8.237  -0.600  26.042  0.00  0.00    -0.195 NA
ENDROOT
BRANCH   6  14
ATOM     14  C   UNK A   0      10.380   3.290  23.411  0.00  0.00    +0.036 A 
ATOM     15  C   UNK A   0      11.730   3.600  23.201  0.00  0.00    +0.046 A 
ATOM     16  C   UNK A   0      12.211   4.906  23.364  0.00  0.00    +0.028 A 
ATOM     17  C   UNK A   0      11.352   5.879  23.880  0.00  0.00    +0.042 A 
ATOM     18  C   UNK A   0      10.015   5.574  24.121  0.00  0.00    +0.044 A 
ATOM     19 CL   UNK A   0       8.958   6.788  24.733  0.00  0.00    -0.083 Cl
ATOM     20  C   UNK A   0       9.526   4.294  23.879  0.00  0.00    +0.043 A 
BRANCH  16  21
ATOM     21  N   UNK A   0      13.578   5.179  23.220  0.00  0.00    -0.358 N 
ATOM     22  H   UNK A   0      13.930   5.005  22.283  0.00  0.00    +0.142 HD
ATOM     23  H   UNK A   0      13.848   6.097  23.562  0.00  0.00    +0.142 HD
ENDBRANCH  16  21
ENDBRANCH   6  14
BRANCH  11  24
ATOM     24  C   UNK A   0       8.692  -3.539  25.301  0.00  0.00    +0.084 C 
ATOM     25  C   UNK A   0       9.727  -4.663  25.254  0.00  0.00    +0.030 C 
ATOM     26  C   UNK A   0       7.347  -4.008  24.741  0.00  0.00    +0.030 C 
ENDBRANCH  11  24
BRANCH   1  27
ATOM     27  CA  VAL A   1       6.691   2.597  26.826  0.00  0.00    +0.101 C 
BRANCH  27  28
ATOM     28  CB  VAL A   1       5.196   2.493  26.396  0.00  0.00    +0.005 C 
ATOM     29  CG2 VAL A   1       4.481   1.282  27.002  0.00  0.00    +0.009 C 
ATOM     30  CG1 VAL A   1       5.011   2.497  24.874  0.00  0.00    +0.009 C 
ENDBRANCH  27  28
BRANCH  27  31
ATOM     31  C   VAL A   1       6.881   3.388  28.144  0.00  0.00    +0.178 C 
BRANCH  31  32
ATOM     32  O   VAL A   1       7.627   2.608  29.086  0.00  0.00    -0.393 OA
ATOM     33  H   VAL A   1       7.970   3.222  29.759  0.00  0.00    +0.209 HD
ENDBRANCH  31  32
ENDBRANCH  27  31
ENDBRANCH   1  27
TORSDOF 7
ENDMDL
MODEL 2
REMARK VINA RESULT:      -6.5      2.876      6.641
REMARK  Name = 
REMARK  11 active torsions:
REMARK  status: ('A' for Active; 'I' for Inactive)
REMARK    1  A    between atoms: CA_2  and  C_3
REMARK    2  A    between atoms: CA_2  and  N_5
REMARK    3  A    between atoms: CA_2  and  CB_27
REMARK    4  A    between atoms: C_3  and  O_4
REMARK    5  A    between atoms: N_12  and  C_13
REMARK    6  A    between atoms: C_13  and  C_14
REMARK    7  A    between atoms: C_13  and  C_15
REMARK    8  A    between atoms: N_17  and  C_18
REMARK    9  A    between atoms: C_23  and  N_24
REMARK   10  A    between atoms: CB_27  and  CG1_28
REMARK   11  A    between atoms: CB_27  and  CG2_29
REMARK                            x       y       z     vdW  Elec       q    Type
REMARK                         _______ _______ _______ _____ _____    ______ ____
ROOT
ATOM      1  N   VAL A   1       6.238   1.419  26.421  0.00  0.00    -0.308 N 
ATOM      2  H   VAL A   1       5.431   1.685  25.864  0.00  0.00    +0.149 HD
ATOM      3  C   UNK A   0       7.353   1.432  25.593  0.00  0.00    +0.219 A 
ATOM      4  N   UNK A   0       7.980   0.273  25.317  0.00  0.00    -0.197 NA
ATOM      5  C   UNK A   0       9.128   0.257  24.586  0.00  0.00    +0.156 A 
ATOM      6  N   UNK A   0       9.775  -0.958  24.297  0.00  0.00    -0.297 N 
ATOM      7  H   UNK A   0      10.615  -0.811  23.740  0.00  0.00    +0.154 HD
ATOM      8  C   UNK A   0       9.653   1.490  24.181  0.00  0.00    +0.148 A 
ATOM      9  N   UNK A   0      10.792   1.829  23.481  0.00  0.00    -0.231 NA
ATOM     10  C   UNK A   0      10.759   3.142  23.416  0.00  0.00    +0.201 A 
ATOM     11  N   UNK A   0       9.653   3.665  24.038  0.00  0.00    -0.312 N 
ATOM     12  C   UNK A   0       8.915   2.613  24.508  0.00  0.00    +0.167 A 
ATOM     13  N   UNK A   0       7.747   2.645  25.170  0.00  0.00    -0.195 NA
ENDROOT
BRANCH   6  14
ATOM     14  C   UNK A   0       9.154  -2.203  24.090  0.00  0.00    +0.036 A 
ATOM     15  C   UNK A   0       9.610  -3.323  24.797  0.00  0.00    +0.046 A 
ATOM     16  C   UNK A   0       8.971  -4.564  24.686  0.00  0.00    +0.028 A 
ATOM     17  C   UNK A   0       7.951  -4.712  23.745  0.00  0.00    +0.042 A 
ATOM     18  C   UNK A   0       7.508  -3.612  23.013  0.00  0.00    +0.044 A 
ATOM     19 CL   UNK A   0       6.231  -3.801  21.874  0.00  0.00    -0.083 Cl
ATOM     20  C   UNK A   0       8.095  -2.363  23.190  0.00  0.00    +0.043 A 
BRANCH  16  21
ATOM     21  N   UNK A   0       9.489  -5.687  25.345  0.00  0.00    -0.358 N 
ATOM     22  H   UNK A   0       8.851  -6.089  26.025  0.00  0.00    +0.142 HD
ATOM     23  H   UNK A   0       9.865  -6.391  24.716  0.00  0.00    +0.142 HD
ENDBRANCH  16  21
ENDBRANCH   6  14
BRANCH  11  24
ATOM     24  C   UNK A   0       9.344   5.078  24.209  0.00  0.00    +0.084 C 
ATOM     25  C   UNK A   0       8.277   5.538  23.217  0.00  0.00    +0.030 C 
ATOM     26  C   UNK A   0      10.600   5.948  24.106  0.00  0.00    +0.030 C 
ENDBRANCH  11  24
BRANCH   1  27
ATOM     27  CA  VAL A   1       6.001   0.220  27.243  0.00  0.00    +0.101 C 
BRANCH  27  28
ATOM     28  CB  VAL A   1       5.790   0.645  28.728  0.00  0.00    +0.005 C 
ATOM     29  CG2 VAL A   1       4.531   1.491  28.937  0.00  0.00    +0.009 C 
ATOM     30  CG1 VAL A   1       7.006   1.368  29.320  0.00  0.00    +0.009 C 
ENDBRANCH  27  28
BRANCH  27  31
ATOM     31  C   VAL A   1       4.783  -0.536  26.657  0.00  0.00    +0.178 C 
BRANCH  31  32
ATOM     32  O   VAL A   1       5.055  -0.948  25.313  0.00  0.00    -0.393 OA
ATOM     33  H   VAL A   1       4.221  -1.283  24.941  0.00  0.00    +0.209 HD
ENDBRANCH  31  32
ENDBRANCH  27  31
ENDBRANCH   1  27
TORSDOF 7
ENDMDL
MODEL 3
REMARK VINA RESULT:      -6.4      3.926      7.659
REMARK  Name = 
REMARK  11 active torsions:
REMARK  status: ('A' for Active; 'I' for Inactive)
REMARK    1  A    between atoms: CA_2  and  C_3
REMARK    2  A    between atoms: CA_2  and  N_5
REMARK    3  A    between atoms: CA_2  and  CB_27
REMARK    4  A    between atoms: C_3  and  O_4
REMARK    5  A    between atoms: N_12  and  C_13
REMARK    6  A    between atoms: C_13  and  C_14
REMARK    7  A    between atoms: C_13  and  C_15
REMARK    8  A    between atoms: N_17  and  C_18
REMARK    9  A    between atoms: C_23  and  N_24
REMARK   10  A    between atoms: CB_27  and  CG1_28
REMARK   11  A    between atoms: CB_27  and  CG2_29
REMARK                            x       y       z     vdW  Elec       q    Type
REMARK                         _______ _______ _______ _____ _____    ______ ____
ROOT
ATOM      1  N   VAL A   1       6.109   0.019  25.866  0.00  0.00    -0.308 N 
ATOM      2  H   VAL A   1       5.421   0.430  25.242  0.00  0.00    +0.149 HD
ATOM      3  C   UNK A   0       6.993  -0.727  25.096  0.00  0.00    +0.219 A 
ATOM      4  N   UNK A   0       7.021  -2.065  25.243  0.00  0.00    -0.197 NA
ATOM      5  C   UNK A   0       7.935  -2.821  24.575  0.00  0.00    +0.156 A 
ATOM      6  N   UNK A   0       7.956  -4.219  24.727  0.00  0.00    -0.297 N 
ATOM      7  H   UNK A   0       8.688  -4.646  24.164  0.00  0.00    +0.154 HD
ATOM      8  C   UNK A   0       8.870  -2.150  23.777  0.00  0.00    +0.148 A 
ATOM      9  N   UNK A   0       9.931  -2.594  23.017  0.00  0.00    -0.231 NA
ATOM     10  C   UNK A   0      10.449  -1.500  22.505  0.00  0.00    +0.201 A 
ATOM     11  N   UNK A   0       9.772  -0.372  22.897  0.00  0.00    -0.312 N 
ATOM     12  C   UNK A   0       8.733  -0.776  23.691  0.00  0.00    +0.167 A 
ATOM     13  N   UNK A   0       7.799  -0.019  24.287  0.00  0.00    -0.195 NA
ENDROOT
BRANCH   6  14
ATOM     14  C   UNK A   0       6.842  -5.048  24.954  0.00  0.00    +0.036 A 
ATOM     15  C   UNK A   0       6.004  -5.378  23.881  0.00  0.00    +0.046 A 
ATOM     16  C   UNK A   0       4.932  -6.265  24.042  0.00  0.00    +0.028 A 
ATOM     17  C   UNK A   0       4.616  -6.712  25.326  0.00  0.00    +0.042 A 
ATOM     18  C   UNK A   0       5.425  -6.366  26.406  0.00  0.00    +0.044 A 
ATOM     19 CL   UNK A   0       5.042  -6.944  27.982  0.00  0.00    -0.083 Cl
ATOM     20  C   UNK A   0       6.537  -5.550  26.223  0.00  0.00    +0.043 A 
BRANCH  16  21
ATOM     21  N   UNK A   0       4.062  -6.524  22.973  0.00  0.00    -0.358 N 
ATOM     22  H   UNK A   0       3.420  -5.761  22.780  0.00  0.00    +0.142 HD
ATOM     23  H   UNK A   0       4.534  -6.844  22.133  0.00  0.00    +0.142 HD
ENDBRANCH  16  21
ENDBRANCH   6  14
BRANCH  11  24
ATOM     24  C   UNK A   0      10.121   1.004  22.569  0.00  0.00    +0.084 C 
ATOM     25  C   UNK A   0      10.471   1.802  23.824  0.00  0.00    +0.030 C 
ATOM     26  C   UNK A   0       9.011   1.693  21.771  0.00  0.00    +0.030 C 
ENDBRANCH  11  24
BRANCH   1  27
ATOM     27  CA  VAL A   1       5.508  -0.623  27.047  0.00  0.00    +0.101 C 
BRANCH  27  28
ATOM     28  CB  VAL A   1       5.744   0.274  28.300  0.00  0.00    +0.005 C 
ATOM     29  CG2 VAL A   1       4.515   0.374  29.207  0.00  0.00    +0.009 C 
ATOM     30  CG1 VAL A   1       6.241   1.680  27.942  0.00  0.00    +0.009 C 
ENDBRANCH  27  28
BRANCH  27  31
ATOM     31  C   VAL A   1       4.005  -0.860  26.756  0.00  0.00    +0.178 C 
BRANCH  31  32
ATOM     32  O   VAL A   1       3.844  -1.945  25.834  0.00  0.00    -0.393 OA
ATOM     33  H   VAL A   1       3.499  -1.569  25.005  0.00  0.00    +0.209 HD
ENDBRANCH  31  32
ENDBRANCH  27  31
ENDBRANCH   1  27
TORSDOF 7
ENDMDL
MODEL 4
REMARK VINA RESULT:      -6.4      3.916      7.675
REMARK  Name = 
REMARK  11 active torsions:
REMARK  status: ('A' for Active; 'I' for Inactive)
REMARK    1  A    between atoms: CA_2  and  C_3
REMARK    2  A    between atoms: CA_2  and  N_5
REMARK    3  A    between atoms: CA_2  and  CB_27
REMARK    4  A    between atoms: C_3  and  O_4
REMARK    5  A    between atoms: N_12  and  C_13
REMARK    6  A    between atoms: C_13  and  C_14
REMARK    7  A    between atoms: C_13  and  C_15
REMARK    8  A    between atoms: N_17  and  C_18
REMARK    9  A    between atoms: C_23  and  N_24
REMARK   10  A    between atoms: CB_27  and  CG1_28
REMARK   11  A    between atoms: CB_27  and  CG2_29
REMARK                            x       y       z     vdW  Elec       q    Type
REMARK                         _______ _______ _______ _____ _____    ______ ____
ROOT
ATOM      1  N   VAL A   1       6.112   0.056  25.970  0.00  0.00    -0.308 N 
ATOM      2  H   VAL A   1       5.450   0.508  25.346  0.00  0.00    +0.149 HD
ATOM      3  C   UNK A   0       6.970  -0.717  25.198  0.00  0.00    +0.219 A 
ATOM      4  N   UNK A   0       6.937  -2.056  25.323  0.00  0.00    -0.197 NA
ATOM      5  C   UNK A   0       7.824  -2.842  24.653  0.00  0.00    +0.156 A 
ATOM      6  N   UNK A   0       7.781  -4.242  24.783  0.00  0.00    -0.297 N 
ATOM      7  H   UNK A   0       8.500  -4.693  24.221  0.00  0.00    +0.154 HD
ATOM      8  C   UNK A   0       8.797  -2.201  23.877  0.00  0.00    +0.148 A 
ATOM      9  N   UNK A   0       9.846  -2.680  23.121  0.00  0.00    -0.231 NA
ATOM     10  C   UNK A   0      10.419  -1.602  22.633  0.00  0.00    +0.201 A 
ATOM     11  N   UNK A   0       9.788  -0.452  23.035  0.00  0.00    -0.312 N 
ATOM     12  C   UNK A   0       8.723  -0.821  23.811  0.00  0.00    +0.167 A 
ATOM     13  N   UNK A   0       7.816  -0.033  24.410  0.00  0.00    -0.195 NA
ENDROOT
BRANCH   6  14
ATOM     14  C   UNK A   0       6.629  -5.024  24.984  0.00  0.00    +0.036 A 
ATOM     15  C   UNK A   0       6.466  -5.706  26.196  0.00  0.00    +0.046 A 
ATOM     16  C   UNK A   0       5.299  -6.430  26.472  0.00  0.00    +0.028 A 
ATOM     17  C   UNK A   0       4.349  -6.585  25.461  0.00  0.00    +0.042 A 
ATOM     18  C   UNK A   0       4.515  -5.936  24.240  0.00  0.00    +0.044 A 
ATOM     19 CL   UNK A   0       3.324  -6.112  23.009  0.00  0.00    -0.083 Cl
ATOM     20  C   UNK A   0       5.639  -5.151  24.004  0.00  0.00    +0.043 A 
BRANCH  16  21
ATOM     21  N   UNK A   0       5.188  -7.165  27.661  0.00  0.00    -0.358 N 
ATOM     22  H   UNK A   0       4.371  -7.768  27.690  0.00  0.00    +0.142 HD
ATOM     23  H   UNK A   0       6.036  -7.665  27.911  0.00  0.00    +0.142 HD
ENDBRANCH  16  21
ENDBRANCH   6  14
BRANCH  11  24
ATOM     24  C   UNK A   0      10.202   0.912  22.734  0.00  0.00    +0.084 C 
ATOM     25  C   UNK A   0      10.496   1.699  24.011  0.00  0.00    +0.030 C 
ATOM     26  C   UNK A   0       9.169   1.637  21.868  0.00  0.00    +0.030 C 
ENDBRANCH  11  24
BRANCH   1  27
ATOM     27  CA  VAL A   1       5.468  -0.576  27.134  0.00  0.00    +0.101 C 
BRANCH  27  28
ATOM     28  CB  VAL A   1       5.652   0.334  28.386  0.00  0.00    +0.005 C 
ATOM     29  CG2 VAL A   1       4.528   1.360  28.552  0.00  0.00    +0.009 C 
ATOM     30  CG1 VAL A   1       7.011   1.044  28.412  0.00  0.00    +0.009 C 
ENDBRANCH  27  28
BRANCH  27  31
ATOM     31  C   VAL A   1       3.979  -0.824  26.788  0.00  0.00    +0.178 C 
BRANCH  31  32
ATOM     32  O   VAL A   1       3.859  -1.915  25.867  0.00  0.00    -0.393 OA
ATOM     33  H   VAL A   1       2.993  -1.828  25.430  0.00  0.00    +0.209 HD
ENDBRANCH  31  32
ENDBRANCH  27  31
ENDBRANCH   1  27
TORSDOF 7
ENDMDL
MODEL 5
REMARK VINA RESULT:      -6.1      1.649      2.021
REMARK  Name = 
REMARK  11 active torsions:
REMARK  status: ('A' for Active; 'I' for Inactive)
REMARK    1  A    between atoms: CA_2  and  C_3
REMARK    2  A    between atoms: CA_2  and  N_5
REMARK    3  A    between atoms: CA_2  and  CB_27
REMARK    4  A    between atoms: C_3  and  O_4
REMARK    5  A    between atoms: N_12  and  C_13
REMARK    6  A    between atoms: C_13  and  C_14
REMARK    7  A    between atoms: C_13  and  C_15
REMARK    8  A    between atoms: N_17  and  C_18
REMARK    9  A    between atoms: C_23  and  N_24
REMARK   10  A    between atoms: CB_27  and  CG1_28
REMARK   11  A    between atoms: CB_27  and  CG2_29
REMARK                            x       y       z     vdW  Elec       q    Type
REMARK                         _______ _______ _______ _____ _____    ______ ____
ROOT
ATOM      1  N   VAL A   1       7.613   0.466  27.417  0.00  0.00    -0.308 N 
ATOM      2  H   VAL A   1       8.331   0.226  28.093  0.00  0.00    +0.149 HD
ATOM      3  C   UNK A   0       8.083   0.126  26.154  0.00  0.00    +0.219 A 
ATOM      4  N   UNK A   0       8.331   1.103  25.262  0.00  0.00    -0.197 NA
ATOM      5  C   UNK A   0       8.703   0.805  23.987  0.00  0.00    +0.156 A 
ATOM      6  N   UNK A   0       8.967   1.830  23.060  0.00  0.00    -0.297 N 
ATOM      7  H   UNK A   0       9.238   1.455  22.154  0.00  0.00    +0.154 HD
ATOM      8  C   UNK A   0       8.767  -0.548  23.632  0.00  0.00    +0.148 A 
ATOM      9  N   UNK A   0       9.062  -1.183  22.444  0.00  0.00    -0.231 NA
ATOM     10  C   UNK A   0       8.949  -2.463  22.719  0.00  0.00    +0.201 A 
ATOM     11  N   UNK A   0       8.597  -2.684  24.026  0.00  0.00    -0.312 N 
ATOM     12  C   UNK A   0       8.507  -1.462  24.636  0.00  0.00    +0.167 A 
ATOM     13  N   UNK A   0       8.203  -1.191  25.915  0.00  0.00    -0.195 NA
ENDROOT
BRANCH   6  14
ATOM     14  C   UNK A   0       9.512   3.093  23.350  0.00  0.00    +0.036 A 
ATOM     15  C   UNK A   0       8.663   4.132  23.753  0.00  0.00    +0.046 A 
ATOM     16  C   UNK A   0       9.169   5.382  24.130  0.00  0.00    +0.028 A 
ATOM     17  C   UNK A   0      10.532   5.633  23.963  0.00  0.00    +0.042 A 
ATOM     18  C   UNK A   0      11.383   4.617  23.534  0.00  0.00    +0.044 A 
ATOM     19 CL   UNK A   0      13.067   4.930  23.356  0.00  0.00    -0.083 Cl
ATOM     20  C   UNK A   0      10.883   3.353  23.240  0.00  0.00    +0.043 A 
BRANCH  16  21
ATOM     21  N   UNK A   0       8.296   6.428  24.459  0.00  0.00    -0.358 N 
ATOM     22  H   UNK A   0       7.317   6.160  24.443  0.00  0.00    +0.142 HD
ATOM     23  H   UNK A   0       8.543   6.909  25.320  0.00  0.00    +0.142 HD
ENDBRANCH  16  21
ENDBRANCH   6  14
BRANCH  11  24
ATOM     24  C   UNK A   0       8.323  -3.976  24.642  0.00  0.00    +0.084 C 
ATOM     25  C   UNK A   0       9.601  -4.616  25.182  0.00  0.00    +0.030 C 
ATOM     26  C   UNK A   0       7.601  -4.920  23.678  0.00  0.00    +0.030 C 
ENDBRANCH  11  24
BRANCH   1  27
ATOM     27  CA  VAL A   1       7.067   1.820  27.610  0.00  0.00    +0.101 C 
BRANCH  27  28
ATOM     28  CB  VAL A   1       5.617   1.880  27.042  0.00  0.00    +0.005 C 
ATOM     29  CG2 VAL A   1       5.386   3.074  26.111  0.00  0.00    +0.009 C 
ATOM     30  CG1 VAL A   1       4.546   1.861  28.139  0.00  0.00    +0.009 C 
ENDBRANCH  27  28
BRANCH  27  31
ATOM     31  C   VAL A   1       7.132   2.156  29.121  0.00  0.00    +0.178 C 
BRANCH  31  32
ATOM     32  O   VAL A   1       7.482   3.533  29.308  0.00  0.00    -0.393 OA
ATOM     33  H   VAL A   1       7.473   3.953  28.430  0.00  0.00    +0.209 HD
ENDBRANCH  31  32
ENDBRANCH  27  31
ENDBRANCH   1  27
TORSDOF 7
ENDMDL
MODEL 6
REMARK VINA RESULT:      -6.0      3.598      7.648
REMARK  Name = 
REMARK  11 active torsions:
REMARK  status: ('A' for Active; 'I' for Inactive)
REMARK    1  A    between atoms: CA_2  and  C_3
REMARK    2  A    between atoms: CA_2  and  N_5
REMARK    3  A    between atoms: CA_2  and  CB_27
REMARK    4  A    between atoms: C_3  and  O_4
REMARK    5  A    between atoms: N_12  and  C_13
REMARK    6  A    between atoms: C_13  and  C_14
REMARK    7  A    between atoms: C_13  and  C_15
REMARK    8  A    between atoms: N_17  and  C_18
REMARK    9  A    between atoms: C_23  and  N_24
REMARK   10  A    between atoms: CB_27  and  CG1_28
REMARK   11  A    between atoms: CB_27  and  CG2_29
REMARK                            x       y       z     vdW  Elec       q    Type
REMARK                         _______ _______ _______ _____ _____    ______ ____
ROOT
ATOM      1  N   VAL A   1       8.576   1.401  25.527  0.00  0.00    -0.308 N 
ATOM      2  H   VAL A   1       9.151   1.397  26.364  0.00  0.00    +0.149 HD
ATOM      3  C   UNK A   0       7.353   0.823  25.844  0.00  0.00    +0.219 A 
ATOM      4  N   UNK A   0       7.017  -0.352  25.280  0.00  0.00    -0.197 NA
ATOM      5  C   UNK A   0       5.791  -0.904  25.493  0.00  0.00    +0.156 A 
ATOM      6  N   UNK A   0       5.447  -2.134  24.905  0.00  0.00    -0.297 N 
ATOM      7  H   UNK A   0       4.504  -2.420  25.160  0.00  0.00    +0.154 HD
ATOM      8  C   UNK A   0       4.884  -0.179  26.276  0.00  0.00    +0.148 A 
ATOM      9  N   UNK A   0       3.578  -0.421  26.648  0.00  0.00    -0.231 NA
ATOM     10  C   UNK A   0       3.245   0.622  27.375  0.00  0.00    +0.201 A 
ATOM     11  N   UNK A   0       4.273   1.524  27.492  0.00  0.00    -0.312 N 
ATOM     12  C   UNK A   0       5.346   1.008  26.816  0.00  0.00    +0.167 A 
ATOM     13  N   UNK A   0       6.571   1.536  26.673  0.00  0.00    -0.195 NA
ENDROOT
BRANCH   6  14
ATOM     14  C   UNK A   0       6.323  -3.201  24.637  0.00  0.00    +0.036 A 
ATOM     15  C   UNK A   0       7.216  -3.622  25.632  0.00  0.00    +0.046 A 
ATOM     16  C   UNK A   0       8.049  -4.732  25.439  0.00  0.00    +0.028 A 
ATOM     17  C   UNK A   0       8.085  -5.336  24.181  0.00  0.00    +0.042 A 
ATOM     18  C   UNK A   0       7.223  -4.906  23.175  0.00  0.00    +0.044 A 
ATOM     19 CL   UNK A   0       7.256  -5.675  21.635  0.00  0.00    -0.083 Cl
ATOM     20  C   UNK A   0       6.340  -3.855  23.401  0.00  0.00    +0.043 A 
BRANCH  16  21
ATOM     21  N   UNK A   0       8.986  -5.090  26.419  0.00  0.00    -0.358 N 
ATOM     22  H   UNK A   0       9.204  -4.338  27.066  0.00  0.00    +0.142 HD
ATOM     23  H   UNK A   0       8.759  -5.954  26.903  0.00  0.00    +0.142 HD
ENDBRANCH  16  21
ENDBRANCH   6  14
BRANCH  11  24
ATOM     24  C   UNK A   0       4.221   2.813  28.168  0.00  0.00    +0.084 C 
ATOM     25  C   UNK A   0       4.512   2.669  29.662  0.00  0.00    +0.030 C 
ATOM     26  C   UNK A   0       2.883   3.519  27.936  0.00  0.00    +0.030 C 
ENDBRANCH  11  24
BRANCH   1  27
ATOM     27  CA  VAL A   1       9.286   0.907  24.336  0.00  0.00    +0.101 C 
BRANCH  27  28
ATOM     28  CB  VAL A   1       9.952   2.106  23.596  0.00  0.00    +0.005 C 
ATOM     29  CG2 VAL A   1       9.267   3.445  23.884  0.00  0.00    +0.009 C 
ATOM     30  CG1 VAL A   1      10.053   1.890  22.081  0.00  0.00    +0.009 C 
ENDBRANCH  27  28
BRANCH  27  31
ATOM     31  C   VAL A   1      10.313  -0.159  24.793  0.00  0.00    +0.178 C 
BRANCH  31  32
ATOM     32  O   VAL A   1       9.847  -1.471  24.457  0.00  0.00    -0.393 OA
ATOM     33  H   VAL A   1       9.503  -1.430  23.547  0.00  0.00    +0.209 HD
ENDBRANCH  31  32
ENDBRANCH  27  31
ENDBRANCH   1  27
TORSDOF 7
ENDMDL
MODEL 7
REMARK VINA RESULT:      -6.0      6.188      8.788
REMARK  Name = 
REMARK  11 active torsions:
REMARK  status: ('A' for Active; 'I' for Inactive)
REMARK    1  A    between atoms: CA_2  and  C_3
REMARK    2  A    between atoms: CA_2  and  N_5
REMARK    3  A    between atoms: CA_2  and  CB_27
REMARK    4  A    between atoms: C_3  and  O_4
REMARK    5  A    between atoms: N_12  and  C_13
REMARK    6  A    between atoms: C_13  and  C_14
REMARK    7  A    between atoms: C_13  and  C_15
REMARK    8  A    between atoms: N_17  and  C_18
REMARK    9  A    between atoms: C_23  and  N_24
REMARK   10  A    between atoms: CB_27  and  CG1_28
REMARK   11  A    between atoms: CB_27  and  CG2_29
REMARK                            x       y       z     vdW  Elec       q    Type
REMARK                         _______ _______ _______ _____ _____    ______ ____
ROOT
ATOM      1  N   VAL A   1       4.602  -6.970  27.767  0.00  0.00    -0.308 N 
ATOM      2  H   VAL A   1       5.000  -7.904  27.812  0.00  0.00    +0.149 HD
ATOM      3  C   UNK A   0       4.361  -6.671  26.432  0.00  0.00    +0.219 A 
ATOM      4  N   UNK A   0       5.068  -5.689  25.842  0.00  0.00    -0.197 NA
ATOM      5  C   UNK A   0       4.797  -5.305  24.565  0.00  0.00    +0.156 A 
ATOM      6  N   UNK A   0       5.543  -4.282  23.952  0.00  0.00    -0.297 N 
ATOM      7  H   UNK A   0       5.229  -4.110  22.999  0.00  0.00    +0.154 HD
ATOM      8  C   UNK A   0       3.727  -5.932  23.915  0.00  0.00    +0.148 A 
ATOM      9  N   UNK A   0       3.170  -5.759  22.665  0.00  0.00    -0.231 NA
ATOM     10  C   UNK A   0       2.182  -6.625  22.623  0.00  0.00    +0.201 A 
ATOM     11  N   UNK A   0       2.076  -7.349  23.784  0.00  0.00    -0.312 N 
ATOM     12  C   UNK A   0       3.084  -6.937  24.614  0.00  0.00    +0.167 A 
ATOM     13  N   UNK A   0       3.378  -7.377  25.848  0.00  0.00    -0.195 NA
ENDROOT
BRANCH   6  14
ATOM     14  C   UNK A   0       6.902  -3.996  24.174  0.00  0.00    +0.036 A 
ATOM     15  C   UNK A   0       7.727  -4.980  24.735  0.00  0.00    +0.046 A 
ATOM     16  C   UNK A   0       9.102  -4.769  24.899  0.00  0.00    +0.028 A 
ATOM     17  C   UNK A   0       9.625  -3.503  24.627  0.00  0.00    +0.042 A 
ATOM     18  C   UNK A   0       8.808  -2.507  24.098  0.00  0.00    +0.044 A 
ATOM     19 CL   UNK A   0       9.469  -0.958  23.742  0.00  0.00    -0.083 Cl
ATOM     20  C   UNK A   0       7.459  -2.752  23.861  0.00  0.00    +0.043 A 
BRANCH  16  21
ATOM     21  N   UNK A   0       9.896  -5.738  25.529  0.00  0.00    -0.358 N 
ATOM     22  H   UNK A   0      10.844  -5.426  25.716  0.00  0.00    +0.142 HD
ATOM     23  H   UNK A   0       9.462  -6.146  26.351  0.00  0.00    +0.142 HD
ENDBRANCH  16  21
ENDBRANCH   6  14
BRANCH  11  24
ATOM     24  C   UNK A   0       1.054  -8.339  24.096  0.00  0.00    +0.084 C 
ATOM     25  C   UNK A   0       1.602  -9.433  25.013  0.00  0.00    +0.030 C 
ATOM     26  C   UNK A   0       0.443  -8.940  22.828  0.00  0.00    +0.030 C 
ENDBRANCH  11  24
BRANCH   1  27
ATOM     27  CA  VAL A   1       5.344  -5.987  28.574  0.00  0.00    +0.101 C 
BRANCH  27  28
ATOM     28  CB  VAL A   1       4.556  -5.695  29.887  0.00  0.00    +0.005 C 
ATOM     29  CG2 VAL A   1       3.306  -6.564  30.043  0.00  0.00    +0.009 C 
ATOM     30  CG1 VAL A   1       4.184  -4.215  30.042  0.00  0.00    +0.009 C 
ENDBRANCH  27  28
BRANCH  27  31
ATOM     31  C   VAL A   1       6.762  -6.551  28.840  0.00  0.00    +0.178 C 
BRANCH  31  32
ATOM     32  O   VAL A   1       7.670  -6.105  27.826  0.00  0.00    -0.393 OA
ATOM     33  H   VAL A   1       7.823  -5.155  27.975  0.00  0.00    +0.209 HD
ENDBRANCH  31  32
ENDBRANCH  27  31
ENDBRANCH   1  27
TORSDOF 7
ENDMDL
MODEL 8
REMARK VINA RESULT:      -6.0      3.390      7.322
REMARK  Name = 
REMARK  11 active torsions:
REMARK  status: ('A' for Active; 'I' for Inactive)
REMARK    1  A    between atoms: CA_2  and  C_3
REMARK    2  A    between atoms: CA_2  and  N_5
REMARK    3  A    between atoms: CA_2  and  CB_27
REMARK    4  A    between atoms: C_3  and  O_4
REMARK    5  A    between atoms: N_12  and  C_13
REMARK    6  A    between atoms: C_13  and  C_14
REMARK    7  A    between atoms: C_13  and  C_15
REMARK    8  A    between atoms: N_17  and  C_18
REMARK    9  A    between atoms: C_23  and  N_24
REMARK   10  A    between atoms: CB_27  and  CG1_28
REMARK   11  A    between atoms: CB_27  and  CG2_29
REMARK                            x       y       z     vdW  Elec       q    Type
REMARK                         _______ _______ _______ _____ _____    ______ ____
ROOT
ATOM      1  N   VAL A   1       8.469   1.022  23.860  0.00  0.00    -0.308 N 
ATOM      2  H   VAL A   1       8.569   0.812  24.849  0.00  0.00    +0.149 HD
ATOM      3  C   UNK A   0       8.306   2.395  23.728  0.00  0.00    +0.219 A 
ATOM      4  N   UNK A   0       7.131   2.875  23.281  0.00  0.00    -0.197 NA
ATOM      5  C   UNK A   0       6.964   4.207  23.050  0.00  0.00    +0.156 A 
ATOM      6  N   UNK A   0       5.732   4.704  22.588  0.00  0.00    -0.297 N 
ATOM      7  H   UNK A   0       5.757   5.714  22.468  0.00  0.00    +0.154 HD
ATOM      8  C   UNK A   0       8.072   5.041  23.247  0.00  0.00    +0.148 A 
ATOM      9  N   UNK A   0       8.256   6.396  23.071  0.00  0.00    -0.231 NA
ATOM     10  C   UNK A   0       9.510   6.602  23.405  0.00  0.00    +0.201 A 
ATOM     11  N   UNK A   0      10.143   5.447  23.790  0.00  0.00    -0.312 N 
ATOM     12  C   UNK A   0       9.221   4.437  23.723  0.00  0.00    +0.167 A 
ATOM     13  N   UNK A   0       9.387   3.138  24.020  0.00  0.00    -0.195 NA
ENDROOT
BRANCH   6  14
ATOM     14  C   UNK A   0       4.459   4.190  22.896  0.00  0.00    +0.036 A 
ATOM     15  C   UNK A   0       4.010   4.219  24.222  0.00  0.00    +0.046 A 
ATOM     16  C   UNK A   0       2.719   3.794  24.563  0.00  0.00    +0.028 A 
ATOM     17  C   UNK A   0       1.926   3.201  23.579  0.00  0.00    +0.042 A 
ATOM     18  C   UNK A   0       2.374   3.139  22.262  0.00  0.00    +0.044 A 
ATOM     19 CL   UNK A   0       1.376   2.429  21.052  0.00  0.00    -0.083 Cl
ATOM     20  C   UNK A   0       3.626   3.638  21.917  0.00  0.00    +0.043 A 
BRANCH  16  21
ATOM     21  N   UNK A   0       2.317   3.763  25.905  0.00  0.00    -0.358 N 
ATOM     22  H   UNK A   0       1.579   4.426  26.122  0.00  0.00    +0.142 HD
ATOM     23  H   UNK A   0       2.100   2.830  26.243  0.00  0.00    +0.142 HD
ENDBRANCH  16  21
ENDBRANCH   6  14
BRANCH  11  24
ATOM     24  C   UNK A   0      11.546   5.309  24.155  0.00  0.00    +0.084 C 
ATOM     25  C   UNK A   0      12.061   6.561  24.864  0.00  0.00    +0.030 C 
ATOM     26  C   UNK A   0      12.415   4.968  22.942  0.00  0.00    +0.030 C 
ENDBRANCH  11  24
BRANCH   1  27
ATOM     27  CA  VAL A   1       7.506   0.141  23.178  0.00  0.00    +0.101 C 
BRANCH  27  28
ATOM     28  CB  VAL A   1       8.274  -1.009  22.460  0.00  0.00    +0.005 C 
ATOM     29  CG2 VAL A   1       8.860  -2.037  23.432  0.00  0.00    +0.009 C 
ATOM     30  CG1 VAL A   1       9.372  -0.497  21.520  0.00  0.00    +0.009 C 
ENDBRANCH  27  28
BRANCH  27  31
ATOM     31  C   VAL A   1       6.496  -0.379  24.232  0.00  0.00    +0.178 C 
BRANCH  31  32
ATOM     32  O   VAL A   1       5.394   0.527  24.352  0.00  0.00    -0.393 OA
ATOM     33  H   VAL A   1       4.846   0.216  25.094  0.00  0.00    +0.209 HD
ENDBRANCH  31  32
ENDBRANCH  27  31
ENDBRANCH   1  27
TORSDOF 7
ENDMDL
MODEL 9
REMARK VINA RESULT:      -5.8      4.098      8.156
REMARK  Name = 
REMARK  11 active torsions:
REMARK  status: ('A' for Active; 'I' for Inactive)
REMARK    1  A    between atoms: CA_2  and  C_3
REMARK    2  A    between atoms: CA_2  and  N_5
REMARK    3  A    between atoms: CA_2  and  CB_27
REMARK    4  A    between atoms: C_3  and  O_4
REMARK    5  A    between atoms: N_12  and  C_13
REMARK    6  A    between atoms: C_13  and  C_14
REMARK    7  A    between atoms: C_13  and  C_15
REMARK    8  A    between atoms: N_17  and  C_18
REMARK    9  A    between atoms: C_23  and  N_24
REMARK   10  A    between atoms: CB_27  and  CG1_28
REMARK   11  A    between atoms: CB_27  and  CG2_29
REMARK                            x       y       z     vdW  Elec       q    Type
REMARK                         _______ _______ _______ _____ _____    ______ ____
ROOT
ATOM      1  N   VAL A   1       8.586  -3.126  23.937  0.00  0.00    -0.308 N 
ATOM      2  H   VAL A   1       9.389  -3.359  24.515  0.00  0.00    +0.149 HD
ATOM      3  C   UNK A   0       8.112  -1.884  24.341  0.00  0.00    +0.219 A 
ATOM      4  N   UNK A   0       6.898  -1.802  24.916  0.00  0.00    -0.197 NA
ATOM      5  C   UNK A   0       6.361  -0.594  25.242  0.00  0.00    +0.156 A 
ATOM      6  N   UNK A   0       5.095  -0.514  25.848  0.00  0.00    -0.297 N 
ATOM      7  H   UNK A   0       4.830   0.451  26.036  0.00  0.00    +0.154 HD
ATOM      8  C   UNK A   0       7.096   0.551  24.909  0.00  0.00    +0.148 A 
ATOM      9  N   UNK A   0       6.834   1.897  25.055  0.00  0.00    -0.231 NA
ATOM     10  C   UNK A   0       7.889   2.493  24.546  0.00  0.00    +0.201 A 
ATOM     11  N   UNK A   0       8.818   1.598  24.081  0.00  0.00    -0.312 N 
ATOM     12  C   UNK A   0       8.337   0.342  24.336  0.00  0.00    +0.167 A 
ATOM     13  N   UNK A   0       8.913  -0.841  24.068  0.00  0.00    -0.195 NA
ENDROOT
BRANCH   6  14
ATOM     14  C   UNK A   0       4.537  -1.451  26.736  0.00  0.00    +0.036 A 
ATOM     15  C   UNK A   0       4.600  -1.210  28.115  0.00  0.00    +0.046 A 
ATOM     16  C   UNK A   0       3.987  -2.073  29.033  0.00  0.00    +0.028 A 
ATOM     17  C   UNK A   0       3.428  -3.264  28.566  0.00  0.00    +0.042 A 
ATOM     18  C   UNK A   0       3.386  -3.529  27.199  0.00  0.00    +0.044 A 
ATOM     19 CL   UNK A   0       2.671  -4.989  26.632  0.00  0.00    -0.083 Cl
ATOM     20  C   UNK A   0       3.925  -2.626  26.288  0.00  0.00    +0.043 A 
BRANCH  16  21
ATOM     21  N   UNK A   0       4.125  -1.853  30.411  0.00  0.00    -0.358 N 
ATOM     22  H   UNK A   0       3.281  -2.053  30.940  0.00  0.00    +0.142 HD
ATOM     23  H   UNK A   0       4.941  -2.304  30.815  0.00  0.00    +0.142 HD
ENDBRANCH  16  21
ENDBRANCH   6  14
BRANCH  11  24
ATOM     24  C   UNK A   0      10.065   1.920  23.399  0.00  0.00    +0.084 C 
ATOM     25  C   UNK A   0      10.475   3.371  23.648  0.00  0.00    +0.030 C 
ATOM     26  C   UNK A   0       9.982   1.622  21.900  0.00  0.00    +0.030 C 
ENDBRANCH  11  24
BRANCH   1  27
ATOM     27  CA  VAL A   1       7.620  -4.231  23.819  0.00  0.00    +0.101 C 
BRANCH  27  28
ATOM     28  CB  VAL A   1       7.346  -4.520  22.311  0.00  0.00    +0.005 C 
ATOM     29  CG2 VAL A   1       6.151  -3.741  21.758  0.00  0.00    +0.009 C 
ATOM     30  CG1 VAL A   1       7.175  -6.015  22.013  0.00  0.00    +0.009 C 
ENDBRANCH  27  28
BRANCH  27  31
ATOM     31  C   VAL A   1       8.194  -5.458  24.569  0.00  0.00    +0.178 C 
BRANCH  31  32
ATOM     32  O   VAL A   1       9.625  -5.408  24.578  0.00  0.00    -0.393 OA
ATOM     33  H   VAL A   1       9.913  -5.585  25.491  0.00  0.00    +0.209 HD
ENDBRANCH  31  32
ENDBRANCH  27  31
ENDBRANCH   1  27
TORSDOF 7
ENDMDL
