MODEL 1
REMARK VINA RESULT:      -4.8      0.000      0.000
REMARK  Name = 
REMARK  7 active torsions:
REMARK  status: ('A' for Active; 'I' for Inactive)
REMARK    1  A    between atoms: C_1  and  S_2
REMARK    2  A    between atoms: S_2  and  C_3
REMARK    3  A    between atoms: C_5  and  C_7
REMARK    4  A    between atoms: C_7  and  O_8
REMARK    5  A    between atoms: C_10  and  O_12
REMARK    6  A    between atoms: C_13  and  O_15
REMARK    7  A    between atoms: C_16  and  O_18
REMARK                            x       y       z     vdW  Elec       q    Type
REMARK                         _______ _______ _______ _____ _____    ______ ____
ROOT
ATOM      1  C   UNL     1       7.768  -2.483  25.104  0.00  0.00    +0.108 C 
ATOM      2  C   UNL     1       7.332  -3.684  25.963  0.00  0.00    +0.163 C 
ATOM      3  C   UNL     1       8.522  -4.555  26.371  0.00  0.00    +0.200 C 
ATOM      4  C   UNL     1       9.382  -4.902  25.143  0.00  0.00    +0.279 C 
ATOM      5  O   UNL     1       9.785  -3.746  24.423  0.00  0.00    -0.342 OA
ATOM      6  C   UNL     1       8.639  -3.012  23.932  0.00  0.00    +0.162 C 
ENDROOT
BRANCH   1   8
ATOM      7  C   UNL     1       7.728   0.276  25.687  0.00  0.00    +0.085 C 
ATOM      8  S   UNL     1       8.668  -1.213  26.112  0.00  0.00    -0.155 S 
ENDBRANCH   1   8
BRANCH   2   9
ATOM      9  O   UNL     1       6.402  -4.482  25.211  0.00  0.00    -0.388 OA
ATOM     10  H   UNL     1       5.921  -5.014  25.882  0.00  0.00    +0.210 HD
ENDBRANCH   2   9
BRANCH   3  11
ATOM     11  O   UNL     1       8.028  -5.749  27.001  0.00  0.00    -0.384 OA
ATOM     12  H   UNL     1       7.359  -6.113  26.386  0.00  0.00    +0.210 HD
ENDBRANCH   3  11
BRANCH   4  13
ATOM     13  O   UNL     1      10.551  -5.582  25.583  0.00  0.00    -0.365 OA
ATOM     14  H   UNL     1      11.263  -4.922  25.500  0.00  0.00    +0.213 HD
ENDBRANCH   4  13
BRANCH   6  15
ATOM     15  C   UNL     1       9.140  -1.918  22.981  0.00  0.00    +0.188 C 
BRANCH  15  16
ATOM     16  O   UNL     1      10.487  -2.203  22.591  0.00  0.00    -0.392 OA
ATOM     17  H   UNL     1      10.664  -1.623  21.825  0.00  0.00    +0.210 HD
ENDBRANCH  15  16
ENDBRANCH   6  15
TORSDOF 6
ENDMDL
MODEL 2
REMARK VINA RESULT:      -4.7      2.386      2.661
REMARK  Name = 
REMARK  7 active torsions:
REMARK  status: ('A' for Active; 'I' for Inactive)
REMARK    1  A    between atoms: C_1  and  S_2
REMARK    2  A    between atoms: S_2  and  C_3
REMARK    3  A    between atoms: C_5  and  C_7
REMARK    4  A    between atoms: C_7  and  O_8
REMARK    5  A    between atoms: C_10  and  O_12
REMARK    6  A    between atoms: C_13  and  O_15
REMARK    7  A    between atoms: C_16  and  O_18
REMARK                            x       y       z     vdW  Elec       q    Type
REMARK                         _______ _______ _______ _____ _____    ______ ____
ROOT
ATOM      1  C   UNL     1       6.258  -4.462  24.469  0.00  0.00    +0.108 C 
ATOM      2  C   UNL     1       6.507  -5.023  25.880  0.00  0.00    +0.163 C 
ATOM      3  C   UNL     1       7.997  -5.041  26.231  0.00  0.00    +0.200 C 
ATOM      4  C   UNL     1       8.808  -5.705  25.105  0.00  0.00    +0.279 C 
ATOM      5  O   UNL     1       8.562  -5.110  23.840  0.00  0.00    -0.342 OA
ATOM      6  C   UNL     1       7.168  -5.227  23.471  0.00  0.00    +0.162 C 
ENDROOT
BRANCH   1   8
ATOM      7  C   UNL     1       5.311  -2.054  25.593  0.00  0.00    +0.085 C 
ATOM      8  S   UNL     1       6.547  -2.631  24.401  0.00  0.00    -0.155 S 
ENDBRANCH   1   8
BRANCH   2   9
ATOM      9  O   UNL     1       5.994  -6.365  25.947  0.00  0.00    -0.388 OA
ATOM     10  H   UNL     1       5.344  -6.354  26.682  0.00  0.00    +0.210 HD
ENDBRANCH   2   9
BRANCH   3  11
ATOM     11  O   UNL     1       8.173  -5.747  27.471  0.00  0.00    -0.384 OA
ATOM     12  H   UNL     1       7.269  -5.923  27.803  0.00  0.00    +0.210 HD
ENDBRANCH   3  11
BRANCH   4  13
ATOM     13  O   UNL     1      10.193  -5.568  25.399  0.00  0.00    -0.365 OA
ATOM     14  H   UNL     1      10.635  -5.654  24.536  0.00  0.00    +0.213 HD
ENDBRANCH   4  13
BRANCH   6  15
ATOM     15  C   UNL     1       7.017  -4.775  22.013  0.00  0.00    +0.188 C 
BRANCH  15  16
ATOM     16  O   UNL     1       5.643  -4.866  21.623  0.00  0.00    -0.392 OA
ATOM     17  H   UNL     1       5.253  -5.548  22.204  0.00  0.00    +0.210 HD
ENDBRANCH  15  16
ENDBRANCH   6  15
TORSDOF 6
ENDMDL
MODEL 3
REMARK VINA RESULT:      -4.6      2.251      4.152
REMARK  Name = 
REMARK  7 active torsions:
REMARK  status: ('A' for Active; 'I' for Inactive)
REMARK    1  A    between atoms: C_1  and  S_2
REMARK    2  A    between atoms: S_2  and  C_3
REMARK    3  A    between atoms: C_5  and  C_7
REMARK    4  A    between atoms: C_7  and  O_8
REMARK    5  A    between atoms: C_10  and  O_12
REMARK    6  A    between atoms: C_13  and  O_15
REMARK    7  A    between atoms: C_16  and  O_18
REMARK                            x       y       z     vdW  Elec       q    Type
REMARK                         _______ _______ _______ _____ _____    ______ ____
ROOT
ATOM      1  C   UNL     1       7.531  -3.727  24.376  0.00  0.00    +0.108 C 
ATOM      2  C   UNL     1       7.295  -2.396  23.639  0.00  0.00    +0.163 C 
ATOM      3  C   UNL     1       8.468  -2.037  22.723  0.00  0.00    +0.200 C 
ATOM      4  C   UNL     1       9.800  -2.140  23.488  0.00  0.00    +0.279 C 
ATOM      5  O   UNL     1       9.970  -3.407  24.105  0.00  0.00    -0.342 OA
ATOM      6  C   UNL     1       8.920  -3.664  25.067  0.00  0.00    +0.162 C 
ENDROOT
BRANCH   1   8
ATOM      7  C   UNL     1       5.879  -4.757  22.335  0.00  0.00    +0.085 C 
ATOM      8  S   UNL     1       7.398  -5.177  23.227  0.00  0.00    -0.155 S 
ENDBRANCH   1   8
BRANCH   2   9
ATOM      9  O   UNL     1       7.120  -1.350  24.609  0.00  0.00    -0.388 OA
ATOM     10  H   UNL     1       7.386  -1.748  25.466  0.00  0.00    +0.210 HD
ENDBRANCH   2   9
BRANCH   3  11
ATOM     11  O   UNL     1       8.271  -0.705  22.219  0.00  0.00    -0.384 OA
ATOM     12  H   UNL     1       8.166  -0.804  21.251  0.00  0.00    +0.210 HD
ENDBRANCH   3  11
BRANCH   4  13
ATOM     13  O   UNL     1      10.868  -1.945  22.569  0.00  0.00    -0.365 OA
ATOM     14  H   UNL     1      11.390  -1.219  22.953  0.00  0.00    +0.213 HD
ENDBRANCH   4  13
BRANCH   6  15
ATOM     15  C   UNL     1       9.287  -4.929  25.852  0.00  0.00    +0.188 C 
BRANCH  15  16
ATOM     16  O   UNL     1      10.479  -5.502  25.308  0.00  0.00    -0.392 OA
ATOM     17  H   UNL     1      11.216  -5.044  25.757  0.00  0.00    +0.210 HD
ENDBRANCH  15  16
ENDBRANCH   6  15
TORSDOF 6
ENDMDL
MODEL 4
REMARK VINA RESULT:      -4.4      4.114      6.709
REMARK  Name = 
REMARK  7 active torsions:
REMARK  status: ('A' for Active; 'I' for Inactive)
REMARK    1  A    between atoms: C_1  and  S_2
REMARK    2  A    between atoms: S_2  and  C_3
REMARK    3  A    between atoms: C_5  and  C_7
REMARK    4  A    between atoms: C_7  and  O_8
REMARK    5  A    between atoms: C_10  and  O_12
REMARK    6  A    between atoms: C_13  and  O_15
REMARK    7  A    between atoms: C_16  and  O_18
REMARK                            x       y       z     vdW  Elec       q    Type
REMARK                         _______ _______ _______ _____ _____    ______ ____
ROOT
ATOM      1  C   UNL     1       9.083   0.515  23.092  0.00  0.00    +0.108 C 
ATOM      2  C   UNL     1      10.098   1.569  22.614  0.00  0.00    +0.163 C 
ATOM      3  C   UNL     1      10.210   2.739  23.595  0.00  0.00    +0.200 C 
ATOM      4  C   UNL     1       8.814   3.281  23.948  0.00  0.00    +0.279 C 
ATOM      5  O   UNL     1       7.945   2.264  24.423  0.00  0.00    -0.342 OA
ATOM      6  C   UNL     1       7.749   1.237  23.423  0.00  0.00    +0.162 C 
ENDROOT
BRANCH   1   8
ATOM      7  C   UNL     1       9.838  -2.101  23.825  0.00  0.00    +0.085 C 
ATOM      8  S   UNL     1       9.726  -0.443  24.544  0.00  0.00    -0.155 S 
ENDBRANCH   1   8
BRANCH   2   9
ATOM      9  O   UNL     1       9.682   2.070  21.332  0.00  0.00    -0.388 OA
ATOM     10  H   UNL     1       9.690   1.289  20.738  0.00  0.00    +0.210 HD
ENDBRANCH   2   9
BRANCH   3  11
ATOM     11  O   UNL     1      11.021   3.766  23.001  0.00  0.00    -0.384 OA
ATOM     12  H   UNL     1      10.824   4.581  23.507  0.00  0.00    +0.210 HD
ENDBRANCH   3  11
BRANCH   4  13
ATOM     13  O   UNL     1       8.951   4.261  24.969  0.00  0.00    -0.365 OA
ATOM     14  H   UNL     1       9.395   3.794  25.699  0.00  0.00    +0.213 HD
ENDBRANCH   4  13
BRANCH   6  15
ATOM     15  C   UNL     1       6.634   0.301  23.907  0.00  0.00    +0.188 C 
BRANCH  15  16
ATOM     16  O   UNL     1       6.399  -0.712  22.924  0.00  0.00    -0.392 OA
ATOM     17  H   UNL     1       5.443  -0.909  22.978  0.00  0.00    +0.210 HD
ENDBRANCH  15  16
ENDBRANCH   6  15
TORSDOF 6
ENDMDL
MODEL 5
REMARK VINA RESULT:      -4.4      2.835      5.508
REMARK  Name = 
REMARK  7 active torsions:
REMARK  status: ('A' for Active; 'I' for Inactive)
REMARK    1  A    between atoms: C_1  and  S_2
REMARK    2  A    between atoms: S_2  and  C_3
REMARK    3  A    between atoms: C_5  and  C_7
REMARK    4  A    between atoms: C_7  and  O_8
REMARK    5  A    between atoms: C_10  and  O_12
REMARK    6  A    between atoms: C_13  and  O_15
REMARK    7  A    between atoms: C_16  and  O_18
REMARK                            x       y       z     vdW  Elec       q    Type
REMARK                         _______ _______ _______ _____ _____    ______ ____
ROOT
ATOM      1  C   UNL     1       9.513  -0.226  24.732  0.00  0.00    +0.108 C 
ATOM      2  C   UNL     1      10.122   1.157  24.442  0.00  0.00    +0.163 C 
ATOM      3  C   UNL     1       9.542   1.780  23.170  0.00  0.00    +0.200 C 
ATOM      4  C   UNL     1       9.600   0.777  22.004  0.00  0.00    +0.279 C 
ATOM      5  O   UNL     1       8.982  -0.459  22.326  0.00  0.00    -0.342 OA
ATOM      6  C   UNL     1       9.637  -1.093  23.450  0.00  0.00    +0.162 C 
ENDROOT
BRANCH   1   8
ATOM      7  C   UNL     1       7.949  -0.465  27.067  0.00  0.00    +0.085 C 
ATOM      8  S   UNL     1       7.754  -0.092  25.305  0.00  0.00    -0.155 S 
ENDBRANCH   1   8
BRANCH   2   9
ATOM      9  O   UNL     1      11.545   1.018  24.289  0.00  0.00    -0.388 OA
ATOM     10  H   UNL     1      11.931   1.447  25.084  0.00  0.00    +0.210 HD
ENDBRANCH   2   9
BRANCH   3  11
ATOM     11  O   UNL     1      10.284   2.971  22.856  0.00  0.00    -0.384 OA
ATOM     12  H   UNL     1      11.226   2.730  22.971  0.00  0.00    +0.210 HD
ENDBRANCH   3  11
BRANCH   4  13
ATOM     13  O   UNL     1       8.920   1.337  20.888  0.00  0.00    -0.365 OA
ATOM     14  H   UNL     1       8.064   0.874  20.866  0.00  0.00    +0.213 HD
ENDBRANCH   4  13
BRANCH   6  15
ATOM     15  C   UNL     1       9.075  -2.512  23.597  0.00  0.00    +0.188 C 
BRANCH  15  16
ATOM     16  O   UNL     1      10.090  -3.379  24.113  0.00  0.00    -0.392 OA
ATOM     17  H   UNL     1       9.701  -3.788  24.911  0.00  0.00    +0.210 HD
ENDBRANCH  15  16
ENDBRANCH   6  15
TORSDOF 6
ENDMDL
MODEL 6
REMARK VINA RESULT:      -4.4      2.735      4.145
REMARK  Name = 
REMARK  7 active torsions:
REMARK  status: ('A' for Active; 'I' for Inactive)
REMARK    1  A    between atoms: C_1  and  S_2
REMARK    2  A    between atoms: S_2  and  C_3
REMARK    3  A    between atoms: C_5  and  C_7
REMARK    4  A    between atoms: C_7  and  O_8
REMARK    5  A    between atoms: C_10  and  O_12
REMARK    6  A    between atoms: C_13  and  O_15
REMARK    7  A    between atoms: C_16  and  O_18
REMARK                            x       y       z     vdW  Elec       q    Type
REMARK                         _______ _______ _______ _____ _____    ______ ____
ROOT
ATOM      1  C   UNL     1       7.601  -4.266  22.684  0.00  0.00    +0.108 C 
ATOM      2  C   UNL     1       6.418  -5.004  22.033  0.00  0.00    +0.163 C 
ATOM      3  C   UNL     1       5.231  -5.135  22.990  0.00  0.00    +0.200 C 
ATOM      4  C   UNL     1       5.692  -5.697  24.347  0.00  0.00    +0.279 C 
ATOM      5  O   UNL     1       6.755  -4.943  24.909  0.00  0.00    -0.342 OA
ATOM      6  C   UNL     1       7.914  -4.948  24.043  0.00  0.00    +0.162 C 
ENDROOT
BRANCH   1   8
ATOM      7  C   UNL     1       8.714  -1.743  22.095  0.00  0.00    +0.085 C 
ATOM      8  S   UNL     1       7.250  -2.457  22.887  0.00  0.00    -0.155 S 
ENDBRANCH   1   8
BRANCH   2   9
ATOM      9  O   UNL     1       6.847  -6.318  21.637  0.00  0.00    -0.388 OA
ATOM     10  H   UNL     1       7.431  -6.626  22.364  0.00  0.00    +0.210 HD
ENDBRANCH   2   9
BRANCH   3  11
ATOM     11  O   UNL     1       4.244  -5.992  22.392  0.00  0.00    -0.384 OA
ATOM     12  H   UNL     1       4.439  -5.986  21.433  0.00  0.00    +0.210 HD
ENDBRANCH   3  11
BRANCH   4  13
ATOM     13  O   UNL     1       4.595  -5.662  25.251  0.00  0.00    -0.365 OA
ATOM     14  H   UNL     1       4.642  -6.511  25.725  0.00  0.00    +0.213 HD
ENDBRANCH   4  13
BRANCH   6  15
ATOM     15  C   UNL     1       9.087  -4.318  24.805  0.00  0.00    +0.188 C 
BRANCH  15  16
ATOM     16  O   UNL     1      10.138  -5.279  24.945  0.00  0.00    -0.392 OA
ATOM     17  H   UNL     1      10.148  -5.517  25.893  0.00  0.00    +0.210 HD
ENDBRANCH  15  16
ENDBRANCH   6  15
TORSDOF 6
ENDMDL
MODEL 7
REMARK VINA RESULT:      -4.4      3.519      5.715
REMARK  Name = 
REMARK  7 active torsions:
REMARK  status: ('A' for Active; 'I' for Inactive)
REMARK    1  A    between atoms: C_1  and  S_2
REMARK    2  A    between atoms: S_2  and  C_3
REMARK    3  A    between atoms: C_5  and  C_7
REMARK    4  A    between atoms: C_7  and  O_8
REMARK    5  A    between atoms: C_10  and  O_12
REMARK    6  A    between atoms: C_13  and  O_15
REMARK    7  A    between atoms: C_16  and  O_18
REMARK                            x       y       z     vdW  Elec       q    Type
REMARK                         _______ _______ _______ _____ _____    ______ ____
ROOT
ATOM      1  C   UNL     1       8.887   1.239  24.842  0.00  0.00    +0.108 C 
ATOM      2  C   UNL     1       9.517   2.085  23.721  0.00  0.00    +0.163 C 
ATOM      3  C   UNL     1       9.425   1.388  22.361  0.00  0.00    +0.200 C 
ATOM      4  C   UNL     1       9.938  -0.060  22.461  0.00  0.00    +0.279 C 
ATOM      5  O   UNL     1       9.284  -0.793  23.485  0.00  0.00    -0.342 OA
ATOM      6  C   UNL     1       9.500  -0.187  24.781  0.00  0.00    +0.162 C 
ENDROOT
BRANCH   1   8
ATOM      7  C   UNL     1       6.687   2.951  24.412  0.00  0.00    +0.085 C 
ATOM      8  S   UNL     1       7.037   1.199  24.711  0.00  0.00    -0.155 S 
ENDBRANCH   1   8
BRANCH   2   9
ATOM      9  O   UNL     1      10.900   2.320  24.035  0.00  0.00    -0.388 OA
ATOM     10  H   UNL     1      10.899   2.660  24.956  0.00  0.00    +0.210 HD
ENDBRANCH   2   9
BRANCH   3  11
ATOM     11  O   UNL     1      10.194   2.136  21.404  0.00  0.00    -0.384 OA
ATOM     12  H   UNL     1      10.491   2.940  21.877  0.00  0.00    +0.210 HD
ENDBRANCH   3  11
BRANCH   4  13
ATOM     13  O   UNL     1       9.699  -0.714  21.222  0.00  0.00    -0.365 OA
ATOM     14  H   UNL     1      10.543  -1.150  21.009  0.00  0.00    +0.213 HD
ENDBRANCH   4  13
BRANCH   6  15
ATOM     15  C   UNL     1       8.967  -1.144  25.855  0.00  0.00    +0.188 C 
BRANCH  15  16
ATOM     16  O   UNL     1       9.160  -0.567  27.150  0.00  0.00    -0.392 OA
ATOM     17  H   UNL     1       9.968  -0.023  27.074  0.00  0.00    +0.210 HD
ENDBRANCH  15  16
ENDBRANCH   6  15
TORSDOF 6
ENDMDL
MODEL 8
REMARK VINA RESULT:      -4.3      1.952      4.289
REMARK  Name = 
REMARK  7 active torsions:
REMARK  status: ('A' for Active; 'I' for Inactive)
REMARK    1  A    between atoms: C_1  and  S_2
REMARK    2  A    between atoms: S_2  and  C_3
REMARK    3  A    between atoms: C_5  and  C_7
REMARK    4  A    between atoms: C_7  and  O_8
REMARK    5  A    between atoms: C_10  and  O_12
REMARK    6  A    between atoms: C_13  and  O_15
REMARK    7  A    between atoms: C_16  and  O_18
REMARK                            x       y       z     vdW  Elec       q    Type
REMARK                         _______ _______ _______ _____ _____    ______ ____
ROOT
ATOM      1  C   UNL     1       8.504  -1.587  25.212  0.00  0.00    +0.108 C 
ATOM      2  C   UNL     1       8.991  -0.212  24.720  0.00  0.00    +0.163 C 
ATOM      3  C   UNL     1       9.254  -0.208  23.212  0.00  0.00    +0.200 C 
ATOM      4  C   UNL     1      10.141  -1.402  22.815  0.00  0.00    +0.279 C 
ATOM      5  O   UNL     1       9.609  -2.639  23.264  0.00  0.00    -0.342 OA
ATOM      6  C   UNL     1       9.498  -2.667  24.706  0.00  0.00    +0.162 C 
ENDROOT
BRANCH   1   8
ATOM      7  C   UNL     1       5.979  -0.345  25.021  0.00  0.00    +0.085 C 
ATOM      8  S   UNL     1       6.768  -1.935  24.660  0.00  0.00    -0.155 S 
ENDBRANCH   1   8
BRANCH   2   9
ATOM      9  O   UNL     1      10.207   0.127  25.408  0.00  0.00    -0.388 OA
ATOM     10  H   UNL     1       9.927   0.371  26.317  0.00  0.00    +0.210 HD
ENDBRANCH   2   9
BRANCH   3  11
ATOM     11  O   UNL     1       9.882   1.035  22.853  0.00  0.00    -0.384 OA
ATOM     12  H   UNL     1       9.535   1.696  23.486  0.00  0.00    +0.210 HD
ENDBRANCH   3  11
BRANCH   4  13
ATOM     13  O   UNL     1      10.237  -1.447  21.397  0.00  0.00    -0.365 OA
ATOM     14  H   UNL     1      10.021  -0.543  21.109  0.00  0.00    +0.213 HD
ENDBRANCH   4  13
BRANCH   6  15
ATOM     15  C   UNL     1       9.140  -4.096  25.134  0.00  0.00    +0.188 C 
BRANCH  15  16
ATOM     16  O   UNL     1      10.268  -4.953  24.933  0.00  0.00    -0.392 OA
ATOM     17  H   UNL     1      11.014  -4.510  25.384  0.00  0.00    +0.210 HD
ENDBRANCH  15  16
ENDBRANCH   6  15
TORSDOF 6
ENDMDL
MODEL 9
REMARK VINA RESULT:      -4.3      2.239      3.413
REMARK  Name = 
REMARK  7 active torsions:
REMARK  status: ('A' for Active; 'I' for Inactive)
REMARK    1  A    between atoms: C_1  and  S_2
REMARK    2  A    between atoms: S_2  and  C_3
REMARK    3  A    between atoms: C_5  and  C_7
REMARK    4  A    between atoms: C_7  and  O_8
REMARK    5  A    between atoms: C_10  and  O_12
REMARK    6  A    between atoms: C_13  and  O_15
REMARK    7  A    between atoms: C_16  and  O_18
REMARK                            x       y       z     vdW  Elec       q    Type
REMARK                         _______ _______ _______ _____ _____    ______ ____
ROOT
ATOM      1  C   UNL     1       8.210  -4.190  23.425  0.00  0.00    +0.108 C 
ATOM      2  C   UNL     1       8.531  -5.244  24.499  0.00  0.00    +0.163 C 
ATOM      3  C   UNL     1       7.640  -5.087  25.735  0.00  0.00    +0.200 C 
ATOM      4  C   UNL     1       7.645  -3.627  26.221  0.00  0.00    +0.279 C 
ATOM      5  O   UNL     1       7.298  -2.715  25.190  0.00  0.00    -0.342 OA
ATOM      6  C   UNL     1       8.237  -2.788  24.091  0.00  0.00    +0.162 C 
ENDROOT
BRANCH   1   8
ATOM      7  C   UNL     1       6.894  -6.177  21.916  0.00  0.00    +0.085 C 
ATOM      8  S   UNL     1       6.584  -4.529  22.599  0.00  0.00    -0.155 S 
ENDBRANCH   1   8
BRANCH   2   9
ATOM      9  O   UNL     1       9.907  -5.106  24.893  0.00  0.00    -0.388 OA
ATOM     10  H   UNL     1      10.090  -5.887  25.458  0.00  0.00    +0.210 HD
ENDBRANCH   2   9
BRANCH   3  11
ATOM     11  O   UNL     1       8.116  -5.970  26.765  0.00  0.00    -0.384 OA
ATOM     12  H   UNL     1       8.239  -5.406  27.556  0.00  0.00    +0.210 HD
ENDBRANCH   3  11
BRANCH   4  13
ATOM     13  O   UNL     1       6.696  -3.494  27.271  0.00  0.00    -0.365 OA
ATOM     14  H   UNL     1       6.354  -4.395  27.407  0.00  0.00    +0.213 HD
ENDBRANCH   4  13
BRANCH   6  15
ATOM     15  C   UNL     1       7.941  -1.631  23.129  0.00  0.00    +0.188 C 
BRANCH  15  16
ATOM     16  O   UNL     1       8.813  -1.714  21.997  0.00  0.00    -0.392 OA
ATOM     17  H   UNL     1       8.959  -0.791  21.713  0.00  0.00    +0.210 HD
ENDBRANCH  15  16
ENDBRANCH   6  15
TORSDOF 6
ENDMDL
