MODEL 1
REMARK VINA RESULT:      -7.0      0.000      0.000
REMARK  Name = 
REMARK  10 active torsions:
REMARK  status: ('A' for Active; 'I' for Inactive)
REMARK    1  A    between atoms: C_1  and  C_2
REMARK    2  A    between atoms: C_2  and  C_3
REMARK    3  A    between atoms: C_4  and  C_11
REMARK    4  A    between atoms: C_16  and  C_17
REMARK    5  A    between atoms: C_16  and  C_18
REMARK    6  A    between atoms: N_21  and  C_22
REMARK    7  A    between atoms: C_22  and  C_23
REMARK    8  A    between atoms: C_23  and  C_24
REMARK    9  A    between atoms: C_24  and  O_25
REMARK   10  A    between atoms: O_25  and  C_26
REMARK                            x       y       z     vdW  Elec       q    Type
REMARK                         _______ _______ _______ _____ _____    ______ ____
ROOT
ATOM      1  C   UNL     1       8.098  -2.929  24.694  0.00  0.00    -0.011 A 
ATOM      2  C   UNL     1       7.771  -1.587  25.005  0.00  0.00    +0.036 A 
ATOM      3  C   UNL     1       8.492  -0.480  24.511  0.00  0.00    +0.079 A 
ATOM      4  C   UNL     1       9.636  -0.719  23.745  0.00  0.00    +0.143 A 
ATOM      5  O   UNL     1      10.421   0.258  23.203  0.00  0.00    -0.475 OA
ATOM      6  C   UNL     1       9.812   1.547  23.160  0.00  0.00    +0.181 C 
ATOM      7  C   UNL     1       8.961   1.907  24.396  0.00  0.00    +0.263 C 
ATOM      8  O   UNL     1       8.900   3.042  24.860  0.00  0.00    -0.271 OA
ATOM      9  C   UNL     1      10.943   2.566  22.971  0.00  0.00    +0.065 C 
ATOM     10  C   UNL     1       8.875   1.636  21.938  0.00  0.00    +0.065 C 
ATOM     11  C   UNL     1      10.031  -2.026  23.479  0.00  0.00    +0.048 A 
ATOM     12  N   UNL     1       8.122   0.867  24.794  0.00  0.00    -0.265 N 
ATOM     13  C   UNL     1       9.252  -3.105  23.912  0.00  0.00    +0.012 A 
ENDROOT
BRANCH   1  25
ATOM     14  C   UNL     1       5.957  -4.364  24.734  0.00  0.00    +0.056 A 
ATOM     15  N   UNL     1       5.201  -5.372  25.242  0.00  0.00    -0.219 NA
ATOM     16  C   UNL     1       5.724  -6.138  26.189  0.00  0.00    +0.214 A 
ATOM     17  N   UNL     1       4.943  -7.140  26.717  0.00  0.00    -0.327 N 
ATOM     18  H   UNL     1       3.968  -6.903  26.596  0.00  0.00    +0.145 HD
ATOM     19  H   UNL     1       5.255  -7.358  27.653  0.00  0.00    +0.145 HD
ATOM     20  N   UNL     1       6.950  -5.983  26.677  0.00  0.00    -0.199 NA
ATOM     21  C   UNL     1       7.694  -4.987  26.167  0.00  0.00    +0.129 A 
ATOM     22  N   UNL     1       8.971  -4.985  26.735  0.00  0.00    -0.343 N 
ATOM     23  H   UNL     1       8.954  -5.729  27.432  0.00  0.00    +0.144 HD
ATOM     24  H   UNL     1       9.667  -5.227  26.041  0.00  0.00    +0.144 HD
ATOM     25  C   UNL     1       7.264  -4.082  25.179  0.00  0.00    +0.043 A 
BRANCH  14  27
ATOM     26  C   UNL     1       5.693  -3.968  22.236  0.00  0.00    +0.010 C 
ATOM     27  C   UNL     1       5.223  -3.626  23.639  0.00  0.00    +0.053 C 
ENDBRANCH  14  27
ENDBRANCH   1  25
BRANCH  12  28
ATOM     28  C   UNL     1       6.852   1.219  25.409  0.00  0.00    +0.116 C 
BRANCH  28  29
ATOM     29  C   UNL     1       5.687   1.312  24.433  0.00  0.00    +0.047 C 
BRANCH  29  30
ATOM     30  C   UNL     1       5.381   2.772  24.124  0.00  0.00    +0.161 C 
BRANCH  30  31
ATOM     31  O   UNL     1       5.773   3.030  22.779  0.00  0.00    -0.383 OA
ATOM     32  C   UNL     1       6.393   4.301  22.643  0.00  0.00    +0.193 C 
ENDBRANCH  30  31
ENDBRANCH  29  30
ENDBRANCH  28  29
ENDBRANCH  12  28
TORSDOF 6
ENDMDL
MODEL 2
REMARK VINA RESULT:      -6.9      1.392      1.867
REMARK  Name = 
REMARK  10 active torsions:
REMARK  status: ('A' for Active; 'I' for Inactive)
REMARK    1  A    between atoms: C_1  and  C_2
REMARK    2  A    between atoms: C_2  and  C_3
REMARK    3  A    between atoms: C_4  and  C_11
REMARK    4  A    between atoms: C_16  and  C_17
REMARK    5  A    between atoms: C_16  and  C_18
REMARK    6  A    between atoms: N_21  and  C_22
REMARK    7  A    between atoms: C_22  and  C_23
REMARK    8  A    between atoms: C_23  and  C_24
REMARK    9  A    between atoms: C_24  and  O_25
REMARK   10  A    between atoms: O_25  and  C_26
REMARK                            x       y       z     vdW  Elec       q    Type
REMARK                         _______ _______ _______ _____ _____    ______ ____
ROOT
ATOM      1  C   UNL     1       7.779  -3.093  24.776  0.00  0.00    -0.011 A 
ATOM      2  C   UNL     1       7.682  -1.747  25.206  0.00  0.00    +0.036 A 
ATOM      3  C   UNL     1       8.286  -0.671  24.524  0.00  0.00    +0.079 A 
ATOM      4  C   UNL     1       9.092  -0.952  23.417  0.00  0.00    +0.143 A 
ATOM      5  O   UNL     1       9.731  -0.006  22.667  0.00  0.00    -0.475 OA
ATOM      6  C   UNL     1       9.246   1.321  22.855  0.00  0.00    +0.181 C 
ATOM      7  C   UNL     1       8.880   1.682  24.310  0.00  0.00    +0.263 C 
ATOM      8  O   UNL     1       9.066   2.795  24.792  0.00  0.00    -0.271 OA
ATOM      9  C   UNL     1      10.330   2.269  22.324  0.00  0.00    +0.065 C 
ATOM     10  C   UNL     1       7.970   1.531  22.014  0.00  0.00    +0.065 C 
ATOM     11  C   UNL     1       9.271  -2.269  23.008  0.00  0.00    +0.048 A 
ATOM     12  N   UNL     1       8.138   0.684  24.942  0.00  0.00    -0.265 N 
ATOM     13  C   UNL     1       8.595  -3.311  23.652  0.00  0.00    +0.012 A 
ENDROOT
BRANCH   1  25
ATOM     14  C   UNL     1       5.693  -4.503  25.327  0.00  0.00    +0.056 A 
ATOM     15  N   UNL     1       5.056  -5.473  26.034  0.00  0.00    -0.219 NA
ATOM     16  C   UNL     1       5.759  -6.185  26.903  0.00  0.00    +0.214 A 
ATOM     17  N   UNL     1       5.102  -7.147  27.635  0.00  0.00    -0.327 N 
ATOM     18  H   UNL     1       4.122  -6.908  27.696  0.00  0.00    +0.145 HD
ATOM     19  H   UNL     1       5.595  -7.312  28.501  0.00  0.00    +0.145 HD
ATOM     20  N   UNL     1       7.057  -6.013  27.127  0.00  0.00    -0.199 NA
ATOM     21  C   UNL     1       7.682  -5.056  26.420  0.00  0.00    +0.129 A 
ATOM     22  N   UNL     1       9.047  -5.032  26.722  0.00  0.00    -0.343 N 
ATOM     23  H   UNL     1       9.171  -5.733  27.452  0.00  0.00    +0.144 HD
ATOM     24  H   UNL     1       9.592  -5.321  25.919  0.00  0.00    +0.144 HD
ATOM     25  C   UNL     1       7.062  -4.207  25.485  0.00  0.00    +0.043 A 
BRANCH  14  27
ATOM     26  C   UNL     1       4.907  -4.284  22.918  0.00  0.00    +0.010 C 
ATOM     27  C   UNL     1       4.755  -3.824  24.358  0.00  0.00    +0.053 C 
ENDBRANCH  14  27
ENDBRANCH   1  25
BRANCH  12  28
ATOM     28  C   UNL     1       7.174   1.093  25.950  0.00  0.00    +0.116 C 
BRANCH  28  29
ATOM     29  C   UNL     1       5.816   1.499  25.392  0.00  0.00    +0.047 C 
BRANCH  29  30
ATOM     30  C   UNL     1       4.703   0.929  26.262  0.00  0.00    +0.161 C 
BRANCH  30  31
ATOM     31  O   UNL     1       4.494  -0.427  25.881  0.00  0.00    -0.383 OA
ATOM     32  C   UNL     1       4.346  -1.276  27.010  0.00  0.00    +0.193 C 
ENDBRANCH  30  31
ENDBRANCH  29  30
ENDBRANCH  28  29
ENDBRANCH  12  28
TORSDOF 6
ENDMDL
MODEL 3
REMARK VINA RESULT:      -6.8      3.032      7.644
REMARK  Name = 
REMARK  10 active torsions:
REMARK  status: ('A' for Active; 'I' for Inactive)
REMARK    1  A    between atoms: C_1  and  C_2
REMARK    2  A    between atoms: C_2  and  C_3
REMARK    3  A    between atoms: C_4  and  C_11
REMARK    4  A    between atoms: C_16  and  C_17
REMARK    5  A    between atoms: C_16  and  C_18
REMARK    6  A    between atoms: N_21  and  C_22
REMARK    7  A    between atoms: C_22  and  C_23
REMARK    8  A    between atoms: C_23  and  C_24
REMARK    9  A    between atoms: C_24  and  O_25
REMARK   10  A    between atoms: O_25  and  C_26
REMARK                            x       y       z     vdW  Elec       q    Type
REMARK                         _______ _______ _______ _____ _____    ______ ____
ROOT
ATOM      1  C   UNL     1       7.855   0.730  24.429  0.00  0.00    -0.011 A 
ATOM      2  C   UNL     1       7.947  -0.520  23.770  0.00  0.00    +0.036 A 
ATOM      3  C   UNL     1       7.987  -1.754  24.452  0.00  0.00    +0.079 A 
ATOM      4  C   UNL     1       8.024  -1.742  25.849  0.00  0.00    +0.143 A 
ATOM      5  O   UNL     1       8.061  -2.861  26.631  0.00  0.00    -0.475 OA
ATOM      6  C   UNL     1       7.699  -4.063  25.956  0.00  0.00    +0.181 C 
ATOM      7  C   UNL     1       8.216  -4.178  24.507  0.00  0.00    +0.263 C 
ATOM      8  O   UNL     1       8.582  -5.239  24.008  0.00  0.00    -0.271 OA
ATOM      9  C   UNL     1       8.224  -5.226  26.807  0.00  0.00    +0.065 C 
ATOM     10  C   UNL     1       6.162  -4.175  25.885  0.00  0.00    +0.065 C 
ATOM     11  C   UNL     1       8.010  -0.530  26.532  0.00  0.00    +0.048 A 
ATOM     12  N   UNL     1       8.030  -3.007  23.773  0.00  0.00    -0.265 N 
ATOM     13  C   UNL     1       7.888   0.677  25.833  0.00  0.00    +0.012 A 
ENDROOT
BRANCH   1  25
ATOM     14  C   UNL     1       8.824   2.877  23.383  0.00  0.00    +0.056 A 
ATOM     15  N   UNL     1       8.680   4.073  22.755  0.00  0.00    -0.219 NA
ATOM     16  C   UNL     1       7.465   4.446  22.378  0.00  0.00    +0.214 A 
ATOM     17  N   UNL     1       7.322   5.670  21.766  0.00  0.00    -0.327 N 
ATOM     18  H   UNL     1       8.084   6.272  22.044  0.00  0.00    +0.145 HD
ATOM     19  H   UNL     1       6.383   6.014  21.907  0.00  0.00    +0.145 HD
ATOM     20  N   UNL     1       6.370   3.718  22.575  0.00  0.00    -0.199 NA
ATOM     21  C   UNL     1       6.521   2.534  23.192  0.00  0.00    +0.129 A 
ATOM     22  N   UNL     1       5.298   1.863  23.276  0.00  0.00    -0.343 N 
ATOM     23  H   UNL     1       4.613   2.506  22.880  0.00  0.00    +0.144 HD
ATOM     24  H   UNL     1       5.311   1.031  22.700  0.00  0.00    +0.144 HD
ATOM     25  C   UNL     1       7.741   2.022  23.669  0.00  0.00    +0.043 A 
BRANCH  14  27
ATOM     26  C   UNL     1      11.221   3.727  23.339  0.00  0.00    +0.010 C 
ATOM     27  C   UNL     1      10.274   2.595  23.700  0.00  0.00    +0.053 C 
ENDBRANCH  14  27
ENDBRANCH   1  25
BRANCH  12  28
ATOM     28  C   UNL     1       7.799  -3.132  22.344  0.00  0.00    +0.116 C 
BRANCH  28  29
ATOM     29  C   UNL     1       6.334  -3.277  21.955  0.00  0.00    +0.047 C 
BRANCH  29  30
ATOM     30  C   UNL     1       6.058  -4.699  21.482  0.00  0.00    +0.161 C 
BRANCH  30  31
ATOM     31  O   UNL     1       4.933  -5.193  22.202  0.00  0.00    -0.383 OA
ATOM     32  C   UNL     1       5.288  -6.260  23.069  0.00  0.00    +0.193 C 
ENDBRANCH  30  31
ENDBRANCH  29  30
ENDBRANCH  28  29
ENDBRANCH  12  28
TORSDOF 6
ENDMDL
MODEL 4
REMARK VINA RESULT:      -6.8      1.799      2.458
REMARK  Name = 
REMARK  10 active torsions:
REMARK  status: ('A' for Active; 'I' for Inactive)
REMARK    1  A    between atoms: C_1  and  C_2
REMARK    2  A    between atoms: C_2  and  C_3
REMARK    3  A    between atoms: C_4  and  C_11
REMARK    4  A    between atoms: C_16  and  C_17
REMARK    5  A    between atoms: C_16  and  C_18
REMARK    6  A    between atoms: N_21  and  C_22
REMARK    7  A    between atoms: C_22  and  C_23
REMARK    8  A    between atoms: C_23  and  C_24
REMARK    9  A    between atoms: C_24  and  O_25
REMARK   10  A    between atoms: O_25  and  C_26
REMARK                            x       y       z     vdW  Elec       q    Type
REMARK                         _______ _______ _______ _____ _____    ______ ____
ROOT
ATOM      1  C   UNL     1       7.409  -3.905  24.760  0.00  0.00    -0.011 A 
ATOM      2  C   UNL     1       7.080  -2.546  24.983  0.00  0.00    +0.036 A 
ATOM      3  C   UNL     1       7.972  -1.483  24.733  0.00  0.00    +0.079 A 
ATOM      4  C   UNL     1       9.273  -1.786  24.325  0.00  0.00    +0.143 A 
ATOM      5  O   UNL     1      10.233  -0.856  24.047  0.00  0.00    -0.475 OA
ATOM      6  C   UNL     1       9.733   0.465  23.849  0.00  0.00    +0.181 C 
ATOM      7  C   UNL     1       8.583   0.875  24.793  0.00  0.00    +0.263 C 
ATOM      8  O   UNL     1       8.452   2.012  25.236  0.00  0.00    -0.271 OA
ATOM      9  C   UNL     1      10.924   1.419  24.008  0.00  0.00    +0.065 C 
ATOM     10  C   UNL     1       9.194   0.605  22.410  0.00  0.00    +0.065 C 
ATOM     11  C   UNL     1       9.656  -3.114  24.165  0.00  0.00    +0.048 A 
ATOM     12  N   UNL     1       7.609  -0.116  24.918  0.00  0.00    -0.265 N 
ATOM     13  C   UNL     1       8.729  -4.147  24.340  0.00  0.00    +0.012 A 
ENDROOT
BRANCH   1  25
ATOM     14  C   UNL     1       5.470  -5.426  24.003  0.00  0.00    +0.056 A 
ATOM     15  N   UNL     1       4.532  -6.379  24.244  0.00  0.00    -0.219 NA
ATOM     16  C   UNL     1       4.511  -6.956  25.437  0.00  0.00    +0.214 A 
ATOM     17  N   UNL     1       3.542  -7.902  25.683  0.00  0.00    -0.327 N 
ATOM     18  H   UNL     1       2.754  -7.738  25.072  0.00  0.00    +0.145 HD
ATOM     19  H   UNL     1       3.359  -7.952  26.675  0.00  0.00    +0.145 HD
ATOM     20  N   UNL     1       5.355  -6.662  26.420  0.00  0.00    -0.199 NA
ATOM     21  C   UNL     1       6.284  -5.722  26.173  0.00  0.00    +0.129 A 
ATOM     22  N   UNL     1       7.129  -5.563  27.275  0.00  0.00    -0.343 N 
ATOM     23  H   UNL     1       6.756  -6.187  27.990  0.00  0.00    +0.144 HD
ATOM     24  H   UNL     1       8.065  -5.875  27.050  0.00  0.00    +0.144 HD
ATOM     25  C   UNL     1       6.410  -5.009  24.967  0.00  0.00    +0.043 A 
BRANCH  14  27
ATOM     26  C   UNL     1       6.277  -5.632  21.601  0.00  0.00    +0.010 C 
ATOM     27  C   UNL     1       5.376  -4.909  22.587  0.00  0.00    +0.053 C 
ENDBRANCH  14  27
ENDBRANCH   1  25
BRANCH  12  28
ATOM     28  C   UNL     1       6.237   0.307  25.146  0.00  0.00    +0.116 C 
BRANCH  28  29
ATOM     29  C   UNL     1       5.836   0.370  26.614  0.00  0.00    +0.047 C 
BRANCH  29  30
ATOM     30  C   UNL     1       4.348   0.080  26.761  0.00  0.00    +0.161 C 
BRANCH  30  31
ATOM     31  O   UNL     1       4.062  -1.128  26.062  0.00  0.00    -0.383 OA
ATOM     32  C   UNL     1       3.954  -2.236  26.944  0.00  0.00    +0.193 C 
ENDBRANCH  30  31
ENDBRANCH  29  30
ENDBRANCH  28  29
ENDBRANCH  12  28
TORSDOF 6
ENDMDL
MODEL 5
REMARK VINA RESULT:      -6.6      1.387      2.307
REMARK  Name = 
REMARK  10 active torsions:
REMARK  status: ('A' for Active; 'I' for Inactive)
REMARK    1  A    between atoms: C_1  and  C_2
REMARK    2  A    between atoms: C_2  and  C_3
REMARK    3  A    between atoms: C_4  and  C_11
REMARK    4  A    between atoms: C_16  and  C_17
REMARK    5  A    between atoms: C_16  and  C_18
REMARK    6  A    between atoms: N_21  and  C_22
REMARK    7  A    between atoms: C_22  and  C_23
REMARK    8  A    between atoms: C_23  and  C_24
REMARK    9  A    between atoms: C_24  and  O_25
REMARK   10  A    between atoms: O_25  and  C_26
REMARK                            x       y       z     vdW  Elec       q    Type
REMARK                         _______ _______ _______ _____ _____    ______ ____
ROOT
ATOM      1  C   UNL     1       7.546  -2.853  23.752  0.00  0.00    -0.011 A 
ATOM      2  C   UNL     1       7.227  -1.503  24.037  0.00  0.00    +0.036 A 
ATOM      3  C   UNL     1       8.169  -0.456  23.976  0.00  0.00    +0.079 A 
ATOM      4  C   UNL     1       9.503  -0.774  23.704  0.00  0.00    +0.143 A 
ATOM      5  O   UNL     1      10.513   0.141  23.613  0.00  0.00    -0.475 OA
ATOM      6  C   UNL     1      10.074   1.488  23.457  0.00  0.00    +0.181 C 
ATOM      7  C   UNL     1       8.829   1.869  24.285  0.00  0.00    +0.263 C 
ATOM      8  O   UNL     1       8.675   2.975  24.794  0.00  0.00    -0.271 OA
ATOM      9  C   UNL     1      11.261   2.387  23.828  0.00  0.00    +0.065 C 
ATOM     10  C   UNL     1       9.717   1.750  21.979  0.00  0.00    +0.065 C 
ATOM     11  C   UNL     1       9.868  -2.099  23.491  0.00  0.00    +0.048 A 
ATOM     12  N   UNL     1       7.822   0.906  24.218  0.00  0.00    -0.265 N 
ATOM     13  C   UNL     1       8.900  -3.109  23.476  0.00  0.00    +0.012 A 
ENDROOT
BRANCH   1  25
ATOM     14  C   UNL     1       6.165  -4.714  24.881  0.00  0.00    +0.056 A 
ATOM     15  N   UNL     1       5.265  -5.731  24.837  0.00  0.00    -0.219 NA
ATOM     16  C   UNL     1       4.662  -5.991  23.685  0.00  0.00    +0.214 A 
ATOM     17  N   UNL     1       3.772  -7.039  23.641  0.00  0.00    -0.327 N 
ATOM     18  H   UNL     1       3.998  -7.699  24.372  0.00  0.00    +0.145 HD
ATOM     19  H   UNL     1       3.710  -7.394  22.697  0.00  0.00    +0.145 HD
ATOM     20  N   UNL     1       4.881  -5.314  22.563  0.00  0.00    -0.199 NA
ATOM     21  C   UNL     1       5.768  -4.306  22.615  0.00  0.00    +0.129 A 
ATOM     22  N   UNL     1       5.849  -3.657  21.379  0.00  0.00    -0.343 N 
ATOM     23  H   UNL     1       5.233  -4.183  20.761  0.00  0.00    +0.144 HD
ATOM     24  H   UNL     1       5.487  -2.715  21.451  0.00  0.00    +0.144 HD
ATOM     25  C   UNL     1       6.501  -3.933  23.756  0.00  0.00    +0.043 A 
BRANCH  14  27
ATOM     26  C   UNL     1       8.047  -5.228  26.511  0.00  0.00    +0.010 C 
ATOM     27  C   UNL     1       6.719  -4.531  26.274  0.00  0.00    +0.053 C 
ENDBRANCH  14  27
ENDBRANCH   1  25
BRANCH  12  28
ATOM     28  C   UNL     1       6.444   1.359  24.313  0.00  0.00    +0.116 C 
BRANCH  28  29
ATOM     29  C   UNL     1       5.977   2.199  23.132  0.00  0.00    +0.047 C 
BRANCH  29  30
ATOM     30  C   UNL     1       5.281   3.460  23.631  0.00  0.00    +0.161 C 
BRANCH  30  31
ATOM     31  O   UNL     1       6.077   4.580  23.258  0.00  0.00    -0.383 OA
ATOM     32  C   UNL     1       6.927   4.283  22.160  0.00  0.00    +0.193 C 
ENDBRANCH  30  31
ENDBRANCH  29  30
ENDBRANCH  28  29
ENDBRANCH  12  28
TORSDOF 6
ENDMDL
MODEL 6
REMARK VINA RESULT:      -6.4      3.089      7.451
REMARK  Name = 
REMARK  10 active torsions:
REMARK  status: ('A' for Active; 'I' for Inactive)
REMARK    1  A    between atoms: C_1  and  C_2
REMARK    2  A    between atoms: C_2  and  C_3
REMARK    3  A    between atoms: C_4  and  C_11
REMARK    4  A    between atoms: C_16  and  C_17
REMARK    5  A    between atoms: C_16  and  C_18
REMARK    6  A    between atoms: N_21  and  C_22
REMARK    7  A    between atoms: C_22  and  C_23
REMARK    8  A    between atoms: C_23  and  C_24
REMARK    9  A    between atoms: C_24  and  O_25
REMARK   10  A    between atoms: O_25  and  C_26
REMARK                            x       y       z     vdW  Elec       q    Type
REMARK                         _______ _______ _______ _____ _____    ______ ____
ROOT
ATOM      1  C   UNL     1       7.063  -0.666  25.221  0.00  0.00    -0.011 A 
ATOM      2  C   UNL     1       7.656  -1.837  25.754  0.00  0.00    +0.036 A 
ATOM      3  C   UNL     1       6.910  -2.915  26.273  0.00  0.00    +0.079 A 
ATOM      4  C   UNL     1       5.520  -2.791  26.344  0.00  0.00    +0.143 A 
ATOM      5  O   UNL     1       4.681  -3.757  26.819  0.00  0.00    -0.475 OA
ATOM      6  C   UNL     1       5.268  -5.053  26.913  0.00  0.00    +0.181 C 
ATOM      7  C   UNL     1       6.735  -5.071  27.394  0.00  0.00    +0.263 C 
ATOM      8  O   UNL     1       7.193  -5.952  28.115  0.00  0.00    -0.271 OA
ATOM      9  C   UNL     1       4.383  -5.874  27.860  0.00  0.00    +0.065 C 
ATOM     10  C   UNL     1       5.250  -5.732  25.528  0.00  0.00    +0.065 C 
ATOM     11  C   UNL     1       4.906  -1.625  25.897  0.00  0.00    +0.048 A 
ATOM     12  N   UNL     1       7.521  -4.107  26.762  0.00  0.00    -0.265 N 
ATOM     13  C   UNL     1       5.662  -0.604  25.312  0.00  0.00    +0.012 A 
ENDROOT
BRANCH   1  25
ATOM     14  C   UNL     1       8.502   0.358  23.344  0.00  0.00    +0.056 A 
ATOM     15  N   UNL     1       9.298   1.341  22.847  0.00  0.00    -0.219 NA
ATOM     16  C   UNL     1       9.491   2.428  23.579  0.00  0.00    +0.214 A 
ATOM     17  N   UNL     1      10.320   3.407  23.081  0.00  0.00    -0.327 N 
ATOM     18  H   UNL     1      10.966   2.994  22.424  0.00  0.00    +0.145 HD
ATOM     19  H   UNL     1      10.711   3.943  23.843  0.00  0.00    +0.145 HD
ATOM     20  N   UNL     1       8.951   2.622  24.777  0.00  0.00    -0.199 NA
ATOM     21  C   UNL     1       8.160   1.649  25.261  0.00  0.00    +0.129 A 
ATOM     22  N   UNL     1       7.622   2.020  26.497  0.00  0.00    -0.343 N 
ATOM     23  H   UNL     1       8.038   2.927  26.708  0.00  0.00    +0.144 HD
ATOM     24  H   UNL     1       6.621   2.147  26.423  0.00  0.00    +0.144 HD
ATOM     25  C   UNL     1       7.886   0.433  24.610  0.00  0.00    +0.043 A 
BRANCH  14  27
ATOM     26  C   UNL     1       9.639  -1.566  22.130  0.00  0.00    +0.010 C 
ATOM     27  C   UNL     1       8.359  -0.781  22.363  0.00  0.00    +0.053 C 
ENDBRANCH  14  27
ENDBRANCH   1  25
BRANCH  12  28
ATOM     28  C   UNL     1       8.927  -4.411  26.553  0.00  0.00    +0.116 C 
BRANCH  28  29
ATOM     29  C   UNL     1       9.372  -4.352  25.098  0.00  0.00    +0.047 C 
BRANCH  29  30
ATOM     30  C   UNL     1       8.620  -5.394  24.279  0.00  0.00    +0.161 C 
BRANCH  30  31
ATOM     31  O   UNL     1       7.831  -4.709  23.312  0.00  0.00    -0.383 OA
ATOM     32  C   UNL     1       7.294  -5.598  22.342  0.00  0.00    +0.193 C 
ENDBRANCH  30  31
ENDBRANCH  29  30
ENDBRANCH  28  29
ENDBRANCH  12  28
TORSDOF 6
ENDMDL
MODEL 7
REMARK VINA RESULT:      -6.4      3.591      7.578
REMARK  Name = 
REMARK  10 active torsions:
REMARK  status: ('A' for Active; 'I' for Inactive)
REMARK    1  A    between atoms: C_1  and  C_2
REMARK    2  A    between atoms: C_2  and  C_3
REMARK    3  A    between atoms: C_4  and  C_11
REMARK    4  A    between atoms: C_16  and  C_17
REMARK    5  A    between atoms: C_16  and  C_18
REMARK    6  A    between atoms: N_21  and  C_22
REMARK    7  A    between atoms: C_22  and  C_23
REMARK    8  A    between atoms: C_23  and  C_24
REMARK    9  A    between atoms: C_24  and  O_25
REMARK   10  A    between atoms: O_25  and  C_26
REMARK                            x       y       z     vdW  Elec       q    Type
REMARK                         _______ _______ _______ _____ _____    ______ ____
ROOT
ATOM      1  C   UNL     1       6.860  -2.094  23.167  0.00  0.00    -0.011 A 
ATOM      2  C   UNL     1       5.946  -2.432  24.194  0.00  0.00    +0.036 A 
ATOM      3  C   UNL     1       5.007  -3.477  24.082  0.00  0.00    +0.079 A 
ATOM      4  C   UNL     1       4.913  -4.161  22.867  0.00  0.00    +0.143 A 
ATOM      5  O   UNL     1       4.052  -5.193  22.625  0.00  0.00    -0.475 OA
ATOM      6  C   UNL     1       3.492  -5.780  23.798  0.00  0.00    +0.181 C 
ATOM      7  C   UNL     1       3.125  -4.781  24.915  0.00  0.00    +0.263 C 
ATOM      8  O   UNL     1       2.144  -4.916  25.640  0.00  0.00    -0.271 OA
ATOM      9  C   UNL     1       2.253  -6.566  23.352  0.00  0.00    +0.065 C 
ATOM     10  C   UNL     1       4.498  -6.776  24.410  0.00  0.00    +0.065 C 
ATOM     11  C   UNL     1       5.745  -3.810  21.809  0.00  0.00    +0.048 A 
ATOM     12  N   UNL     1       4.126  -3.836  25.144  0.00  0.00    -0.265 N 
ATOM     13  C   UNL     1       6.724  -2.823  21.973  0.00  0.00    +0.012 A 
ENDROOT
BRANCH   1  25
ATOM     14  C   UNL     1       9.247  -1.263  23.672  0.00  0.00    +0.056 A 
ATOM     15  N   UNL     1      10.146  -0.269  23.897  0.00  0.00    -0.219 NA
ATOM     16  C   UNL     1       9.738   0.987  23.791  0.00  0.00    +0.214 A 
ATOM     17  N   UNL     1      10.647   1.988  24.047  0.00  0.00    -0.327 N 
ATOM     18  H   UNL     1      11.371   1.633  24.656  0.00  0.00    +0.145 HD
ATOM     19  H   UNL     1      10.160   2.823  24.343  0.00  0.00    +0.145 HD
ATOM     20  N   UNL     1       8.497   1.341  23.474  0.00  0.00    -0.199 NA
ATOM     21  C   UNL     1       7.615   0.354  23.247  0.00  0.00    +0.129 A 
ATOM     22  N   UNL     1       6.374   0.878  22.871  0.00  0.00    -0.343 N 
ATOM     23  H   UNL     1       6.484   1.890  22.930  0.00  0.00    +0.144 HD
ATOM     24  H   UNL     1       6.169   0.644  21.908  0.00  0.00    +0.144 HD
ATOM     25  C   UNL     1       7.897  -1.021  23.347  0.00  0.00    +0.043 A 
BRANCH  14  27
ATOM     26  C   UNL     1       9.344  -3.473  24.926  0.00  0.00    +0.010 C 
ATOM     27  C   UNL     1       9.891  -2.624  23.792  0.00  0.00    +0.053 C 
ENDBRANCH  14  27
ENDBRANCH   1  25
BRANCH  12  28
ATOM     28  C   UNL     1       4.277  -3.324  26.496  0.00  0.00    +0.116 C 
BRANCH  28  29
ATOM     29  C   UNL     1       4.916  -4.304  27.471  0.00  0.00    +0.047 C 
BRANCH  29  30
ATOM     30  C   UNL     1       6.434  -4.233  27.362  0.00  0.00    +0.161 C 
BRANCH  30  31
ATOM     31  O   UNL     1       6.980  -5.334  28.081  0.00  0.00    -0.383 OA
ATOM     32  C   UNL     1       5.965  -6.160  28.635  0.00  0.00    +0.193 C 
ENDBRANCH  30  31
ENDBRANCH  29  30
ENDBRANCH  28  29
ENDBRANCH  12  28
TORSDOF 6
ENDMDL
MODEL 8
REMARK VINA RESULT:      -6.4      3.032      7.313
REMARK  Name = 
REMARK  10 active torsions:
REMARK  status: ('A' for Active; 'I' for Inactive)
REMARK    1  A    between atoms: C_1  and  C_2
REMARK    2  A    between atoms: C_2  and  C_3
REMARK    3  A    between atoms: C_4  and  C_11
REMARK    4  A    between atoms: C_16  and  C_17
REMARK    5  A    between atoms: C_16  and  C_18
REMARK    6  A    between atoms: N_21  and  C_22
REMARK    7  A    between atoms: C_22  and  C_23
REMARK    8  A    between atoms: C_23  and  C_24
REMARK    9  A    between atoms: C_24  and  O_25
REMARK   10  A    between atoms: O_25  and  C_26
REMARK                            x       y       z     vdW  Elec       q    Type
REMARK                         _______ _______ _______ _____ _____    ______ ____
ROOT
ATOM      1  C   UNL     1       8.172   0.651  23.947  0.00  0.00    -0.011 A 
ATOM      2  C   UNL     1       7.603  -0.550  23.458  0.00  0.00    +0.036 A 
ATOM      3  C   UNL     1       8.020  -1.831  23.875  0.00  0.00    +0.079 A 
ATOM      4  C   UNL     1       9.106  -1.926  24.750  0.00  0.00    +0.143 A 
ATOM      5  O   UNL     1       9.609  -3.100  25.233  0.00  0.00    -0.475 OA
ATOM      6  C   UNL     1       8.740  -4.220  25.079  0.00  0.00    +0.181 C 
ATOM      7  C   UNL     1       7.960  -4.263  23.748  0.00  0.00    +0.263 C 
ATOM      8  O   UNL     1       7.708  -5.306  23.152  0.00  0.00    -0.271 OA
ATOM      9  C   UNL     1       9.605  -5.477  25.235  0.00  0.00    +0.065 C 
ATOM     10  C   UNL     1       7.687  -4.218  26.207  0.00  0.00    +0.065 C 
ATOM     11  C   UNL     1       9.739  -0.770  25.195  0.00  0.00    +0.048 A 
ATOM     12  N   UNL     1       7.404  -3.029  23.409  0.00  0.00    -0.265 N 
ATOM     13  C   UNL     1       9.253   0.491  24.831  0.00  0.00    +0.012 A 
ENDROOT
BRANCH   1  25
ATOM     14  C   UNL     1       6.695   2.740  24.258  0.00  0.00    +0.056 A 
ATOM     15  N   UNL     1       6.194   3.927  23.826  0.00  0.00    -0.219 NA
ATOM     16  C   UNL     1       6.640   4.420  22.679  0.00  0.00    +0.214 A 
ATOM     17  N   UNL     1       6.108   5.609  22.235  0.00  0.00    -0.327 N 
ATOM     18  H   UNL     1       5.188   5.732  22.633  0.00  0.00    +0.145 HD
ATOM     19  H   UNL     1       6.190   5.664  21.229  0.00  0.00    +0.145 HD
ATOM     20  N   UNL     1       7.554   3.826  21.920  0.00  0.00    -0.199 NA
ATOM     21  C   UNL     1       8.050   2.656  22.356  0.00  0.00    +0.129 A 
ATOM     22  N   UNL     1       9.036   2.183  21.486  0.00  0.00    -0.343 N 
ATOM     23  H   UNL     1       9.061   2.856  20.720  0.00  0.00    +0.144 HD
ATOM     24  H   UNL     1       9.942   2.196  21.938  0.00  0.00    +0.144 HD
ATOM     25  C   UNL     1       7.654   2.000  23.536  0.00  0.00    +0.043 A 
BRANCH  14  27
ATOM     26  C   UNL     1       4.943   1.384  25.506  0.00  0.00    +0.010 C 
ATOM     27  C   UNL     1       6.111   2.352  25.595  0.00  0.00    +0.053 C 
ENDBRANCH  14  27
ENDBRANCH   1  25
BRANCH  12  28
ATOM     28  C   UNL     1       6.157  -3.031  22.662  0.00  0.00    +0.116 C 
BRANCH  28  29
ATOM     29  C   UNL     1       4.910  -3.189  23.522  0.00  0.00    +0.047 C 
BRANCH  29  30
ATOM     30  C   UNL     1       4.331  -4.587  23.350  0.00  0.00    +0.161 C 
BRANCH  30  31
ATOM     31  O   UNL     1       4.607  -5.328  24.535  0.00  0.00    -0.383 OA
ATOM     32  C   UNL     1       4.568  -6.729  24.305  0.00  0.00    +0.193 C 
ENDBRANCH  30  31
ENDBRANCH  29  30
ENDBRANCH  28  29
ENDBRANCH  12  28
TORSDOF 6
ENDMDL
MODEL 9
REMARK VINA RESULT:      -6.3      1.543      2.501
REMARK  Name = 
REMARK  10 active torsions:
REMARK  status: ('A' for Active; 'I' for Inactive)
REMARK    1  A    between atoms: C_1  and  C_2
REMARK    2  A    between atoms: C_2  and  C_3
REMARK    3  A    between atoms: C_4  and  C_11
REMARK    4  A    between atoms: C_16  and  C_17
REMARK    5  A    between atoms: C_16  and  C_18
REMARK    6  A    between atoms: N_21  and  C_22
REMARK    7  A    between atoms: C_22  and  C_23
REMARK    8  A    between atoms: C_23  and  C_24
REMARK    9  A    between atoms: C_24  and  O_25
REMARK   10  A    between atoms: O_25  and  C_26
REMARK                            x       y       z     vdW  Elec       q    Type
REMARK                         _______ _______ _______ _____ _____    ______ ____
ROOT
ATOM      1  C   UNL     1       7.510  -2.831  23.775  0.00  0.00    -0.011 A 
ATOM      2  C   UNL     1       7.156  -1.468  23.928  0.00  0.00    +0.036 A 
ATOM      3  C   UNL     1       8.091  -0.414  23.871  0.00  0.00    +0.079 A 
ATOM      4  C   UNL     1       9.446  -0.731  23.743  0.00  0.00    +0.143 A 
ATOM      5  O   UNL     1      10.452   0.189  23.672  0.00  0.00    -0.475 OA
ATOM      6  C   UNL     1      10.017   1.515  23.377  0.00  0.00    +0.181 C 
ATOM      7  C   UNL     1       8.700   1.937  24.061  0.00  0.00    +0.263 C 
ATOM      8  O   UNL     1       8.491   3.076  24.470  0.00  0.00    -0.271 OA
ATOM      9  C   UNL     1      11.158   2.457  23.783  0.00  0.00    +0.065 C 
ATOM     10  C   UNL     1       9.792   1.660  21.858  0.00  0.00    +0.065 C 
ATOM     11  C   UNL     1       9.840  -2.063  23.664  0.00  0.00    +0.048 A 
ATOM     12  N   UNL     1       7.711   0.957  23.979  0.00  0.00    -0.265 N 
ATOM     13  C   UNL     1       8.886  -3.086  23.640  0.00  0.00    +0.012 A 
ENDROOT
BRANCH   1  25
ATOM     14  C   UNL     1       6.149  -4.717  24.886  0.00  0.00    +0.056 A 
ATOM     15  N   UNL     1       5.262  -5.744  24.832  0.00  0.00    -0.219 NA
ATOM     16  C   UNL     1       4.665  -6.003  23.677  0.00  0.00    +0.214 A 
ATOM     17  N   UNL     1       3.788  -7.061  23.623  0.00  0.00    -0.327 N 
ATOM     18  H   UNL     1       4.020  -7.724  24.349  0.00  0.00    +0.145 HD
ATOM     19  H   UNL     1       3.732  -7.410  22.676  0.00  0.00    +0.145 HD
ATOM     20  N   UNL     1       4.878  -5.315  22.561  0.00  0.00    -0.199 NA
ATOM     21  C   UNL     1       5.753  -4.297  22.622  0.00  0.00    +0.129 A 
ATOM     22  N   UNL     1       5.829  -3.637  21.392  0.00  0.00    -0.343 N 
ATOM     23  H   UNL     1       5.220  -4.165  20.768  0.00  0.00    +0.144 HD
ATOM     24  H   UNL     1       5.454  -2.699  21.470  0.00  0.00    +0.144 HD
ATOM     25  C   UNL     1       6.478  -3.923  23.768  0.00  0.00    +0.043 A 
BRANCH  14  27
ATOM     26  C   UNL     1       6.264  -5.613  27.263  0.00  0.00    +0.010 C 
ATOM     27  C   UNL     1       6.698  -4.538  26.282  0.00  0.00    +0.053 C 
ENDBRANCH  14  27
ENDBRANCH   1  25
BRANCH  12  28
ATOM     28  C   UNL     1       6.327   1.394  23.917  0.00  0.00    +0.116 C 
BRANCH  28  29
ATOM     29  C   UNL     1       6.004   2.290  22.728  0.00  0.00    +0.047 C 
BRANCH  29  30
ATOM     30  C   UNL     1       4.721   3.068  22.995  0.00  0.00    +0.161 C 
BRANCH  30  31
ATOM     31  O   UNL     1       4.051   2.453  24.090  0.00  0.00    -0.383 OA
ATOM     32  C   UNL     1       2.990   3.259  24.582  0.00  0.00    +0.193 C 
ENDBRANCH  30  31
ENDBRANCH  29  30
ENDBRANCH  28  29
ENDBRANCH  12  28
TORSDOF 6
ENDMDL
