MODEL 1
REMARK VINA RESULT:      -7.2      0.000      0.000
REMARK  Name = 
REMARK  10 active torsions:
REMARK  status: ('A' for Active; 'I' for Inactive)
REMARK    1  A    between atoms: C_1  and  C_2
REMARK    2  A    between atoms: C_2  and  C_3
REMARK    3  A    between atoms: C_8  and  N_9
REMARK    4  A    between atoms: C_10  and  C_11
REMARK    5  A    between atoms: C_16  and  C_17
REMARK    6  A    between atoms: C_16  and  C_18
REMARK    7  A    between atoms: N_21  and  C_22
REMARK    8  A    between atoms: C_22  and  C_23
REMARK    9  A    between atoms: C_23  and  N_24
REMARK   10  A    between atoms: C_25  and  C_26
REMARK                            x       y       z     vdW  Elec       q    Type
REMARK                         _______ _______ _______ _____ _____    ______ ____
ROOT
ATOM      1  C   UNL     1       7.149  -3.515  24.760  0.00  0.00    -0.011 A 
ATOM      2  C   UNL     1       7.579  -3.767  23.447  0.00  0.00    +0.012 A 
ATOM      3  C   UNL     1       8.162  -2.786  22.643  0.00  0.00    +0.048 A 
ATOM      4  C   UNL     1       8.373  -1.511  23.140  0.00  0.00    +0.143 A 
ATOM      5  O   UNL     1       8.980  -0.646  22.268  0.00  0.00    -0.475 OA
ATOM      6  C   UNL     1       8.884   0.722  22.654  0.00  0.00    +0.181 C 
ATOM      7  C   UNL     1       9.122   0.935  24.157  0.00  0.00    +0.263 C 
ATOM      8  N   UNL     1       8.305   0.121  24.948  0.00  0.00    -0.263 N 
ATOM      9  O   UNL     1       9.851   1.819  24.597  0.00  0.00    -0.271 OA
ATOM     10  C   UNL     1       9.921   1.494  21.832  0.00  0.00    +0.065 C 
ATOM     11  C   UNL     1       7.483   1.261  22.307  0.00  0.00    +0.065 C 
ATOM     12  C   UNL     1       7.980  -1.182  24.442  0.00  0.00    +0.079 A 
ATOM     13  C   UNL     1       7.336  -2.179  25.209  0.00  0.00    +0.036 A 
ENDROOT
BRANCH   1  15
ATOM     14  C   UNL     1       5.242  -5.042  25.669  0.00  0.00    +0.056 A 
ATOM     15  C   UNL     1       6.571  -4.583  25.664  0.00  0.00    +0.043 A 
ATOM     16  C   UNL     1       7.356  -5.267  26.616  0.00  0.00    +0.129 A 
ATOM     17  N   UNL     1       6.902  -6.183  27.491  0.00  0.00    -0.199 NA
ATOM     18  C   UNL     1       5.622  -6.510  27.410  0.00  0.00    +0.214 A 
ATOM     19  N   UNL     1       5.134  -7.452  28.291  0.00  0.00    -0.327 N 
ATOM     20  H   UNL     1       5.695  -7.465  29.129  0.00  0.00    +0.145 HD
ATOM     21  H   UNL     1       4.137  -7.328  28.401  0.00  0.00    +0.145 HD
ATOM     22  N   UNL     1       4.776  -5.982  26.539  0.00  0.00    -0.219 NA
BRANCH  16  23
ATOM     23  N   UNL     1       8.739  -5.083  26.735  0.00  0.00    -0.343 N 
ATOM     24  H   UNL     1       9.187  -5.942  27.040  0.00  0.00    +0.144 HD
ATOM     25  H   UNL     1       8.866  -4.337  27.417  0.00  0.00    +0.144 HD
ENDBRANCH  16  23
BRANCH  14  27
ATOM     26  C   UNL     1       4.249  -5.533  23.434  0.00  0.00    +0.010 C 
ATOM     27  C   UNL     1       4.175  -4.649  24.681  0.00  0.00    +0.053 C 
ENDBRANCH  14  27
ENDBRANCH   1  15
BRANCH   8  28
ATOM     28  C   UNL     1       7.984   0.540  26.314  0.00  0.00    +0.132 C 
BRANCH  28  29
ATOM     29  C   UNL     1       6.942   1.680  26.379  0.00  0.00    +0.123 C 
BRANCH  29  30
ATOM     30  N   UNL     1       7.514   2.995  26.578  0.00  0.00    -0.314 N 
ATOM     31  H   UNL     1       8.209   3.094  27.309  0.00  0.00    +0.149 HD
ATOM     32  C   UNL     1       7.409   3.971  25.623  0.00  0.00    +0.210 C 
ATOM     33  O   UNL     1       6.753   3.857  24.594  0.00  0.00    -0.276 OA
ATOM     34  C   UNL     1       8.165   5.233  25.948  0.00  0.00    +0.109 C 
ENDBRANCH  29  30
ENDBRANCH  28  29
ENDBRANCH   8  28
TORSDOF 6
ENDMDL
MODEL 2
REMARK VINA RESULT:      -7.1      1.831      2.085
REMARK  Name = 
REMARK  10 active torsions:
REMARK  status: ('A' for Active; 'I' for Inactive)
REMARK    1  A    between atoms: C_1  and  C_2
REMARK    2  A    between atoms: C_2  and  C_3
REMARK    3  A    between atoms: C_8  and  N_9
REMARK    4  A    between atoms: C_10  and  C_11
REMARK    5  A    between atoms: C_16  and  C_17
REMARK    6  A    between atoms: C_16  and  C_18
REMARK    7  A    between atoms: N_21  and  C_22
REMARK    8  A    between atoms: C_22  and  C_23
REMARK    9  A    between atoms: C_23  and  N_24
REMARK   10  A    between atoms: C_25  and  C_26
REMARK                            x       y       z     vdW  Elec       q    Type
REMARK                         _______ _______ _______ _____ _____    ______ ____
ROOT
ATOM      1  C   UNL     1       7.587  -3.460  24.443  0.00  0.00    -0.011 A 
ATOM      2  C   UNL     1       8.944  -3.670  24.149  0.00  0.00    +0.012 A 
ATOM      3  C   UNL     1       9.840  -2.622  23.931  0.00  0.00    +0.048 A 
ATOM      4  C   UNL     1       9.417  -1.308  24.038  0.00  0.00    +0.143 A 
ATOM      5  O   UNL     1      10.393  -0.370  23.833  0.00  0.00    -0.475 OA
ATOM      6  C   UNL     1       9.890   0.945  23.609  0.00  0.00    +0.181 C 
ATOM      7  C   UNL     1       8.733   1.309  24.551  0.00  0.00    +0.263 C 
ATOM      8  N   UNL     1       7.708   0.357  24.530  0.00  0.00    -0.263 N 
ATOM      9  O   UNL     1       8.668   2.382  25.144  0.00  0.00    -0.271 OA
ATOM     10  C   UNL     1      11.062   1.912  23.801  0.00  0.00    +0.065 C 
ATOM     11  C   UNL     1       9.386   1.066  22.158  0.00  0.00    +0.065 C 
ATOM     12  C   UNL     1       8.081  -1.014  24.336  0.00  0.00    +0.079 A 
ATOM     13  C   UNL     1       7.185  -2.096  24.488  0.00  0.00    +0.036 A 
ENDROOT
BRANCH   1  15
ATOM     14  C   UNL     1       5.804  -5.252  23.809  0.00  0.00    +0.056 A 
ATOM     15  C   UNL     1       6.618  -4.584  24.740  0.00  0.00    +0.043 A 
ATOM     16  C   UNL     1       6.449  -5.106  26.040  0.00  0.00    +0.129 A 
ATOM     17  N   UNL     1       5.568  -6.060  26.390  0.00  0.00    -0.199 NA
ATOM     18  C   UNL     1       4.841  -6.593  25.422  0.00  0.00    +0.214 A 
ATOM     19  N   UNL     1       3.935  -7.579  25.754  0.00  0.00    -0.327 N 
ATOM     20  H   UNL     1       3.653  -7.479  26.718  0.00  0.00    +0.145 HD
ATOM     21  H   UNL     1       3.204  -7.616  25.057  0.00  0.00    +0.145 HD
ATOM     22  N   UNL     1       4.922  -6.233  24.150  0.00  0.00    -0.219 NA
BRANCH  16  23
ATOM     23  N   UNL     1       7.225  -4.696  27.131  0.00  0.00    -0.343 N 
ATOM     24  H   UNL     1       7.886  -3.979  26.848  0.00  0.00    +0.144 HD
ATOM     25  H   UNL     1       7.705  -5.531  27.465  0.00  0.00    +0.144 HD
ENDBRANCH  16  23
BRANCH  14  27
ATOM     26  C   UNL     1       6.949  -5.926  21.697  0.00  0.00    +0.010 C 
ATOM     27  C   UNL     1       5.846  -5.064  22.315  0.00  0.00    +0.053 C 
ENDBRANCH  14  27
ENDBRANCH   1  15
BRANCH   8  28
ATOM     28  C   UNL     1       6.348   0.761  24.898  0.00  0.00    +0.132 C 
BRANCH  28  29
ATOM     29  C   UNL     1       5.630   1.575  23.796  0.00  0.00    +0.123 C 
BRANCH  29  30
ATOM     30  N   UNL     1       5.773   3.009  23.930  0.00  0.00    -0.314 N 
ATOM     31  H   UNL     1       5.686   3.399  24.861  0.00  0.00    +0.149 HD
ATOM     32  C   UNL     1       6.345   3.765  22.942  0.00  0.00    +0.210 C 
ATOM     33  O   UNL     1       6.680   3.324  21.848  0.00  0.00    -0.276 OA
ATOM     34  C   UNL     1       6.521   5.217  23.302  0.00  0.00    +0.109 C 
ENDBRANCH  29  30
ENDBRANCH  28  29
ENDBRANCH   8  28
TORSDOF 6
ENDMDL
MODEL 3
REMARK VINA RESULT:      -7.1      1.843      2.263
REMARK  Name = 
REMARK  10 active torsions:
REMARK  status: ('A' for Active; 'I' for Inactive)
REMARK    1  A    between atoms: C_1  and  C_2
REMARK    2  A    between atoms: C_2  and  C_3
REMARK    3  A    between atoms: C_8  and  N_9
REMARK    4  A    between atoms: C_10  and  C_11
REMARK    5  A    between atoms: C_16  and  C_17
REMARK    6  A    between atoms: C_16  and  C_18
REMARK    7  A    between atoms: N_21  and  C_22
REMARK    8  A    between atoms: C_22  and  C_23
REMARK    9  A    between atoms: C_23  and  N_24
REMARK   10  A    between atoms: C_25  and  C_26
REMARK                            x       y       z     vdW  Elec       q    Type
REMARK                         _______ _______ _______ _____ _____    ______ ____
ROOT
ATOM      1  C   UNL     1       7.526  -3.626  24.401  0.00  0.00    -0.011 A 
ATOM      2  C   UNL     1       8.913  -3.817  24.303  0.00  0.00    +0.012 A 
ATOM      3  C   UNL     1       9.809  -2.764  24.110  0.00  0.00    +0.048 A 
ATOM      4  C   UNL     1       9.348  -1.460  24.044  0.00  0.00    +0.143 A 
ATOM      5  O   UNL     1      10.323  -0.511  23.884  0.00  0.00    -0.475 OA
ATOM      6  C   UNL     1       9.826   0.762  23.482  0.00  0.00    +0.181 C 
ATOM      7  C   UNL     1       8.549   1.168  24.232  0.00  0.00    +0.263 C 
ATOM      8  N   UNL     1       7.555   0.186  24.164  0.00  0.00    -0.263 N 
ATOM      9  O   UNL     1       8.385   2.285  24.714  0.00  0.00    -0.271 OA
ATOM     10  C   UNL     1      10.943   1.779  23.735  0.00  0.00    +0.065 C 
ATOM     11  C   UNL     1       9.514   0.743  21.973  0.00  0.00    +0.065 C 
ATOM     12  C   UNL     1       7.978  -1.184  24.142  0.00  0.00    +0.079 A 
ATOM     13  C   UNL     1       7.093  -2.278  24.273  0.00  0.00    +0.036 A 
ENDROOT
BRANCH   1  15
ATOM     14  C   UNL     1       5.721  -5.381  23.726  0.00  0.00    +0.056 A 
ATOM     15  C   UNL     1       6.549  -4.751  24.671  0.00  0.00    +0.043 A 
ATOM     16  C   UNL     1       6.388  -5.315  25.954  0.00  0.00    +0.129 A 
ATOM     17  N   UNL     1       5.502  -6.273  26.281  0.00  0.00    -0.199 NA
ATOM     18  C   UNL     1       4.761  -6.767  25.302  0.00  0.00    +0.214 A 
ATOM     19  N   UNL     1       3.849  -7.756  25.610  0.00  0.00    -0.327 N 
ATOM     20  H   UNL     1       3.578  -7.685  26.579  0.00  0.00    +0.145 HD
ATOM     21  H   UNL     1       3.111  -7.763  24.920  0.00  0.00    +0.145 HD
ATOM     22  N   UNL     1       4.833  -6.365  24.043  0.00  0.00    -0.219 NA
BRANCH  16  23
ATOM     23  N   UNL     1       7.178  -4.949  27.050  0.00  0.00    -0.343 N 
ATOM     24  H   UNL     1       7.952  -5.597  27.163  0.00  0.00    +0.144 HD
ATOM     25  H   UNL     1       6.561  -4.966  27.861  0.00  0.00    +0.144 HD
ENDBRANCH  16  23
BRANCH  14  27
ATOM     26  C   UNL     1       6.818  -6.017  21.577  0.00  0.00    +0.010 C 
ATOM     27  C   UNL     1       5.750  -5.144  22.238  0.00  0.00    +0.053 C 
ENDBRANCH  14  27
ENDBRANCH   1  15
BRANCH   8  28
ATOM     28  C   UNL     1       6.151   0.576  24.317  0.00  0.00    +0.132 C 
BRANCH  28  29
ATOM     29  C   UNL     1       5.606   0.359  25.748  0.00  0.00    +0.123 C 
BRANCH  29  30
ATOM     30  N   UNL     1       5.883   1.450  26.659  0.00  0.00    -0.314 N 
ATOM     31  H   UNL     1       5.198   2.194  26.715  0.00  0.00    +0.149 HD
ATOM     32  C   UNL     1       6.818   1.329  27.653  0.00  0.00    +0.210 C 
ATOM     33  O   UNL     1       7.553   0.358  27.789  0.00  0.00    -0.276 OA
ATOM     34  C   UNL     1       6.887   2.516  28.578  0.00  0.00    +0.109 C 
ENDBRANCH  29  30
ENDBRANCH  28  29
ENDBRANCH   8  28
TORSDOF 6
ENDMDL
MODEL 4
REMARK VINA RESULT:      -7.0      1.340      1.904
REMARK  Name = 
REMARK  10 active torsions:
REMARK  status: ('A' for Active; 'I' for Inactive)
REMARK    1  A    between atoms: C_1  and  C_2
REMARK    2  A    between atoms: C_2  and  C_3
REMARK    3  A    between atoms: C_8  and  N_9
REMARK    4  A    between atoms: C_10  and  C_11
REMARK    5  A    between atoms: C_16  and  C_17
REMARK    6  A    between atoms: C_16  and  C_18
REMARK    7  A    between atoms: N_21  and  C_22
REMARK    8  A    between atoms: C_22  and  C_23
REMARK    9  A    between atoms: C_23  and  N_24
REMARK   10  A    between atoms: C_25  and  C_26
REMARK                            x       y       z     vdW  Elec       q    Type
REMARK                         _______ _______ _______ _____ _____    ______ ____
ROOT
ATOM      1  C   UNL     1       7.117  -3.576  24.802  0.00  0.00    -0.011 A 
ATOM      2  C   UNL     1       7.388  -3.803  23.444  0.00  0.00    +0.012 A 
ATOM      3  C   UNL     1       7.932  -2.825  22.609  0.00  0.00    +0.048 A 
ATOM      4  C   UNL     1       8.264  -1.580  23.117  0.00  0.00    +0.143 A 
ATOM      5  O   UNL     1       8.817  -0.716  22.209  0.00  0.00    -0.475 OA
ATOM      6  C   UNL     1       8.837   0.641  22.644  0.00  0.00    +0.181 C 
ATOM      7  C   UNL     1       9.247   0.789  24.117  0.00  0.00    +0.263 C 
ATOM      8  N   UNL     1       8.478  -0.011  24.968  0.00  0.00    -0.263 N 
ATOM      9  O   UNL     1      10.065   1.620  24.501  0.00  0.00    -0.271 OA
ATOM     10  C   UNL     1       9.818   1.388  21.736  0.00  0.00    +0.065 C 
ATOM     11  C   UNL     1       7.437   1.260  22.469  0.00  0.00    +0.065 C 
ATOM     12  C   UNL     1       8.032  -1.277  24.464  0.00  0.00    +0.079 A 
ATOM     13  C   UNL     1       7.422  -2.267  25.267  0.00  0.00    +0.036 A 
ENDROOT
BRANCH   1  15
ATOM     14  C   UNL     1       5.263  -5.122  25.786  0.00  0.00    +0.056 A 
ATOM     15  C   UNL     1       6.585  -4.645  25.733  0.00  0.00    +0.043 A 
ATOM     16  C   UNL     1       7.410  -5.311  26.663  0.00  0.00    +0.129 A 
ATOM     17  N   UNL     1       6.998  -6.226  27.559  0.00  0.00    -0.199 NA
ATOM     18  C   UNL     1       5.721  -6.571  27.523  0.00  0.00    +0.214 A 
ATOM     19  N   UNL     1       5.275  -7.513  28.427  0.00  0.00    -0.327 N 
ATOM     20  H   UNL     1       5.864  -7.512  29.246  0.00  0.00    +0.145 HD
ATOM     21  H   UNL     1       4.280  -7.402  28.569  0.00  0.00    +0.145 HD
ATOM     22  N   UNL     1       4.839  -6.062  26.677  0.00  0.00    -0.219 NA
BRANCH  16  23
ATOM     23  N   UNL     1       8.793  -5.107  26.735  0.00  0.00    -0.343 N 
ATOM     24  H   UNL     1       9.288  -5.990  26.649  0.00  0.00    +0.144 HD
ATOM     25  H   UNL     1       8.968  -4.672  27.640  0.00  0.00    +0.144 HD
ENDBRANCH  16  23
BRANCH  14  27
ATOM     26  C   UNL     1       3.520  -3.422  25.240  0.00  0.00    +0.010 C 
ATOM     27  C   UNL     1       4.159  -4.751  24.831  0.00  0.00    +0.053 C 
ENDBRANCH  14  27
ENDBRANCH   1  15
BRANCH   8  28
ATOM     28  C   UNL     1       8.330   0.376  26.374  0.00  0.00    +0.132 C 
BRANCH  28  29
ATOM     29  C   UNL     1       7.149   1.343  26.624  0.00  0.00    +0.123 C 
BRANCH  29  30
ATOM     30  N   UNL     1       5.989   0.719  27.224  0.00  0.00    -0.314 N 
ATOM     31  H   UNL     1       5.849   0.858  28.218  0.00  0.00    +0.149 HD
ATOM     32  C   UNL     1       4.943   0.273  26.460  0.00  0.00    +0.210 C 
ATOM     33  O   UNL     1       4.943   0.266  25.235  0.00  0.00    -0.276 OA
ATOM     34  C   UNL     1       3.772  -0.237  27.259  0.00  0.00    +0.109 C 
ENDBRANCH  29  30
ENDBRANCH  28  29
ENDBRANCH   8  28
TORSDOF 6
ENDMDL
MODEL 5
REMARK VINA RESULT:      -6.9      3.110      8.098
REMARK  Name = 
REMARK  10 active torsions:
REMARK  status: ('A' for Active; 'I' for Inactive)
REMARK    1  A    between atoms: C_1  and  C_2
REMARK    2  A    between atoms: C_2  and  C_3
REMARK    3  A    between atoms: C_8  and  N_9
REMARK    4  A    between atoms: C_10  and  C_11
REMARK    5  A    between atoms: C_16  and  C_17
REMARK    6  A    between atoms: C_16  and  C_18
REMARK    7  A    between atoms: N_21  and  C_22
REMARK    8  A    between atoms: C_22  and  C_23
REMARK    9  A    between atoms: C_23  and  N_24
REMARK   10  A    between atoms: C_25  and  C_26
REMARK                            x       y       z     vdW  Elec       q    Type
REMARK                         _______ _______ _______ _____ _____    ______ ____
ROOT
ATOM      1  C   UNL     1       7.456   0.748  24.522  0.00  0.00    -0.011 A 
ATOM      2  C   UNL     1       7.753   0.658  25.891  0.00  0.00    +0.012 A 
ATOM      3  C   UNL     1       7.929  -0.562  26.546  0.00  0.00    +0.048 A 
ATOM      4  C   UNL     1       7.851  -1.751  25.841  0.00  0.00    +0.143 A 
ATOM      5  O   UNL     1       8.072  -2.879  26.586  0.00  0.00    -0.475 OA
ATOM      6  C   UNL     1       7.661  -4.083  25.945  0.00  0.00    +0.181 C 
ATOM      7  C   UNL     1       8.036  -4.123  24.456  0.00  0.00    +0.263 C 
ATOM      8  N   UNL     1       7.589  -2.994  23.762  0.00  0.00    -0.263 N 
ATOM      9  O   UNL     1       8.549  -5.103  23.924  0.00  0.00    -0.271 OA
ATOM     10  C   UNL     1       8.324  -5.241  26.697  0.00  0.00    +0.065 C 
ATOM     11  C   UNL     1       6.131  -4.234  26.061  0.00  0.00    +0.065 C 
ATOM     12  C   UNL     1       7.566  -1.747  24.470  0.00  0.00    +0.079 A 
ATOM     13  C   UNL     1       7.330  -0.500  23.849  0.00  0.00    +0.036 A 
ENDROOT
BRANCH   1  15
ATOM     14  C   UNL     1       8.368   2.815  23.223  0.00  0.00    +0.056 A 
ATOM     15  C   UNL     1       7.322   2.063  23.785  0.00  0.00    +0.043 A 
ATOM     16  C   UNL     1       6.070   2.677  23.563  0.00  0.00    +0.129 A 
ATOM     17  N   UNL     1       5.879   3.869  22.971  0.00  0.00    -0.199 NA
ATOM     18  C   UNL     1       6.951   4.490  22.506  0.00  0.00    +0.214 A 
ATOM     19  N   UNL     1       6.780   5.711  21.888  0.00  0.00    -0.327 N 
ATOM     20  H   UNL     1       5.940   6.156  22.228  0.00  0.00    +0.145 HD
ATOM     21  H   UNL     1       7.640   6.240  21.939  0.00  0.00    +0.145 HD
ATOM     22  N   UNL     1       8.183   4.015  22.604  0.00  0.00    -0.219 NA
BRANCH  16  23
ATOM     23  N   UNL     1       4.856   2.077  23.920  0.00  0.00    -0.343 N 
ATOM     24  H   UNL     1       4.992   1.092  24.122  0.00  0.00    +0.144 HD
ATOM     25  H   UNL     1       4.233   2.209  23.124  0.00  0.00    +0.144 HD
ENDBRANCH  16  23
BRANCH  14  27
ATOM     26  C   UNL     1      10.020   1.479  21.913  0.00  0.00    +0.010 C 
ATOM     27  C   UNL     1       9.808   2.381  23.131  0.00  0.00    +0.053 C 
ENDBRANCH  14  27
ENDBRANCH   1  15
BRANCH   8  28
ATOM     28  C   UNL     1       7.358  -3.085  22.318  0.00  0.00    +0.132 C 
BRANCH  28  29
ATOM     29  C   UNL     1       5.860  -3.171  21.941  0.00  0.00    +0.123 C 
BRANCH  29  30
ATOM     30  N   UNL     1       5.079  -4.029  22.805  0.00  0.00    -0.314 N 
ATOM     31  H   UNL     1       4.385  -3.586  23.396  0.00  0.00    +0.149 HD
ATOM     32  C   UNL     1       5.009  -5.381  22.595  0.00  0.00    +0.210 C 
ATOM     33  O   UNL     1       5.664  -5.977  21.748  0.00  0.00    -0.276 OA
ATOM     34  C   UNL     1       4.056  -6.098  23.515  0.00  0.00    +0.109 C 
ENDBRANCH  29  30
ENDBRANCH  28  29
ENDBRANCH   8  28
TORSDOF 6
ENDMDL
MODEL 6
REMARK VINA RESULT:      -6.9      2.224      2.995
REMARK  Name = 
REMARK  10 active torsions:
REMARK  status: ('A' for Active; 'I' for Inactive)
REMARK    1  A    between atoms: C_1  and  C_2
REMARK    2  A    between atoms: C_2  and  C_3
REMARK    3  A    between atoms: C_8  and  N_9
REMARK    4  A    between atoms: C_10  and  C_11
REMARK    5  A    between atoms: C_16  and  C_17
REMARK    6  A    between atoms: C_16  and  C_18
REMARK    7  A    between atoms: N_21  and  C_22
REMARK    8  A    between atoms: C_22  and  C_23
REMARK    9  A    between atoms: C_23  and  N_24
REMARK   10  A    between atoms: C_25  and  C_26
REMARK                            x       y       z     vdW  Elec       q    Type
REMARK                         _______ _______ _______ _____ _____    ______ ____
ROOT
ATOM      1  C   UNL     1       7.758  -2.800  23.742  0.00  0.00    -0.011 A 
ATOM      2  C   UNL     1       9.142  -2.982  23.595  0.00  0.00    +0.012 A 
ATOM      3  C   UNL     1      10.041  -1.916  23.527  0.00  0.00    +0.048 A 
ATOM      4  C   UNL     1       9.587  -0.614  23.642  0.00  0.00    +0.143 A 
ATOM      5  O   UNL     1      10.566   0.344  23.591  0.00  0.00    -0.475 OA
ATOM      6  C   UNL     1      10.071   1.662  23.370  0.00  0.00    +0.181 C 
ATOM      7  C   UNL     1       8.809   1.970  24.188  0.00  0.00    +0.263 C 
ATOM      8  N   UNL     1       7.808   1.010  24.009  0.00  0.00    -0.263 N 
ATOM      9  O   UNL     1       8.661   3.015  24.816  0.00  0.00    -0.271 OA
ATOM     10  C   UNL     1      11.198   2.632  23.735  0.00  0.00    +0.065 C 
ATOM     11  C   UNL     1       9.733   1.843  21.877  0.00  0.00    +0.065 C 
ATOM     12  C   UNL     1       8.222  -0.347  23.799  0.00  0.00    +0.079 A 
ATOM     13  C   UNL     1       7.332  -1.445  23.800  0.00  0.00    +0.036 A 
ENDROOT
BRANCH   1  15
ATOM     14  C   UNL     1       6.466  -4.641  25.060  0.00  0.00    +0.056 A 
ATOM     15  C   UNL     1       6.779  -3.947  23.878  0.00  0.00    +0.043 A 
ATOM     16  C   UNL     1       6.036  -4.435  22.782  0.00  0.00    +0.129 A 
ATOM     17  N   UNL     1       5.194  -5.484  22.814  0.00  0.00    -0.199 NA
ATOM     18  C   UNL     1       5.005  -6.069  23.985  0.00  0.00    +0.214 A 
ATOM     19  N   UNL     1       4.141  -7.143  24.045  0.00  0.00    -0.327 N 
ATOM     20  H   UNL     1       4.086  -7.593  23.144  0.00  0.00    +0.145 HD
ATOM     21  H   UNL     1       4.374  -7.720  24.841  0.00  0.00    +0.145 HD
ATOM     22  N   UNL     1       5.601  -5.693  25.106  0.00  0.00    -0.219 NA
BRANCH  16  23
ATOM     23  N   UNL     1       6.073  -3.842  21.514  0.00  0.00    -0.343 N 
ATOM     24  H   UNL     1       5.856  -4.526  20.796  0.00  0.00    +0.144 HD
ATOM     25  H   UNL     1       7.016  -3.475  21.402  0.00  0.00    +0.144 HD
ENDBRANCH  16  23
BRANCH  14  27
ATOM     26  C   UNL     1       8.297  -4.948  26.726  0.00  0.00    +0.010 C 
ATOM     27  C   UNL     1       6.949  -4.283  26.440  0.00  0.00    +0.053 C 
ENDBRANCH  14  27
ENDBRANCH   1  15
BRANCH   8  28
ATOM     28  C   UNL     1       6.409   1.382  24.237  0.00  0.00    +0.132 C 
BRANCH  28  29
ATOM     29  C   UNL     1       5.818   2.265  23.112  0.00  0.00    +0.123 C 
BRANCH  29  30
ATOM     30  N   UNL     1       5.710   3.667  23.455  0.00  0.00    -0.314 N 
ATOM     31  H   UNL     1       5.273   3.897  24.339  0.00  0.00    +0.149 HD
ATOM     32  C   UNL     1       6.463   4.617  22.817  0.00  0.00    +0.210 C 
ATOM     33  O   UNL     1       7.193   4.385  21.860  0.00  0.00    -0.276 OA
ATOM     34  C   UNL     1       6.310   6.004  23.384  0.00  0.00    +0.109 C 
ENDBRANCH  29  30
ENDBRANCH  28  29
ENDBRANCH   8  28
TORSDOF 6
ENDMDL
MODEL 7
REMARK VINA RESULT:      -6.9      2.080      2.919
REMARK  Name = 
REMARK  10 active torsions:
REMARK  status: ('A' for Active; 'I' for Inactive)
REMARK    1  A    between atoms: C_1  and  C_2
REMARK    2  A    between atoms: C_2  and  C_3
REMARK    3  A    between atoms: C_8  and  N_9
REMARK    4  A    between atoms: C_10  and  C_11
REMARK    5  A    between atoms: C_16  and  C_17
REMARK    6  A    between atoms: C_16  and  C_18
REMARK    7  A    between atoms: N_21  and  C_22
REMARK    8  A    between atoms: C_22  and  C_23
REMARK    9  A    between atoms: C_23  and  N_24
REMARK   10  A    between atoms: C_25  and  C_26
REMARK                            x       y       z     vdW  Elec       q    Type
REMARK                         _______ _______ _______ _____ _____    ______ ____
ROOT
ATOM      1  C   UNL     1       7.587  -3.079  23.782  0.00  0.00    -0.011 A 
ATOM      2  C   UNL     1       8.977  -3.269  23.760  0.00  0.00    +0.012 A 
ATOM      3  C   UNL     1       9.884  -2.208  23.710  0.00  0.00    +0.048 A 
ATOM      4  C   UNL     1       9.428  -0.901  23.717  0.00  0.00    +0.143 A 
ATOM      5  O   UNL     1      10.412   0.052  23.695  0.00  0.00    -0.475 OA
ATOM      6  C   UNL     1       9.943   1.356  23.363  0.00  0.00    +0.181 C 
ATOM      7  C   UNL     1       8.619   1.709  24.057  0.00  0.00    +0.263 C 
ATOM      8  N   UNL     1       7.632   0.741  23.848  0.00  0.00    -0.263 N 
ATOM      9  O   UNL     1       8.425   2.786  24.614  0.00  0.00    -0.271 OA
ATOM     10  C   UNL     1      11.041   2.344  23.768  0.00  0.00    +0.065 C 
ATOM     11  C   UNL     1       9.731   1.457  21.840  0.00  0.00    +0.065 C 
ATOM     12  C   UNL     1       8.056  -0.626  23.745  0.00  0.00    +0.079 A 
ATOM     13  C   UNL     1       7.164  -1.722  23.732  0.00  0.00    +0.036 A 
ENDROOT
BRANCH   1  15
ATOM     14  C   UNL     1       6.196  -4.858  25.083  0.00  0.00    +0.056 A 
ATOM     15  C   UNL     1       6.595  -4.216  23.898  0.00  0.00    +0.043 A 
ATOM     16  C   UNL     1       5.928  -4.749  22.775  0.00  0.00    +0.129 A 
ATOM     17  N   UNL     1       5.080  -5.794  22.792  0.00  0.00    -0.199 NA
ATOM     18  C   UNL     1       4.806  -6.327  23.971  0.00  0.00    +0.214 A 
ATOM     19  N   UNL     1       3.934  -7.395  24.016  0.00  0.00    -0.327 N 
ATOM     20  H   UNL     1       3.941  -7.884  23.134  0.00  0.00    +0.145 HD
ATOM     21  H   UNL     1       4.108  -7.939  24.851  0.00  0.00    +0.145 HD
ATOM     22  N   UNL     1       5.324  -5.905  25.114  0.00  0.00    -0.219 NA
BRANCH  16  23
ATOM     23  N   UNL     1       6.057  -4.212  21.488  0.00  0.00    -0.343 N 
ATOM     24  H   UNL     1       6.713  -4.760  20.939  0.00  0.00    +0.144 HD
ATOM     25  H   UNL     1       6.387  -3.257  21.613  0.00  0.00    +0.144 HD
ENDBRANCH  16  23
BRANCH  14  27
ATOM     26  C   UNL     1       7.829  -5.200  26.938  0.00  0.00    +0.010 C 
ATOM     27  C   UNL     1       6.582  -4.441  26.478  0.00  0.00    +0.053 C 
ENDBRANCH  14  27
ENDBRANCH   1  15
BRANCH   8  28
ATOM     28  C   UNL     1       6.221   1.124  23.939  0.00  0.00    +0.132 C 
BRANCH  28  29
ATOM     29  C   UNL     1       5.608   0.885  25.338  0.00  0.00    +0.123 C 
BRANCH  29  30
ATOM     30  N   UNL     1       5.950   1.896  26.316  0.00  0.00    -0.314 N 
ATOM     31  H   UNL     1       5.377   2.731  26.341  0.00  0.00    +0.149 HD
ATOM     32  C   UNL     1       6.759   1.610  27.384  0.00  0.00    +0.210 C 
ATOM     33  O   UNL     1       7.330   0.538  27.545  0.00  0.00    -0.276 OA
ATOM     34  C   UNL     1       6.909   2.747  28.362  0.00  0.00    +0.109 C 
ENDBRANCH  29  30
ENDBRANCH  28  29
ENDBRANCH   8  28
TORSDOF 6
ENDMDL
MODEL 8
REMARK VINA RESULT:      -6.8      2.993      7.658
REMARK  Name = 
REMARK  10 active torsions:
REMARK  status: ('A' for Active; 'I' for Inactive)
REMARK    1  A    between atoms: C_1  and  C_2
REMARK    2  A    between atoms: C_2  and  C_3
REMARK    3  A    between atoms: C_8  and  N_9
REMARK    4  A    between atoms: C_10  and  C_11
REMARK    5  A    between atoms: C_16  and  C_17
REMARK    6  A    between atoms: C_16  and  C_18
REMARK    7  A    between atoms: N_21  and  C_22
REMARK    8  A    between atoms: C_22  and  C_23
REMARK    9  A    between atoms: C_23  and  N_24
REMARK   10  A    between atoms: C_25  and  C_26
REMARK                            x       y       z     vdW  Elec       q    Type
REMARK                         _______ _______ _______ _____ _____    ______ ____
ROOT
ATOM      1  C   UNL     1       8.554   0.463  22.854  0.00  0.00    -0.011 A 
ATOM      2  C   UNL     1       9.158  -0.261  21.814  0.00  0.00    +0.012 A 
ATOM      3  C   UNL     1       8.956  -1.630  21.630  0.00  0.00    +0.048 A 
ATOM      4  C   UNL     1       8.102  -2.327  22.467  0.00  0.00    +0.143 A 
ATOM      5  O   UNL     1       7.960  -3.656  22.168  0.00  0.00    -0.475 OA
ATOM      6  C   UNL     1       7.366  -4.421  23.213  0.00  0.00    +0.181 C 
ATOM      7  C   UNL     1       6.179  -3.706  23.875  0.00  0.00    +0.263 C 
ATOM      8  N   UNL     1       6.506  -2.416  24.306  0.00  0.00    -0.263 N 
ATOM      9  O   UNL     1       5.113  -4.265  24.113  0.00  0.00    -0.271 OA
ATOM     10  C   UNL     1       6.916  -5.749  22.597  0.00  0.00    +0.065 C 
ATOM     11  C   UNL     1       8.418  -4.717  24.300  0.00  0.00    +0.065 C 
ATOM     12  C   UNL     1       7.454  -1.676  23.524  0.00  0.00    +0.079 A 
ATOM     13  C   UNL     1       7.730  -0.305  23.722  0.00  0.00    +0.036 A 
ENDROOT
BRANCH   1  15
ATOM     14  C   UNL     1       7.775   2.945  22.690  0.00  0.00    +0.056 A 
ATOM     15  C   UNL     1       8.717   1.958  23.030  0.00  0.00    +0.043 A 
ATOM     16  C   UNL     1       9.876   2.526  23.599  0.00  0.00    +0.129 A 
ATOM     17  N   UNL     1      10.115   3.843  23.733  0.00  0.00    -0.199 NA
ATOM     18  C   UNL     1       9.157   4.671  23.351  0.00  0.00    +0.214 A 
ATOM     19  N   UNL     1       9.375   6.027  23.486  0.00  0.00    -0.327 N 
ATOM     20  H   UNL     1      10.365   6.220  23.468  0.00  0.00    +0.145 HD
ATOM     21  H   UNL     1       8.791   6.530  22.832  0.00  0.00    +0.145 HD
ATOM     22  N   UNL     1       8.000   4.281  22.839  0.00  0.00    -0.219 NA
BRANCH  16  23
ATOM     23  N   UNL     1      10.918   1.757  24.130  0.00  0.00    -0.343 N 
ATOM     24  H   UNL     1      11.616   2.354  24.563  0.00  0.00    +0.144 HD
ATOM     25  H   UNL     1      11.311   1.237  23.347  0.00  0.00    +0.144 HD
ENDBRANCH  16  23
BRANCH  14  27
ATOM     26  C   UNL     1       5.382   2.778  23.376  0.00  0.00    +0.010 C 
ATOM     27  C   UNL     1       6.370   2.688  22.211  0.00  0.00    +0.053 C 
ENDBRANCH  14  27
ENDBRANCH   1  15
BRANCH   8  28
ATOM     28  C   UNL     1       5.740  -1.810  25.397  0.00  0.00    +0.132 C 
BRANCH  28  29
ATOM     29  C   UNL     1       6.143  -2.333  26.796  0.00  0.00    +0.123 C 
BRANCH  29  30
ATOM     30  N   UNL     1       5.459  -3.545  27.195  0.00  0.00    -0.314 N 
ATOM     31  H   UNL     1       4.468  -3.607  26.995  0.00  0.00    +0.149 HD
ATOM     32  C   UNL     1       6.151  -4.688  27.494  0.00  0.00    +0.210 C 
ATOM     33  O   UNL     1       7.373  -4.756  27.550  0.00  0.00    -0.276 OA
ATOM     34  C   UNL     1       5.274  -5.882  27.770  0.00  0.00    +0.109 C 
ENDBRANCH  29  30
ENDBRANCH  28  29
ENDBRANCH   8  28
TORSDOF 6
ENDMDL
MODEL 9
REMARK VINA RESULT:      -6.7      1.291      2.169
REMARK  Name = 
REMARK  10 active torsions:
REMARK  status: ('A' for Active; 'I' for Inactive)
REMARK    1  A    between atoms: C_1  and  C_2
REMARK    2  A    between atoms: C_2  and  C_3
REMARK    3  A    between atoms: C_8  and  N_9
REMARK    4  A    between atoms: C_10  and  C_11
REMARK    5  A    between atoms: C_16  and  C_17
REMARK    6  A    between atoms: C_16  and  C_18
REMARK    7  A    between atoms: N_21  and  C_22
REMARK    8  A    between atoms: C_22  and  C_23
REMARK    9  A    between atoms: C_23  and  N_24
REMARK   10  A    between atoms: C_25  and  C_26
REMARK                            x       y       z     vdW  Elec       q    Type
REMARK                         _______ _______ _______ _____ _____    ______ ____
ROOT
ATOM      1  C   UNL     1       7.240  -3.072  24.230  0.00  0.00    -0.011 A 
ATOM      2  C   UNL     1       7.853  -3.253  22.981  0.00  0.00    +0.012 A 
ATOM      3  C   UNL     1       8.482  -2.215  22.291  0.00  0.00    +0.048 A 
ATOM      4  C   UNL     1       8.553  -0.950  22.848  0.00  0.00    +0.143 A 
ATOM      5  O   UNL     1       9.220  -0.023  22.091  0.00  0.00    -0.475 OA
ATOM      6  C   UNL     1       8.998   1.323  22.501  0.00  0.00    +0.181 C 
ATOM      7  C   UNL     1       9.022   1.494  24.027  0.00  0.00    +0.263 C 
ATOM      8  N   UNL     1       8.154   0.611  24.677  0.00  0.00    -0.263 N 
ATOM      9  O   UNL     1       9.635   2.399  24.587  0.00  0.00    -0.271 OA
ATOM     10  C   UNL     1      10.089   2.177  21.848  0.00  0.00    +0.065 C 
ATOM     11  C   UNL     1       7.626   1.801  21.984  0.00  0.00    +0.065 C 
ATOM     12  C   UNL     1       7.973  -0.688  24.095  0.00  0.00    +0.079 A 
ATOM     13  C   UNL     1       7.290  -1.744  24.739  0.00  0.00    +0.036 A 
ENDROOT
BRANCH   1  15
ATOM     14  C   UNL     1       7.224  -4.959  26.028  0.00  0.00    +0.056 A 
ATOM     15  C   UNL     1       6.608  -4.200  25.017  0.00  0.00    +0.043 A 
ATOM     16  C   UNL     1       5.270  -4.600  24.816  0.00  0.00    +0.129 A 
ATOM     17  N   UNL     1       4.661  -5.628  25.434  0.00  0.00    -0.199 NA
ATOM     18  C   UNL     1       5.359  -6.280  26.348  0.00  0.00    +0.214 A 
ATOM     19  N   UNL     1       4.753  -7.334  27.001  0.00  0.00    -0.327 N 
ATOM     20  H   UNL     1       4.025  -7.725  26.423  0.00  0.00    +0.145 HD
ATOM     21  H   UNL     1       5.460  -7.966  27.351  0.00  0.00    +0.145 HD
ATOM     22  N   UNL     1       6.609  -5.990  26.673  0.00  0.00    -0.219 NA
BRANCH  16  23
ATOM     23  N   UNL     1       4.399  -3.930  23.949  0.00  0.00    -0.343 N 
ATOM     24  H   UNL     1       4.652  -2.949  23.878  0.00  0.00    +0.144 HD
ATOM     25  H   UNL     1       3.466  -4.044  24.343  0.00  0.00    +0.144 HD
ENDBRANCH  16  23
BRANCH  14  27
ATOM     26  C   UNL     1       9.681  -5.158  25.641  0.00  0.00    +0.010 C 
ATOM     27  C   UNL     1       8.589  -4.700  26.610  0.00  0.00    +0.053 C 
ENDBRANCH  14  27
ENDBRANCH   1  15
BRANCH   8  28
ATOM     28  C   UNL     1       7.632   0.962  25.999  0.00  0.00    +0.132 C 
BRANCH  28  29
ATOM     29  C   UNL     1       6.470   1.982  25.950  0.00  0.00    +0.123 C 
BRANCH  29  30
ATOM     30  N   UNL     1       6.893   3.356  25.780  0.00  0.00    -0.314 N 
ATOM     31  H   UNL     1       6.680   3.802  24.896  0.00  0.00    +0.149 HD
ATOM     32  C   UNL     1       7.236   4.134  26.854  0.00  0.00    +0.210 C 
ATOM     33  O   UNL     1       7.313   3.720  28.005  0.00  0.00    -0.276 OA
ATOM     34  C   UNL     1       7.534   5.569  26.502  0.00  0.00    +0.109 C 
ENDBRANCH  29  30
ENDBRANCH  28  29
ENDBRANCH   8  28
TORSDOF 6
ENDMDL
