MODEL 1
REMARK VINA RESULT:      -7.4      0.000      0.000
REMARK  Name = 
REMARK  3 active torsions:
REMARK  status: ('A' for Active; 'I' for Inactive)
REMARK    1  A    between atoms: C_1  and  C_2
REMARK    2  A    between atoms: N_6  and  C_7
REMARK    3  A    between atoms: C_7  and  C_8
REMARK                            x       y       z     vdW  Elec       q    Type
REMARK                         _______ _______ _______ _____ _____    ______ ____
ROOT
ATOM      1  C   UNL     1       8.488  -2.689  22.908  0.00  0.00    +0.080 C 
ATOM      2  C   UNL     1       7.413  -3.749  22.752  0.00  0.00    +0.170 C 
ATOM      3  O   UNL     1       6.884  -3.951  21.660  0.00  0.00    -0.292 OA
ATOM      4  C   UNL     1       6.969  -4.411  23.970  0.00  0.00    +0.046 A 
ATOM      5  C   UNL     1       5.904  -5.317  24.156  0.00  0.00    +0.011 A 
ATOM      6  C   UNL     1       5.880  -5.629  25.505  0.00  0.00    +0.053 A 
ATOM      7  N   UNL     1       6.897  -4.945  26.130  0.00  0.00    -0.343 N 
ATOM      8  C   UNL     1       7.093  -5.067  27.562  0.00  0.00    +0.122 C 
ATOM      9  C   UNL     1       6.126  -6.018  28.319  0.00  0.00    +0.026 C 
ATOM     10  C   UNL     1       4.993  -6.744  27.558  0.00  0.00    +0.039 C 
ATOM     11  C   UNL     1       4.959  -6.488  26.091  0.00  0.00    -0.023 A 
ATOM     12  C   UNL     1       4.020  -7.073  25.230  0.00  0.00    +0.006 A 
ATOM     13  C   UNL     1       4.013  -6.789  23.862  0.00  0.00    +0.001 A 
ATOM     14  C   UNL     1       4.946  -5.906  23.314  0.00  0.00    +0.011 A 
ATOM     15  C   UNL     1       7.588  -4.207  25.199  0.00  0.00    +0.030 A 
ATOM     16  C   UNL     1       8.785  -3.342  25.415  0.00  0.00    +0.055 C 
ATOM     17  C   UNL     1       9.461  -3.070  24.050  0.00  0.00    +0.019 C 
ENDROOT
BRANCH   1  18
ATOM     18  C   UNL     1       7.746  -1.354  23.053  0.00  0.00    +0.134 C 
BRANCH  18  21
ATOM     19  C   UNL     1       8.555   0.631  25.276  0.00  0.00    +0.086 C 
ATOM     20  C   UNL     1       9.025   0.667  23.869  0.00  0.00    +0.107 A 
ATOM     21  N   UNL     1       8.591  -0.189  22.885  0.00  0.00    -0.334 N 
ATOM     22  C   UNL     1       9.063   0.280  21.689  0.00  0.00    +0.107 A 
ATOM     23  C   UNL     1       9.902   1.317  22.020  0.00  0.00    +0.130 A 
ATOM     24  N   UNL     1       9.875   1.545  23.369  0.00  0.00    -0.241 NA
ENDBRANCH  18  21
ENDBRANCH   1  18
TORSDOF 2
ENDMDL
MODEL 2
REMARK VINA RESULT:      -7.1      1.596      2.568
REMARK  Name = 
REMARK  3 active torsions:
REMARK  status: ('A' for Active; 'I' for Inactive)
REMARK    1  A    between atoms: C_1  and  C_2
REMARK    2  A    between atoms: N_6  and  C_7
REMARK    3  A    between atoms: C_7  and  C_8
REMARK                            x       y       z     vdW  Elec       q    Type
REMARK                         _______ _______ _______ _____ _____    ______ ____
ROOT
ATOM      1  C   UNL     1       9.095  -1.210  24.932  0.00  0.00    +0.080 C 
ATOM      2  C   UNL     1       8.899  -2.407  24.020  0.00  0.00    +0.170 C 
ATOM      3  O   UNL     1       9.627  -2.578  23.042  0.00  0.00    -0.292 OA
ATOM      4  C   UNL     1       7.749  -3.255  24.294  0.00  0.00    +0.046 A 
ATOM      5  C   UNL     1       7.236  -4.334  23.545  0.00  0.00    +0.011 A 
ATOM      6  C   UNL     1       6.111  -4.785  24.217  0.00  0.00    +0.053 A 
ATOM      7  N   UNL     1       5.938  -4.015  25.343  0.00  0.00    -0.343 N 
ATOM      8  C   UNL     1       4.814  -4.251  26.229  0.00  0.00    +0.122 C 
ATOM      9  C   UNL     1       3.862  -5.418  25.850  0.00  0.00    +0.026 C 
ATOM     10  C   UNL     1       4.105  -6.235  24.560  0.00  0.00    +0.039 C 
ATOM     11  C   UNL     1       5.314  -5.837  23.785  0.00  0.00    -0.023 A 
ATOM     12  C   UNL     1       5.711  -6.473  22.601  0.00  0.00    +0.006 A 
ATOM     13  C   UNL     1       6.842  -6.053  21.895  0.00  0.00    +0.001 A 
ATOM     14  C   UNL     1       7.610  -4.980  22.355  0.00  0.00    +0.011 A 
ATOM     15  C   UNL     1       6.945  -3.082  25.417  0.00  0.00    +0.030 A 
ATOM     16  C   UNL     1       7.180  -2.063  26.482  0.00  0.00    +0.055 C 
ATOM     17  C   UNL     1       8.633  -1.546  26.371  0.00  0.00    +0.019 C 
ENDROOT
BRANCH   1  18
ATOM     18  C   UNL     1       8.393  -0.034  24.241  0.00  0.00    +0.134 C 
BRANCH  18  21
ATOM     19  C   UNL     1       9.198   0.200  21.268  0.00  0.00    +0.086 C 
ATOM     20  C   UNL     1       9.618   1.119  22.355  0.00  0.00    +0.107 A 
ATOM     21  N   UNL     1       9.300   0.947  23.682  0.00  0.00    -0.334 N 
ATOM     22  C   UNL     1      10.036   1.847  24.404  0.00  0.00    +0.107 A 
ATOM     23  C   UNL     1      10.652   2.639  23.465  0.00  0.00    +0.130 A 
ATOM     24  N   UNL     1      10.384   2.184  22.203  0.00  0.00    -0.241 NA
ENDBRANCH  18  21
ENDBRANCH   1  18
TORSDOF 2
ENDMDL
MODEL 3
REMARK VINA RESULT:      -7.1      1.383      1.891
REMARK  Name = 
REMARK  3 active torsions:
REMARK  status: ('A' for Active; 'I' for Inactive)
REMARK    1  A    between atoms: C_1  and  C_2
REMARK    2  A    between atoms: N_6  and  C_7
REMARK    3  A    between atoms: C_7  and  C_8
REMARK                            x       y       z     vdW  Elec       q    Type
REMARK                         _______ _______ _______ _____ _____    ______ ____
ROOT
ATOM      1  C   UNL     1       8.988  -4.049  24.463  0.00  0.00    +0.080 C 
ATOM      2  C   UNL     1       7.721  -4.511  23.768  0.00  0.00    +0.170 C 
ATOM      3  O   UNL     1       7.560  -4.318  22.564  0.00  0.00    -0.292 OA
ATOM      4  C   UNL     1       6.680  -5.074  24.615  0.00  0.00    +0.046 A 
ATOM      5  C   UNL     1       5.362  -5.449  24.281  0.00  0.00    +0.011 A 
ATOM      6  C   UNL     1       4.769  -5.898  25.450  0.00  0.00    +0.053 A 
ATOM      7  N   UNL     1       5.688  -5.809  26.468  0.00  0.00    -0.343 N 
ATOM      8  C   UNL     1       5.327  -6.194  27.819  0.00  0.00    +0.122 C 
ATOM      9  C   UNL     1       3.884  -6.727  28.030  0.00  0.00    +0.026 C 
ATOM     10  C   UNL     1       2.895  -6.786  26.843  0.00  0.00    +0.039 C 
ATOM     11  C   UNL     1       3.456  -6.346  25.536  0.00  0.00    -0.023 A 
ATOM     12  C   UNL     1       2.721  -6.348  24.343  0.00  0.00    +0.006 A 
ATOM     13  C   UNL     1       3.283  -5.909  23.141  0.00  0.00    +0.001 A 
ATOM     14  C   UNL     1       4.602  -5.450  23.099  0.00  0.00    +0.011 A 
ATOM     15  C   UNL     1       6.874  -5.323  25.971  0.00  0.00    +0.030 A 
ATOM     16  C   UNL     1       8.155  -5.095  26.702  0.00  0.00    +0.055 C 
ATOM     17  C   UNL     1       9.303  -4.961  25.674  0.00  0.00    +0.019 C 
ENDROOT
BRANCH   1  18
ATOM     18  C   UNL     1       8.786  -2.558  24.759  0.00  0.00    +0.134 C 
BRANCH  18  21
ATOM     19  C   UNL     1       6.663  -0.743  23.441  0.00  0.00    +0.086 C 
ATOM     20  C   UNL     1       8.093  -0.825  23.054  0.00  0.00    +0.107 A 
ATOM     21  N   UNL     1       8.999  -1.696  23.615  0.00  0.00    -0.334 N 
ATOM     22  C   UNL     1      10.142  -1.645  22.864  0.00  0.00    +0.107 A 
ATOM     23  C   UNL     1       9.936  -0.620  21.971  0.00  0.00    +0.130 A 
ATOM     24  N   UNL     1       8.670  -0.119  22.100  0.00  0.00    -0.241 NA
ENDBRANCH  18  21
ENDBRANCH   1  18
TORSDOF 2
ENDMDL
MODEL 4
REMARK VINA RESULT:      -6.9      1.756      2.549
REMARK  Name = 
REMARK  3 active torsions:
REMARK  status: ('A' for Active; 'I' for Inactive)
REMARK    1  A    between atoms: C_1  and  C_2
REMARK    2  A    between atoms: N_6  and  C_7
REMARK    3  A    between atoms: C_7  and  C_8
REMARK                            x       y       z     vdW  Elec       q    Type
REMARK                         _______ _______ _______ _____ _____    ______ ____
ROOT
ATOM      1  C   UNL     1       9.371  -0.258  23.394  0.00  0.00    +0.080 C 
ATOM      2  C   UNL     1       8.878  -1.536  22.740  0.00  0.00    +0.170 C 
ATOM      3  O   UNL     1       8.986  -1.700  21.525  0.00  0.00    -0.292 OA
ATOM      4  C   UNL     1       8.176  -2.480  23.596  0.00  0.00    +0.046 A 
ATOM      5  C   UNL     1       7.491  -3.662  23.249  0.00  0.00    +0.011 A 
ATOM      6  C   UNL     1       6.971  -4.179  24.424  0.00  0.00    +0.053 A 
ATOM      7  N   UNL     1       7.326  -3.349  25.461  0.00  0.00    -0.343 N 
ATOM      8  C   UNL     1       6.893  -3.638  26.815  0.00  0.00    +0.122 C 
ATOM      9  C   UNL     1       6.050  -4.926  27.017  0.00  0.00    +0.026 C 
ATOM     10  C   UNL     1       5.671  -5.807  25.804  0.00  0.00    +0.039 C 
ATOM     11  C   UNL     1       6.213  -5.341  24.497  0.00  0.00    -0.023 A 
ATOM     12  C   UNL     1       5.996  -6.018  23.289  0.00  0.00    +0.006 A 
ATOM     13  C   UNL     1       6.508  -5.534  22.083  0.00  0.00    +0.001 A 
ATOM     14  C   UNL     1       7.252  -4.352  22.049  0.00  0.00    +0.011 A 
ATOM     15  C   UNL     1       8.083  -2.310  24.974  0.00  0.00    +0.030 A 
ATOM     16  C   UNL     1       8.713  -1.193  25.739  0.00  0.00    +0.055 C 
ATOM     17  C   UNL     1       9.799  -0.532  24.857  0.00  0.00    +0.019 C 
ENDROOT
BRANCH   1  18
ATOM     18  C   UNL     1       8.260   0.778  23.185  0.00  0.00    +0.134 C 
BRANCH  18  21
ATOM     19  C   UNL     1       6.844   2.135  25.571  0.00  0.00    +0.086 C 
ATOM     20  C   UNL     1       8.004   2.684  24.826  0.00  0.00    +0.107 A 
ATOM     21  N   UNL     1       8.568   2.088  23.722  0.00  0.00    -0.334 N 
ATOM     22  C   UNL     1       9.453   2.978  23.178  0.00  0.00    +0.107 A 
ATOM     23  C   UNL     1       9.507   4.019  24.073  0.00  0.00    +0.130 A 
ATOM     24  N   UNL     1       8.611   3.826  25.089  0.00  0.00    -0.241 NA
ENDBRANCH  18  21
ENDBRANCH   1  18
TORSDOF 2
ENDMDL
MODEL 5
REMARK VINA RESULT:      -6.8      1.867      7.425
REMARK  Name = 
REMARK  3 active torsions:
REMARK  status: ('A' for Active; 'I' for Inactive)
REMARK    1  A    between atoms: C_1  and  C_2
REMARK    2  A    between atoms: N_6  and  C_7
REMARK    3  A    between atoms: C_7  and  C_8
REMARK                            x       y       z     vdW  Elec       q    Type
REMARK                         _______ _______ _______ _____ _____    ______ ____
ROOT
ATOM      1  C   UNL     1       7.960  -3.687  25.376  0.00  0.00    +0.080 C 
ATOM      2  C   UNL     1       7.663  -2.327  25.980  0.00  0.00    +0.170 C 
ATOM      3  O   UNL     1       6.922  -2.222  26.956  0.00  0.00    -0.292 OA
ATOM      4  C   UNL     1       8.197  -1.170  25.276  0.00  0.00    +0.046 A 
ATOM      5  C   UNL     1       7.968   0.201  25.511  0.00  0.00    +0.011 A 
ATOM      6  C   UNL     1       8.682   0.893  24.546  0.00  0.00    +0.053 A 
ATOM      7  N   UNL     1       9.332  -0.017  23.747  0.00  0.00    -0.343 N 
ATOM      8  C   UNL     1      10.142   0.431  22.630  0.00  0.00    +0.122 C 
ATOM      9  C   UNL     1      10.249   1.966  22.420  0.00  0.00    +0.026 C 
ATOM     10  C   UNL     1       9.479   2.935  23.346  0.00  0.00    +0.039 C 
ATOM     11  C   UNL     1       8.703   2.278  24.434  0.00  0.00    -0.023 A 
ATOM     12  C   UNL     1       7.958   2.990  25.386  0.00  0.00    +0.006 A 
ATOM     13  C   UNL     1       7.229   2.330  26.378  0.00  0.00    +0.001 A 
ATOM     14  C   UNL     1       7.221   0.935  26.447  0.00  0.00    +0.011 A 
ATOM     15  C   UNL     1       9.060  -1.289  24.191  0.00  0.00    +0.030 A 
ATOM     16  C   UNL     1       9.577  -2.582  23.653  0.00  0.00    +0.055 C 
ATOM     17  C   UNL     1       9.359  -3.689  24.712  0.00  0.00    +0.019 C 
ENDROOT
BRANCH   1  18
ATOM     18  C   UNL     1       6.767  -4.016  24.469  0.00  0.00    +0.134 C 
BRANCH  18  21
ATOM     19  C   UNL     1       4.842  -5.713  22.752  0.00  0.00    +0.086 C 
ATOM     20  C   UNL     1       5.145  -5.934  24.188  0.00  0.00    +0.107 A 
ATOM     21  N   UNL     1       5.953  -5.117  24.943  0.00  0.00    -0.334 N 
ATOM     22  C   UNL     1       5.820  -5.496  26.251  0.00  0.00    +0.107 A 
ATOM     23  C   UNL     1       5.056  -6.638  26.214  0.00  0.00    +0.130 A 
ATOM     24  N   UNL     1       4.648  -6.902  24.935  0.00  0.00    -0.241 NA
ENDBRANCH  18  21
ENDBRANCH   1  18
TORSDOF 2
ENDMDL
MODEL 6
REMARK VINA RESULT:      -6.7      3.680      9.100
REMARK  Name = 
REMARK  3 active torsions:
REMARK  status: ('A' for Active; 'I' for Inactive)
REMARK    1  A    between atoms: C_1  and  C_2
REMARK    2  A    between atoms: N_6  and  C_7
REMARK    3  A    between atoms: C_7  and  C_8
REMARK                            x       y       z     vdW  Elec       q    Type
REMARK                         _______ _______ _______ _____ _____    ______ ____
ROOT
ATOM      1  C   UNL     1       7.943   0.757  22.849  0.00  0.00    +0.080 C 
ATOM      2  C   UNL     1       9.199   1.596  22.695  0.00  0.00    +0.170 C 
ATOM      3  O   UNL     1      10.195   1.137  22.138  0.00  0.00    -0.292 OA
ATOM      4  C   UNL     1       9.195   2.901  23.339  0.00  0.00    +0.046 A 
ATOM      5  C   UNL     1      10.249   3.825  23.490  0.00  0.00    +0.011 A 
ATOM      6  C   UNL     1       9.739   4.896  24.205  0.00  0.00    +0.053 A 
ATOM      7  N   UNL     1       8.415   4.645  24.481  0.00  0.00    -0.343 N 
ATOM      8  C   UNL     1       7.631   5.597  25.245  0.00  0.00    +0.122 C 
ATOM      9  C   UNL     1       8.355   6.896  25.692  0.00  0.00    +0.026 C 
ATOM     10  C   UNL     1       9.850   7.108  25.362  0.00  0.00    +0.039 C 
ATOM     11  C   UNL     1      10.478   6.015  24.569  0.00  0.00    -0.023 A 
ATOM     12  C   UNL     1      11.817   6.036  24.155  0.00  0.00    +0.006 A 
ATOM     13  C   UNL     1      12.370   4.978  23.428  0.00  0.00    +0.001 A 
ATOM     14  C   UNL     1      11.597   3.863  23.095  0.00  0.00    +0.011 A 
ATOM     15  C   UNL     1       8.059   3.433  23.941  0.00  0.00    +0.030 A 
ATOM     16  C   UNL     1       6.720   2.774  23.962  0.00  0.00    +0.055 C 
ATOM     17  C   UNL     1       6.689   1.665  22.884  0.00  0.00    +0.019 C 
ENDROOT
BRANCH   1  18
ATOM     18  C   UNL     1       8.180  -0.136  24.073  0.00  0.00    +0.134 C 
BRANCH  18  21
ATOM     19  C   UNL     1       8.323  -2.407  26.162  0.00  0.00    +0.086 C 
ATOM     20  C   UNL     1       8.077  -2.580  24.709  0.00  0.00    +0.107 A 
ATOM     21  N   UNL     1       8.089  -1.555  23.793  0.00  0.00    -0.334 N 
ATOM     22  C   UNL     1       8.048  -2.113  22.544  0.00  0.00    +0.107 A 
ATOM     23  C   UNL     1       7.849  -3.456  22.761  0.00  0.00    +0.130 A 
ATOM     24  N   UNL     1       7.864  -3.733  24.101  0.00  0.00    -0.241 NA
ENDBRANCH  18  21
ENDBRANCH   1  18
TORSDOF 2
ENDMDL
MODEL 7
REMARK VINA RESULT:      -6.7      2.007      3.484
REMARK  Name = 
REMARK  3 active torsions:
REMARK  status: ('A' for Active; 'I' for Inactive)
REMARK    1  A    between atoms: C_1  and  C_2
REMARK    2  A    between atoms: N_6  and  C_7
REMARK    3  A    between atoms: C_7  and  C_8
REMARK                            x       y       z     vdW  Elec       q    Type
REMARK                         _______ _______ _______ _____ _____    ______ ____
ROOT
ATOM      1  C   UNL     1       7.605  -0.100  25.071  0.00  0.00    +0.080 C 
ATOM      2  C   UNL     1       7.254  -1.235  26.016  0.00  0.00    +0.170 C 
ATOM      3  O   UNL     1       7.570  -1.182  27.205  0.00  0.00    -0.292 OA
ATOM      4  C   UNL     1       6.645  -2.415  25.422  0.00  0.00    +0.046 A 
ATOM      5  C   UNL     1       6.348  -3.661  26.012  0.00  0.00    +0.011 A 
ATOM      6  C   UNL     1       5.807  -4.454  25.014  0.00  0.00    +0.053 A 
ATOM      7  N   UNL     1       5.765  -3.724  23.850  0.00  0.00    -0.343 N 
ATOM      8  C   UNL     1       5.262  -4.319  22.627  0.00  0.00    +0.122 C 
ATOM      9  C   UNL     1       4.758  -5.784  22.721  0.00  0.00    +0.026 C 
ATOM     10  C   UNL     1       4.848  -6.555  24.059  0.00  0.00    +0.039 C 
ATOM     11  C   UNL     1       5.395  -5.768  25.200  0.00  0.00    -0.023 A 
ATOM     12  C   UNL     1       5.533  -6.286  26.495  0.00  0.00    +0.006 A 
ATOM     13  C   UNL     1       6.070  -5.517  27.531  0.00  0.00    +0.001 A 
ATOM     14  C   UNL     1       6.488  -4.205  27.300  0.00  0.00    +0.011 A 
ATOM     15  C   UNL     1       6.259  -2.463  24.085  0.00  0.00    +0.030 A 
ATOM     16  C   UNL     1       6.372  -1.324  23.126  0.00  0.00    +0.055 C 
ATOM     17  C   UNL     1       6.569  -0.013  23.924  0.00  0.00    +0.019 C 
ENDROOT
BRANCH   1  18
ATOM     18  C   UNL     1       9.066  -0.328  24.663  0.00  0.00    +0.134 C 
BRANCH  18  21
ATOM     19  C   UNL     1       9.766  -0.658  21.673  0.00  0.00    +0.086 C 
ATOM     20  C   UNL     1       9.854   0.603  22.450  0.00  0.00    +0.107 A 
ATOM     21  N   UNL     1       9.603   0.702  23.798  0.00  0.00    -0.334 N 
ATOM     22  C   UNL     1       9.998   1.949  24.203  0.00  0.00    +0.107 A 
ATOM     23  C   UNL     1      10.324   2.612  23.044  0.00  0.00    +0.130 A 
ATOM     24  N   UNL     1      10.228   1.774  21.967  0.00  0.00    -0.241 NA
ENDBRANCH  18  21
ENDBRANCH   1  18
TORSDOF 2
ENDMDL
MODEL 8
REMARK VINA RESULT:      -6.7      2.993      4.882
REMARK  Name = 
REMARK  3 active torsions:
REMARK  status: ('A' for Active; 'I' for Inactive)
REMARK    1  A    between atoms: C_1  and  C_2
REMARK    2  A    between atoms: N_6  and  C_7
REMARK    3  A    between atoms: C_7  and  C_8
REMARK                            x       y       z     vdW  Elec       q    Type
REMARK                         _______ _______ _______ _____ _____    ______ ____
ROOT
ATOM      1  C   UNL     1       8.933   2.123  22.727  0.00  0.00    +0.080 C 
ATOM      2  C   UNL     1       7.716   1.435  23.317  0.00  0.00    +0.170 C 
ATOM      3  O   UNL     1       6.674   2.060  23.514  0.00  0.00    -0.292 OA
ATOM      4  C   UNL     1       7.888   0.053  23.740  0.00  0.00    +0.046 A 
ATOM      5  C   UNL     1       6.997  -0.784  24.442  0.00  0.00    +0.011 A 
ATOM      6  C   UNL     1       7.649  -1.993  24.626  0.00  0.00    +0.053 A 
ATOM      7  N   UNL     1       8.896  -1.907  24.054  0.00  0.00    -0.343 N 
ATOM      8  C   UNL     1       9.812  -3.030  24.119  0.00  0.00    +0.122 C 
ATOM      9  C   UNL     1       9.296  -4.310  24.830  0.00  0.00    +0.026 C 
ATOM     10  C   UNL     1       7.888  -4.334  25.467  0.00  0.00    +0.039 C 
ATOM     11  C   UNL     1       7.100  -3.081  25.293  0.00  0.00    -0.023 A 
ATOM     12  C   UNL     1       5.796  -2.919  25.781  0.00  0.00    +0.006 A 
ATOM     13  C   UNL     1       5.102  -1.718  25.612  0.00  0.00    +0.001 A 
ATOM     14  C   UNL     1       5.694  -0.641  24.949  0.00  0.00    +0.011 A 
ATOM     15  C   UNL     1       9.054  -0.665  23.488  0.00  0.00    +0.030 A 
ATOM     16  C   UNL     1      10.229  -0.140  22.731  0.00  0.00    +0.055 C 
ATOM     17  C   UNL     1       9.793   1.110  21.931  0.00  0.00    +0.019 C 
ENDROOT
BRANCH   1  18
ATOM     18  C   UNL     1       9.619   2.840  23.896  0.00  0.00    +0.134 C 
BRANCH  18  21
ATOM     19  C   UNL     1      12.063   4.651  23.361  0.00  0.00    +0.086 C 
ATOM     20  C   UNL     1      10.657   5.108  23.485  0.00  0.00    +0.107 A 
ATOM     21  N   UNL     1       9.599   4.285  23.794  0.00  0.00    -0.334 N 
ATOM     22  C   UNL     1       8.513   5.080  24.039  0.00  0.00    +0.107 A 
ATOM     23  C   UNL     1       8.920   6.351  23.710  0.00  0.00    +0.130 A 
ATOM     24  N   UNL     1      10.244   6.356  23.364  0.00  0.00    -0.241 NA
ENDBRANCH  18  21
ENDBRANCH   1  18
TORSDOF 2
ENDMDL
MODEL 9
REMARK VINA RESULT:      -6.7      1.483      7.034
REMARK  Name = 
REMARK  3 active torsions:
REMARK  status: ('A' for Active; 'I' for Inactive)
REMARK    1  A    between atoms: C_1  and  C_2
REMARK    2  A    between atoms: N_6  and  C_7
REMARK    3  A    between atoms: C_7  and  C_8
REMARK                            x       y       z     vdW  Elec       q    Type
REMARK                         _______ _______ _______ _____ _____    ______ ____
ROOT
ATOM      1  C   UNL     1       5.987  -4.011  24.026  0.00  0.00    +0.080 C 
ATOM      2  C   UNL     1       6.865  -3.198  23.092  0.00  0.00    +0.170 C 
ATOM      3  O   UNL     1       7.336  -3.704  22.074  0.00  0.00    -0.292 OA
ATOM      4  C   UNL     1       7.209  -1.852  23.526  0.00  0.00    +0.046 A 
ATOM      5  C   UNL     1       8.108  -0.931  22.952  0.00  0.00    +0.011 A 
ATOM      6  C   UNL     1       8.098   0.192  23.763  0.00  0.00    +0.053 A 
ATOM      7  N   UNL     1       7.221  -0.026  24.798  0.00  0.00    -0.343 N 
ATOM      8  C   UNL     1       7.027   0.984  25.822  0.00  0.00    +0.122 C 
ATOM      9  C   UNL     1       7.831   2.303  25.660  0.00  0.00    +0.026 C 
ATOM     10  C   UNL     1       8.814   2.476  24.479  0.00  0.00    +0.039 C 
ATOM     11  C   UNL     1       8.870   1.325  23.536  0.00  0.00    -0.023 A 
ATOM     12  C   UNL     1       9.685   1.304  22.395  0.00  0.00    +0.006 A 
ATOM     13  C   UNL     1       9.720   0.193  21.548  0.00  0.00    +0.001 A 
ATOM     14  C   UNL     1       8.941  -0.934  21.820  0.00  0.00    +0.011 A 
ATOM     15  C   UNL     1       6.651  -1.269  24.660  0.00  0.00    +0.030 A 
ATOM     16  C   UNL     1       5.619  -1.911  25.527  0.00  0.00    +0.055 C 
ATOM     17  C   UNL     1       4.980  -3.090  24.758  0.00  0.00    +0.019 C 
ENDROOT
BRANCH   1  18
ATOM     18  C   UNL     1       6.945  -4.821  24.907  0.00  0.00    +0.134 C 
BRANCH  18  21
ATOM     19  C   UNL     1       4.659  -6.895  24.787  0.00  0.00    +0.086 C 
ATOM     20  C   UNL     1       5.341  -6.428  26.019  0.00  0.00    +0.107 A 
ATOM     21  N   UNL     1       6.308  -5.450  26.046  0.00  0.00    -0.334 N 
ATOM     22  C   UNL     1       6.538  -5.130  27.357  0.00  0.00    +0.107 A 
ATOM     23  C   UNL     1       5.812  -6.048  28.079  0.00  0.00    +0.130 A 
ATOM     24  N   UNL     1       5.080  -6.846  27.244  0.00  0.00    -0.241 NA
ENDBRANCH  18  21
ENDBRANCH   1  18
TORSDOF 2
ENDMDL
