MODEL 1
REMARK VINA RESULT:      -5.8      0.000      0.000
REMARK  Name = 
REMARK  3 active torsions:
REMARK  status: ('A' for Active; 'I' for Inactive)
REMARK    1  A    between atoms: C_1  and  C_2
REMARK    2  A    between atoms: C_3  and  C_11
REMARK    3  A    between atoms: C_5  and  C_6
REMARK                            x       y       z     vdW  Elec       q    Type
REMARK                         _______ _______ _______ _____ _____    ______ ____
ROOT
ATOM      1  C   UNL     1       7.549   2.743  23.942  0.00  0.00    +0.064 C 
ATOM      2  C   UNL     1       8.971   3.196  23.733  0.00  0.00    +0.024 A 
ATOM      3  N   UNL     1       9.186   4.540  23.972  0.00  0.00    -0.325 N 
ATOM      4  H   UNL     1       8.419   5.128  24.282  0.00  0.00    +0.169 HD
ATOM      5  C   UNL     1      10.394   5.184  23.855  0.00  0.00    +0.266 A 
ATOM      6  O   UNL     1      10.506   6.376  24.118  0.00  0.00    -0.267 OA
ATOM      7  C   UNL     1      11.532   4.352  23.391  0.00  0.00    +0.116 A 
ATOM      8  C   UNL     1      11.316   3.046  23.160  0.00  0.00    +0.034 A 
ATOM      9  C   UNL     1      10.010   2.418  23.348  0.00  0.00    +0.003 A 
ENDROOT
BRANCH   9  10
ATOM     10  C   UNL     1       9.854   0.961  23.166  0.00  0.00    -0.013 A 
ATOM     11  C   UNL     1      10.000   0.104  24.260  0.00  0.00    +0.028 A 
ATOM     12  C   UNL     1       9.888  -1.260  24.048  0.00  0.00    +0.111 A 
ATOM     13  N   UNL     1       9.647  -1.811  22.840  0.00  0.00    -0.263 NA
ATOM     14  C   UNL     1       9.517  -0.964  21.797  0.00  0.00    +0.111 A 
ATOM     15  C   UNL     1       9.613   0.414  21.906  0.00  0.00    +0.028 A 
ENDBRANCH   9  10
BRANCH   7  16
ATOM     16  C   UNL     1      12.805   4.948  23.200  0.00  0.00    +0.105 C 
ATOM     17  N   UNL     1      13.859   5.392  23.003  0.00  0.00    -0.191 NA
ENDBRANCH   7  16
TORSDOF 2
ENDMDL
MODEL 2
REMARK VINA RESULT:      -5.6      8.389     10.321
REMARK  Name = 
REMARK  3 active torsions:
REMARK  status: ('A' for Active; 'I' for Inactive)
REMARK    1  A    between atoms: C_1  and  C_2
REMARK    2  A    between atoms: C_3  and  C_11
REMARK    3  A    between atoms: C_5  and  C_6
REMARK                            x       y       z     vdW  Elec       q    Type
REMARK                         _______ _______ _______ _____ _____    ______ ____
ROOT
ATOM      1  C   UNL     1       8.947  -4.971  25.046  0.00  0.00    +0.064 C 
ATOM      2  C   UNL     1       7.643  -5.355  25.695  0.00  0.00    +0.024 A 
ATOM      3  N   UNL     1       7.748  -5.717  27.024  0.00  0.00    -0.325 N 
ATOM      4  H   UNL     1       8.652  -5.691  27.485  0.00  0.00    +0.169 HD
ATOM      5  C   UNL     1       6.702  -6.100  27.828  0.00  0.00    +0.266 A 
ATOM      6  O   UNL     1       6.878  -6.376  29.010  0.00  0.00    -0.267 OA
ATOM      7  C   UNL     1       5.370  -6.160  27.176  0.00  0.00    +0.116 A 
ATOM      8  C   UNL     1       5.274  -5.806  25.884  0.00  0.00    +0.034 A 
ATOM      9  C   UNL     1       6.427  -5.366  25.100  0.00  0.00    +0.003 A 
ENDROOT
BRANCH   9  10
ATOM     10  C   UNL     1       6.246  -4.903  23.710  0.00  0.00    -0.013 A 
ATOM     11  C   UNL     1       5.851  -3.586  23.462  0.00  0.00    +0.028 A 
ATOM     12  C   UNL     1       5.650  -3.195  22.149  0.00  0.00    +0.111 A 
ATOM     13  N   UNL     1       5.812  -4.016  21.091  0.00  0.00    -0.263 NA
ATOM     14  C   UNL     1       6.186  -5.286  21.355  0.00  0.00    +0.111 A 
ATOM     15  C   UNL     1       6.411  -5.774  22.633  0.00  0.00    +0.028 A 
ENDBRANCH   9  10
BRANCH   7  16
ATOM     16  C   UNL     1       4.243  -6.589  27.923  0.00  0.00    +0.105 C 
ATOM     17  N   UNL     1       3.353  -6.932  28.586  0.00  0.00    -0.191 NA
ENDBRANCH   7  16
TORSDOF 2
ENDMDL
MODEL 3
REMARK VINA RESULT:      -5.4      6.534      9.891
REMARK  Name = 
REMARK  3 active torsions:
REMARK  status: ('A' for Active; 'I' for Inactive)
REMARK    1  A    between atoms: C_1  and  C_2
REMARK    2  A    between atoms: C_3  and  C_11
REMARK    3  A    between atoms: C_5  and  C_6
REMARK                            x       y       z     vdW  Elec       q    Type
REMARK                         _______ _______ _______ _____ _____    ______ ____
ROOT
ATOM      1  C   UNL     1       6.832  -5.907  21.439  0.00  0.00    +0.064 C 
ATOM      2  C   UNL     1       6.221  -5.773  22.809  0.00  0.00    +0.024 A 
ATOM      3  N   UNL     1       5.278  -6.736  23.114  0.00  0.00    -0.325 N 
ATOM      4  H   UNL     1       5.064  -7.465  22.441  0.00  0.00    +0.169 HD
ATOM      5  C   UNL     1       4.589  -6.827  24.299  0.00  0.00    +0.266 A 
ATOM      6  O   UNL     1       3.790  -7.734  24.501  0.00  0.00    -0.267 OA
ATOM      7  C   UNL     1       4.872  -5.765  25.298  0.00  0.00    +0.116 A 
ATOM      8  C   UNL     1       5.790  -4.832  24.996  0.00  0.00    +0.034 A 
ATOM      9  C   UNL     1       6.517  -4.823  23.728  0.00  0.00    +0.003 A 
ENDROOT
BRANCH   9  10
ATOM     10  C   UNL     1       7.580  -3.826  23.488  0.00  0.00    -0.013 A 
ATOM     11  C   UNL     1       8.756  -3.869  24.241  0.00  0.00    +0.028 A 
ATOM     12  C   UNL     1       9.715  -2.895  24.020  0.00  0.00    +0.111 A 
ATOM     13  N   UNL     1       9.577  -1.901  23.118  0.00  0.00    -0.263 NA
ATOM     14  C   UNL     1       8.430  -1.876  22.407  0.00  0.00    +0.111 A 
ATOM     15  C   UNL     1       7.411  -2.803  22.555  0.00  0.00    +0.028 A 
ENDBRANCH   9  10
BRANCH   7  16
ATOM     16  C   UNL     1       4.171  -5.758  26.531  0.00  0.00    +0.105 C 
ATOM     17  N   UNL     1       3.599  -5.814  27.540  0.00  0.00    -0.191 NA
ENDBRANCH   7  16
TORSDOF 2
ENDMDL
MODEL 4
REMARK VINA RESULT:      -5.3      4.015      6.168
REMARK  Name = 
REMARK  3 active torsions:
REMARK  status: ('A' for Active; 'I' for Inactive)
REMARK    1  A    between atoms: C_1  and  C_2
REMARK    2  A    between atoms: C_3  and  C_11
REMARK    3  A    between atoms: C_5  and  C_6
REMARK                            x       y       z     vdW  Elec       q    Type
REMARK                         _______ _______ _______ _____ _____    ______ ____
ROOT
ATOM      1  C   UNL     1       9.056  -4.234  24.846  0.00  0.00    +0.064 C 
ATOM      2  C   UNL     1       8.862  -2.982  24.030  0.00  0.00    +0.024 A 
ATOM      3  N   UNL     1       9.842  -2.024  24.207  0.00  0.00    -0.325 N 
ATOM      4  H   UNL     1      10.619  -2.206  24.834  0.00  0.00    +0.169 HD
ATOM      5  C   UNL     1       9.887  -0.807  23.572  0.00  0.00    +0.266 A 
ATOM      6  O   UNL     1      10.811  -0.024  23.763  0.00  0.00    -0.267 OA
ATOM      7  C   UNL     1       8.755  -0.508  22.659  0.00  0.00    +0.116 A 
ATOM      8  C   UNL     1       7.806  -1.444  22.490  0.00  0.00    +0.034 A 
ATOM      9  C   UNL     1       7.847  -2.738  23.169  0.00  0.00    +0.003 A 
ENDROOT
BRANCH   9  10
ATOM     10  C   UNL     1       6.824  -3.762  22.875  0.00  0.00    -0.013 A 
ATOM     11  C   UNL     1       7.066  -4.722  21.889  0.00  0.00    +0.028 A 
ATOM     12  C   UNL     1       6.070  -5.643  21.609  0.00  0.00    +0.111 A 
ATOM     13  N   UNL     1       4.875  -5.666  22.235  0.00  0.00    -0.263 NA
ATOM     14  C   UNL     1       4.662  -4.725  23.179  0.00  0.00    +0.111 A 
ATOM     15  C   UNL     1       5.593  -3.760  23.530  0.00  0.00    +0.028 A 
ENDBRANCH   9  10
BRANCH   7  16
ATOM     16  C   UNL     1       8.700   0.745  21.997  0.00  0.00    +0.105 C 
ATOM     17  N   UNL     1       8.602   1.783  21.485  0.00  0.00    -0.191 NA
ENDBRANCH   7  16
TORSDOF 2
ENDMDL
MODEL 5
REMARK VINA RESULT:      -5.3      4.438      7.476
REMARK  Name = 
REMARK  3 active torsions:
REMARK  status: ('A' for Active; 'I' for Inactive)
REMARK    1  A    between atoms: C_1  and  C_2
REMARK    2  A    between atoms: C_3  and  C_11
REMARK    3  A    between atoms: C_5  and  C_6
REMARK                            x       y       z     vdW  Elec       q    Type
REMARK                         _______ _______ _______ _____ _____    ______ ____
ROOT
ATOM      1  C   UNL     1       8.982  -0.904  25.768  0.00  0.00    +0.064 C 
ATOM      2  C   UNL     1       8.518  -1.989  24.831  0.00  0.00    +0.024 A 
ATOM      3  N   UNL     1       8.380  -3.233  25.417  0.00  0.00    -0.325 N 
ATOM      4  H   UNL     1       8.570  -3.349  26.407  0.00  0.00    +0.169 HD
ATOM      5  C   UNL     1       7.968  -4.374  24.772  0.00  0.00    +0.266 A 
ATOM      6  O   UNL     1       7.842  -5.434  25.374  0.00  0.00    -0.267 OA
ATOM      7  C   UNL     1       7.696  -4.236  23.319  0.00  0.00    +0.116 A 
ATOM      8  C   UNL     1       7.831  -3.024  22.755  0.00  0.00    +0.034 A 
ATOM      9  C   UNL     1       8.233  -1.842  23.516  0.00  0.00    +0.003 A 
ENDROOT
BRANCH   9  10
ATOM     10  C   UNL     1       8.277  -0.519  22.862  0.00  0.00    -0.013 A 
ATOM     11  C   UNL     1       9.463  -0.073  22.273  0.00  0.00    +0.028 A 
ATOM     12  C   UNL     1       9.482   1.190  21.706  0.00  0.00    +0.111 A 
ATOM     13  N   UNL     1       8.417   2.019  21.690  0.00  0.00    -0.263 NA
ATOM     14  C   UNL     1       7.285   1.570  22.271  0.00  0.00    +0.111 A 
ATOM     15  C   UNL     1       7.165   0.323  22.866  0.00  0.00    +0.028 A 
ENDBRANCH   9  10
BRANCH   7  16
ATOM     16  C   UNL     1       7.308  -5.375  22.567  0.00  0.00    +0.105 C 
ATOM     17  N   UNL     1       6.953  -6.270  21.919  0.00  0.00    -0.191 NA
ENDBRANCH   7  16
TORSDOF 2
ENDMDL
MODEL 6
REMARK VINA RESULT:      -5.3      3.829      6.002
REMARK  Name = 
REMARK  3 active torsions:
REMARK  status: ('A' for Active; 'I' for Inactive)
REMARK    1  A    between atoms: C_1  and  C_2
REMARK    2  A    between atoms: C_3  and  C_11
REMARK    3  A    between atoms: C_5  and  C_6
REMARK                            x       y       z     vdW  Elec       q    Type
REMARK                         _______ _______ _______ _____ _____    ______ ____
ROOT
ATOM      1  C   UNL     1       7.377  -4.191  22.443  0.00  0.00    +0.064 C 
ATOM      2  C   UNL     1       8.131  -2.981  22.931  0.00  0.00    +0.024 A 
ATOM      3  N   UNL     1       8.497  -2.094  21.937  0.00  0.00    -0.325 N 
ATOM      4  H   UNL     1       8.238  -2.279  20.974  0.00  0.00    +0.169 HD
ATOM      5  C   UNL     1       9.184  -0.920  22.134  0.00  0.00    +0.266 A 
ATOM      6  O   UNL     1       9.443  -0.172  21.198  0.00  0.00    -0.267 OA
ATOM      7  C   UNL     1       9.589  -0.631  23.532  0.00  0.00    +0.116 A 
ATOM      8  C   UNL     1       9.229  -1.497  24.494  0.00  0.00    +0.034 A 
ATOM      9  C   UNL     1       8.459  -2.708  24.216  0.00  0.00    +0.003 A 
ENDROOT
BRANCH   9  10
ATOM     10  C   UNL     1       8.015  -3.576  25.325  0.00  0.00    -0.013 A 
ATOM     11  C   UNL     1       6.858  -3.254  26.038  0.00  0.00    +0.028 A 
ATOM     12  C   UNL     1       6.492  -4.066  27.099  0.00  0.00    +0.111 A 
ATOM     13  N   UNL     1       7.192  -5.153  27.485  0.00  0.00    -0.263 NA
ATOM     14  C   UNL     1       8.310  -5.440  26.785  0.00  0.00    +0.111 A 
ATOM     15  C   UNL     1       8.760  -4.690  25.710  0.00  0.00    +0.028 A 
ENDBRANCH   9  10
BRANCH   7  16
ATOM     16  C   UNL     1      10.340   0.539  23.817  0.00  0.00    +0.105 C 
ATOM     17  N   UNL     1      10.949   1.482  24.110  0.00  0.00    -0.191 NA
ENDBRANCH   7  16
TORSDOF 2
ENDMDL
MODEL 7
REMARK VINA RESULT:      -5.1      3.859      6.530
REMARK  Name = 
REMARK  3 active torsions:
REMARK  status: ('A' for Active; 'I' for Inactive)
REMARK    1  A    between atoms: C_1  and  C_2
REMARK    2  A    between atoms: C_3  and  C_11
REMARK    3  A    between atoms: C_5  and  C_6
REMARK                            x       y       z     vdW  Elec       q    Type
REMARK                         _______ _______ _______ _____ _____    ______ ____
ROOT
ATOM      1  C   UNL     1      10.358   1.286  24.435  0.00  0.00    +0.064 C 
ATOM      2  C   UNL     1       9.543   0.125  23.928  0.00  0.00    +0.024 A 
ATOM      3  N   UNL     1      10.122  -1.113  24.128  0.00  0.00    -0.325 N 
ATOM      4  H   UNL     1      11.016  -1.183  24.602  0.00  0.00    +0.169 HD
ATOM      5  C   UNL     1       9.571  -2.317  23.759  0.00  0.00    +0.266 A 
ATOM      6  O   UNL     1      10.138  -3.376  24.003  0.00  0.00    -0.267 OA
ATOM      7  C   UNL     1       8.267  -2.245  23.052  0.00  0.00    +0.116 A 
ATOM      8  C   UNL     1       7.709  -1.038  22.861  0.00  0.00    +0.034 A 
ATOM      9  C   UNL     1       8.335   0.200  23.320  0.00  0.00    +0.003 A 
ENDROOT
BRANCH   9  10
ATOM     10  C   UNL     1       7.632   1.489  23.163  0.00  0.00    -0.013 A 
ATOM     11  C   UNL     1       7.903   2.298  22.056  0.00  0.00    +0.028 A 
ATOM     12  C   UNL     1       7.258   3.520  21.960  0.00  0.00    +0.111 A 
ATOM     13  N   UNL     1       6.381   3.977  22.878  0.00  0.00    -0.263 NA
ATOM     14  C   UNL     1       6.140   3.181  23.941  0.00  0.00    +0.111 A 
ATOM     15  C   UNL     1       6.735   1.944  24.129  0.00  0.00    +0.028 A 
ENDBRANCH   9  10
BRANCH   7  16
ATOM     16  C   UNL     1       7.650  -3.439  22.597  0.00  0.00    +0.105 C 
ATOM     17  N   UNL     1       7.197  -4.446  22.239  0.00  0.00    -0.191 NA
ENDBRANCH   7  16
TORSDOF 2
ENDMDL
MODEL 8
REMARK VINA RESULT:      -5.1      4.060      7.161
REMARK  Name = 
REMARK  3 active torsions:
REMARK  status: ('A' for Active; 'I' for Inactive)
REMARK    1  A    between atoms: C_1  and  C_2
REMARK    2  A    between atoms: C_3  and  C_11
REMARK    3  A    between atoms: C_5  and  C_6
REMARK                            x       y       z     vdW  Elec       q    Type
REMARK                         _______ _______ _______ _____ _____    ______ ____
ROOT
ATOM      1  C   UNL     1      10.173  -0.951  22.373  0.00  0.00    +0.064 C 
ATOM      2  C   UNL     1       9.497  -1.644  23.528  0.00  0.00    +0.024 A 
ATOM      3  N   UNL     1       9.907  -2.947  23.734  0.00  0.00    -0.325 N 
ATOM      4  H   UNL     1      10.623  -3.353  23.140  0.00  0.00    +0.169 HD
ATOM      5  C   UNL     1       9.442  -3.779  24.724  0.00  0.00    +0.266 A 
ATOM      6  O   UNL     1       9.883  -4.915  24.858  0.00  0.00    -0.267 OA
ATOM      7  C   UNL     1       8.384  -3.217  25.600  0.00  0.00    +0.116 A 
ATOM      8  C   UNL     1       7.990  -1.949  25.395  0.00  0.00    +0.034 A 
ATOM      9  C   UNL     1       8.562  -1.107  24.346  0.00  0.00    +0.003 A 
ENDROOT
BRANCH   9  10
ATOM     10  C   UNL     1       8.155   0.307  24.226  0.00  0.00    -0.013 A 
ATOM     11  C   UNL     1       7.057   0.650  23.433  0.00  0.00    +0.028 A 
ATOM     12  C   UNL     1       6.727   1.989  23.308  0.00  0.00    +0.111 A 
ATOM     13  N   UNL     1       7.409   2.986  23.909  0.00  0.00    -0.263 NA
ATOM     14  C   UNL     1       8.470   2.632  24.664  0.00  0.00    +0.111 A 
ATOM     15  C   UNL     1       8.881   1.321  24.851  0.00  0.00    +0.028 A 
ENDBRANCH   9  10
BRANCH   7  16
ATOM     16  C   UNL     1       7.816  -4.025  26.620  0.00  0.00    +0.105 C 
ATOM     17  N   UNL     1       7.350  -4.732  27.414  0.00  0.00    -0.191 NA
ENDBRANCH   7  16
TORSDOF 2
ENDMDL
MODEL 9
REMARK VINA RESULT:      -5.1      6.355      9.529
REMARK  Name = 
REMARK  3 active torsions:
REMARK  status: ('A' for Active; 'I' for Inactive)
REMARK    1  A    between atoms: C_1  and  C_2
REMARK    2  A    between atoms: C_3  and  C_11
REMARK    3  A    between atoms: C_5  and  C_6
REMARK                            x       y       z     vdW  Elec       q    Type
REMARK                         _______ _______ _______ _____ _____    ______ ____
ROOT
ATOM      1  C   UNL     1       7.086  -6.107  21.864  0.00  0.00    +0.064 C 
ATOM      2  C   UNL     1       6.023  -5.403  22.665  0.00  0.00    +0.024 A 
ATOM      3  N   UNL     1       4.825  -6.086  22.755  0.00  0.00    -0.325 N 
ATOM      4  H   UNL     1       4.728  -6.996  22.315  0.00  0.00    +0.169 HD
ATOM      5  C   UNL     1       3.712  -5.653  23.433  0.00  0.00    +0.266 A 
ATOM      6  O   UNL     1       2.696  -6.337  23.490  0.00  0.00    -0.267 OA
ATOM      7  C   UNL     1       3.821  -4.319  24.075  0.00  0.00    +0.116 A 
ATOM      8  C   UNL     1       4.989  -3.660  23.985  0.00  0.00    +0.034 A 
ATOM      9  C   UNL     1       6.148  -4.204  23.281  0.00  0.00    +0.003 A 
ENDROOT
BRANCH   9  10
ATOM     10  C   UNL     1       7.432  -3.475  23.292  0.00  0.00    -0.013 A 
ATOM     11  C   UNL     1       7.699  -2.522  22.306  0.00  0.00    +0.028 A 
ATOM     12  C   UNL     1       8.930  -1.887  22.321  0.00  0.00    +0.111 A 
ATOM     13  N   UNL     1       9.890  -2.138  23.235  0.00  0.00    -0.263 NA
ATOM     14  C   UNL     1       9.612  -3.067  24.173  0.00  0.00    +0.111 A 
ATOM     15  C   UNL     1       8.413  -3.758  24.243  0.00  0.00    +0.028 A 
ENDBRANCH   9  10
BRANCH   7  16
ATOM     16  C   UNL     1       2.703  -3.776  24.758  0.00  0.00    +0.105 C 
ATOM     17  N   UNL     1       1.776  -3.297  25.267  0.00  0.00    -0.191 NA
ENDBRANCH   7  16
TORSDOF 2
ENDMDL
