MODEL 1
REMARK VINA RESULT:      -4.7      0.000      0.000
REMARK  Name = 
REMARK  7 active torsions:
REMARK  status: ('A' for Active; 'I' for Inactive)
REMARK    1  A    between atoms: N_1  and  CA_2
REMARK    2  A    between atoms: CA_2  and  C_4
REMARK    3  A    between atoms: CA_2  and  C_10
REMARK    4  A    between atoms: C_4  and  C_5
REMARK    5  A    between atoms: C_5  and  C_6
REMARK    6  A    between atoms: N_8  and  O_9
REMARK    7  A    between atoms: C_10  and  O_11
REMARK                            x       y       z     vdW  Elec       q    Type
REMARK                         _______ _______ _______ _____ _____    ______ ____
ROOT
ATOM      1  CA  UNL     1       9.080  -4.616  25.573  0.00  0.00    +0.161 C 
ENDROOT
BRANCH   1   2
ATOM      2  N   UNL     1      10.181  -5.618  25.397  0.00  0.00    -0.318 NA
ATOM      3  H1  UNL     1      10.091  -6.040  24.465  0.00  0.00    +0.119 HD
ATOM      4  H2  UNL     1      11.064  -5.099  25.336  0.00  0.00    +0.119 HD
ENDBRANCH   1   2
BRANCH   1   5
ATOM      5  C   UNL     1       7.859  -5.351  26.162  0.00  0.00    +0.322 C 
ATOM      6  OXT UNL     1       6.784  -5.500  25.603  0.00  0.00    -0.249 OA
BRANCH   5   7
ATOM      7  O   UNL     1       8.112  -5.802  27.416  0.00  0.00    -0.480 OA
ATOM      8  H   UNL     1       8.464  -6.721  27.301  0.00  0.00    +0.295 HD
ENDBRANCH   5   7
ENDBRANCH   1   5
BRANCH   1   9
ATOM      9  C   UNL     1       8.782  -3.950  24.226  0.00  0.00    +0.039 C 
BRANCH   9  10
ATOM     10  C   UNL     1       9.661  -2.734  23.928  0.00  0.00    +0.100 C 
BRANCH  10  11
ATOM     11  C   UNL     1       9.084  -1.879  22.822  0.00  0.00    +0.235 C 
ATOM     12  N   UNL     1      10.021  -1.466  21.908  0.00  0.00    -0.197 N 
ATOM     13  H   UNL     1      11.024  -1.529  22.050  0.00  0.00    +0.182 HD
ATOM     14  O   UNL     1       7.897  -1.572  22.728  0.00  0.00    -0.274 OA
BRANCH  12  15
ATOM     15  O   UNL     1       9.569  -0.578  20.906  0.00  0.00    -0.295 OA
ATOM     16  H   UNL     1       9.298   0.209  21.428  0.00  0.00    +0.241 HD
ENDBRANCH  12  15
ENDBRANCH  10  11
ENDBRANCH   9  10
ENDBRANCH   1   9
TORSDOF 7
ENDMDL
MODEL 2
REMARK VINA RESULT:      -4.7      3.353      4.305
REMARK  Name = 
REMARK  7 active torsions:
REMARK  status: ('A' for Active; 'I' for Inactive)
REMARK    1  A    between atoms: N_1  and  CA_2
REMARK    2  A    between atoms: CA_2  and  C_4
REMARK    3  A    between atoms: CA_2  and  C_10
REMARK    4  A    between atoms: C_4  and  C_5
REMARK    5  A    between atoms: C_5  and  C_6
REMARK    6  A    between atoms: N_8  and  O_9
REMARK    7  A    between atoms: C_10  and  O_11
REMARK                            x       y       z     vdW  Elec       q    Type
REMARK                         _______ _______ _______ _____ _____    ______ ____
ROOT
ATOM      1  CA  UNL     1       8.933  -1.940  22.520  0.00  0.00    +0.161 C 
ENDROOT
BRANCH   1   2
ATOM      2  N   UNL     1       7.635  -1.254  22.825  0.00  0.00    -0.318 NA
ATOM      3  H1  UNL     1       7.341  -1.520  23.773  0.00  0.00    +0.119 HD
ATOM      4  H2  UNL     1       7.827  -0.251  22.911  0.00  0.00    +0.119 HD
ENDBRANCH   1   2
BRANCH   1   5
ATOM      5  C   UNL     1       9.582  -2.343  23.859  0.00  0.00    +0.322 C 
ATOM      6  OXT UNL     1      10.075  -3.432  24.108  0.00  0.00    -0.249 OA
BRANCH   5   7
ATOM      7  O   UNL     1       9.516  -1.333  24.764  0.00  0.00    -0.480 OA
ATOM      8  H   UNL     1       8.670  -0.858  24.567  0.00  0.00    +0.295 HD
ENDBRANCH   5   7
ENDBRANCH   1   5
BRANCH   1   9
ATOM      9  C   UNL     1       9.814  -1.005  21.687  0.00  0.00    +0.039 C 
BRANCH   9  10
ATOM     10  C   UNL     1       9.186   0.363  21.416  0.00  0.00    +0.100 C 
BRANCH  10  11
ATOM     11  C   UNL     1       9.663   1.407  22.401  0.00  0.00    +0.235 C 
ATOM     12  N   UNL     1      10.348   2.440  21.810  0.00  0.00    -0.197 N 
ATOM     13  H   UNL     1      10.696   2.422  20.856  0.00  0.00    +0.182 HD
ATOM     14  O   UNL     1       9.469   1.359  23.613  0.00  0.00    -0.274 OA
BRANCH  12  15
ATOM     15  O   UNL     1      10.913   3.397  22.682  0.00  0.00    -0.295 OA
ATOM     16  H   UNL     1      10.200   4.070  22.748  0.00  0.00    +0.241 HD
ENDBRANCH  12  15
ENDBRANCH  10  11
ENDBRANCH   9  10
ENDBRANCH   1   9
TORSDOF 7
ENDMDL
MODEL 3
REMARK VINA RESULT:      -4.6      3.097      4.078
REMARK  Name = 
REMARK  7 active torsions:
REMARK  status: ('A' for Active; 'I' for Inactive)
REMARK    1  A    between atoms: N_1  and  CA_2
REMARK    2  A    between atoms: CA_2  and  C_4
REMARK    3  A    between atoms: CA_2  and  C_10
REMARK    4  A    between atoms: C_4  and  C_5
REMARK    5  A    between atoms: C_5  and  C_6
REMARK    6  A    between atoms: N_8  and  O_9
REMARK    7  A    between atoms: C_10  and  O_11
REMARK                            x       y       z     vdW  Elec       q    Type
REMARK                         _______ _______ _______ _____ _____    ______ ____
ROOT
ATOM      1  CA  UNL     1       8.389  -4.719  24.791  0.00  0.00    +0.161 C 
ENDROOT
BRANCH   1   2
ATOM      2  N   UNL     1       9.564  -5.634  24.613  0.00  0.00    -0.318 NA
ATOM      3  H1  UNL     1      10.418  -5.064  24.587  0.00  0.00    +0.119 HD
ATOM      4  H2  UNL     1       9.668  -6.175  25.477  0.00  0.00    +0.119 HD
ENDBRANCH   1   2
BRANCH   1   5
ATOM      5  C   UNL     1       7.430  -5.372  25.807  0.00  0.00    +0.322 C 
ATOM      6  OXT UNL     1       6.211  -5.381  25.727  0.00  0.00    -0.249 OA
BRANCH   5   7
ATOM      7  O   UNL     1       8.110  -5.925  26.843  0.00  0.00    -0.480 OA
ATOM      8  H   UNL     1       7.770  -5.470  27.654  0.00  0.00    +0.295 HD
ENDBRANCH   5   7
ENDBRANCH   1   5
BRANCH   1   9
ATOM      9  C   UNL     1       7.734  -4.467  23.430  0.00  0.00    +0.039 C 
BRANCH   9  10
ATOM     10  C   UNL     1       7.523  -5.732  22.598  0.00  0.00    +0.100 C 
BRANCH  10  11
ATOM     11  C   UNL     1       6.136  -5.787  21.996  0.00  0.00    +0.235 C 
ATOM     12  N   UNL     1       5.170  -6.177  22.890  0.00  0.00    -0.197 N 
ATOM     13  H   UNL     1       5.365  -6.595  23.795  0.00  0.00    +0.182 HD
ATOM     14  O   UNL     1       5.875  -5.513  20.827  0.00  0.00    -0.274 OA
BRANCH  12  15
ATOM     15  O   UNL     1       3.869  -6.350  22.369  0.00  0.00    -0.295 OA
ATOM     16  H   UNL     1       3.969  -6.042  21.442  0.00  0.00    +0.241 HD
ENDBRANCH  12  15
ENDBRANCH  10  11
ENDBRANCH   9  10
ENDBRANCH   1   9
TORSDOF 7
ENDMDL
MODEL 4
REMARK VINA RESULT:      -4.6      1.596      5.406
REMARK  Name = 
REMARK  7 active torsions:
REMARK  status: ('A' for Active; 'I' for Inactive)
REMARK    1  A    between atoms: N_1  and  CA_2
REMARK    2  A    between atoms: CA_2  and  C_4
REMARK    3  A    between atoms: CA_2  and  C_10
REMARK    4  A    between atoms: C_4  and  C_5
REMARK    5  A    between atoms: C_5  and  C_6
REMARK    6  A    between atoms: N_8  and  O_9
REMARK    7  A    between atoms: C_10  and  O_11
REMARK                            x       y       z     vdW  Elec       q    Type
REMARK                         _______ _______ _______ _____ _____    ______ ____
ROOT
ATOM      1  CA  UNL     1       9.592  -2.471  23.860  0.00  0.00    +0.161 C 
ENDROOT
BRANCH   1   2
ATOM      2  N   UNL     1       9.215  -1.452  24.893  0.00  0.00    -0.318 NA
ATOM      3  H1  UNL     1      10.076  -1.036  25.270  0.00  0.00    +0.119 HD
ATOM      4  H2  UNL     1       8.769  -0.668  24.406  0.00  0.00    +0.119 HD
ENDBRANCH   1   2
BRANCH   1   5
ATOM      5  C   UNL     1       9.384  -1.837  22.470  0.00  0.00    +0.322 C 
ATOM      6  OXT UNL     1       8.306  -1.538  21.981  0.00  0.00    -0.249 OA
BRANCH   5   7
ATOM      7  O   UNL     1      10.565  -1.670  21.821  0.00  0.00    -0.480 OA
ATOM      8  H   UNL     1      11.257  -1.663  22.530  0.00  0.00    +0.295 HD
ENDBRANCH   5   7
ENDBRANCH   1   5
BRANCH   1   9
ATOM      9  C   UNL     1       8.757  -3.737  24.069  0.00  0.00    +0.039 C 
BRANCH   9  10
ATOM     10  C   UNL     1       9.381  -4.739  25.041  0.00  0.00    +0.100 C 
BRANCH  10  11
ATOM     11  C   UNL     1       8.682  -4.735  26.382  0.00  0.00    +0.235 C 
ATOM     12  N   UNL     1       8.228  -5.973  26.763  0.00  0.00    -0.197 N 
ATOM     13  H   UNL     1       8.162  -6.773  26.142  0.00  0.00    +0.182 HD
ATOM     14  O   UNL     1       8.525  -3.736  27.081  0.00  0.00    -0.274 OA
BRANCH  12  15
ATOM     15  O   UNL     1       7.474  -6.023  27.957  0.00  0.00    -0.295 OA
ATOM     16  H   UNL     1       6.752  -6.647  27.725  0.00  0.00    +0.241 HD
ENDBRANCH  12  15
ENDBRANCH  10  11
ENDBRANCH   9  10
ENDBRANCH   1   9
TORSDOF 7
ENDMDL
MODEL 5
REMARK VINA RESULT:      -4.5      1.619      2.000
REMARK  Name = 
REMARK  7 active torsions:
REMARK  status: ('A' for Active; 'I' for Inactive)
REMARK    1  A    between atoms: N_1  and  CA_2
REMARK    2  A    between atoms: CA_2  and  C_4
REMARK    3  A    between atoms: CA_2  and  C_10
REMARK    4  A    between atoms: C_4  and  C_5
REMARK    5  A    between atoms: C_5  and  C_6
REMARK    6  A    between atoms: N_8  and  O_9
REMARK    7  A    between atoms: C_10  and  O_11
REMARK                            x       y       z     vdW  Elec       q    Type
REMARK                         _______ _______ _______ _____ _____    ______ ____
ROOT
ATOM      1  CA  UNL     1       9.064  -4.640  26.242  0.00  0.00    +0.161 C 
ENDROOT
BRANCH   1   2
ATOM      2  N   UNL     1       9.936  -5.459  25.339  0.00  0.00    -0.318 NA
ATOM      3  H1  UNL     1      10.038  -4.960  24.446  0.00  0.00    +0.119 HD
ATOM      4  H2  UNL     1      10.884  -5.443  25.727  0.00  0.00    +0.119 HD
ENDBRANCH   1   2
BRANCH   1   5
ATOM      5  C   UNL     1       7.754  -5.420  26.472  0.00  0.00    +0.322 C 
ATOM      6  OXT UNL     1       6.836  -5.515  25.673  0.00  0.00    -0.249 OA
BRANCH   5   7
ATOM      7  O   UNL     1       7.723  -5.979  27.708  0.00  0.00    -0.480 OA
ATOM      8  H   UNL     1       7.266  -5.317  28.287  0.00  0.00    +0.295 HD
ENDBRANCH   5   7
ENDBRANCH   1   5
BRANCH   1   9
ATOM      9  C   UNL     1       8.835  -3.262  25.613  0.00  0.00    +0.039 C 
BRANCH   9  10
ATOM     10  C   UNL     1       9.446  -3.108  24.219  0.00  0.00    +0.100 C 
BRANCH  10  11
ATOM     11  C   UNL     1       8.388  -3.097  23.138  0.00  0.00    +0.235 C 
ATOM     12  N   UNL     1       7.714  -4.288  23.024  0.00  0.00    -0.197 N 
ATOM     13  H   UNL     1       8.016  -5.158  23.451  0.00  0.00    +0.182 HD
ATOM     14  O   UNL     1       8.136  -2.131  22.422  0.00  0.00    -0.274 OA
BRANCH  12  15
ATOM     15  O   UNL     1       6.784  -4.381  21.965  0.00  0.00    -0.295 OA
ATOM     16  H   UNL     1       6.912  -3.528  21.495  0.00  0.00    +0.241 HD
ENDBRANCH  12  15
ENDBRANCH  10  11
ENDBRANCH   9  10
ENDBRANCH   1   9
TORSDOF 7
ENDMDL
MODEL 6
REMARK VINA RESULT:      -4.5      3.721      6.281
REMARK  Name = 
REMARK  7 active torsions:
REMARK  status: ('A' for Active; 'I' for Inactive)
REMARK    1  A    between atoms: N_1  and  CA_2
REMARK    2  A    between atoms: CA_2  and  C_4
REMARK    3  A    between atoms: CA_2  and  C_10
REMARK    4  A    between atoms: C_4  and  C_5
REMARK    5  A    between atoms: C_5  and  C_6
REMARK    6  A    between atoms: N_8  and  O_9
REMARK    7  A    between atoms: C_10  and  O_11
REMARK                            x       y       z     vdW  Elec       q    Type
REMARK                         _______ _______ _______ _____ _____    ______ ____
ROOT
ATOM      1  CA  UNL     1       9.728   2.540  24.089  0.00  0.00    +0.161 C 
ENDROOT
BRANCH   1   2
ATOM      2  N   UNL     1       8.668   2.289  25.119  0.00  0.00    -0.318 NA
ATOM      3  H1  UNL     1       8.893   1.417  25.612  0.00  0.00    +0.119 HD
ATOM      4  H2  UNL     1       8.768   3.004  25.847  0.00  0.00    +0.119 HD
ENDBRANCH   1   2
BRANCH   1   5
ATOM      5  C   UNL     1       9.036   2.663  22.716  0.00  0.00    +0.322 C 
ATOM      6  OXT UNL     1       7.903   3.076  22.528  0.00  0.00    -0.249 OA
BRANCH   5   7
ATOM      7  O   UNL     1       9.840   2.220  21.717  0.00  0.00    -0.480 OA
ATOM      8  H   UNL     1      10.743   2.567  21.932  0.00  0.00    +0.295 HD
ENDBRANCH   5   7
ENDBRANCH   1   5
BRANCH   1   9
ATOM      9  C   UNL     1      10.759   1.409  24.138  0.00  0.00    +0.039 C 
BRANCH   9  10
ATOM     10  C   UNL     1      10.258   0.143  24.835  0.00  0.00    +0.100 C 
BRANCH  10  11
ATOM     11  C   UNL     1      10.071  -0.999  23.860  0.00  0.00    +0.235 C 
ATOM     12  N   UNL     1      10.383  -0.667  22.565  0.00  0.00    -0.197 N 
ATOM     13  H   UNL     1      10.517   0.285  22.237  0.00  0.00    +0.182 HD
ATOM     14  O   UNL     1       9.681  -2.122  24.172  0.00  0.00    -0.274 OA
BRANCH  12  15
ATOM     15  O   UNL     1      10.132  -1.654  21.587  0.00  0.00    -0.295 OA
ATOM     16  H   UNL     1      10.655  -1.331  20.821  0.00  0.00    +0.241 HD
ENDBRANCH  12  15
ENDBRANCH  10  11
ENDBRANCH   9  10
ENDBRANCH   1   9
TORSDOF 7
ENDMDL
MODEL 7
REMARK VINA RESULT:      -4.5      3.344      4.457
REMARK  Name = 
REMARK  7 active torsions:
REMARK  status: ('A' for Active; 'I' for Inactive)
REMARK    1  A    between atoms: N_1  and  CA_2
REMARK    2  A    between atoms: CA_2  and  C_4
REMARK    3  A    between atoms: CA_2  and  C_10
REMARK    4  A    between atoms: C_4  and  C_5
REMARK    5  A    between atoms: C_5  and  C_6
REMARK    6  A    between atoms: N_8  and  O_9
REMARK    7  A    between atoms: C_10  and  O_11
REMARK                            x       y       z     vdW  Elec       q    Type
REMARK                         _______ _______ _______ _____ _____    ______ ____
ROOT
ATOM      1  CA  UNL     1      10.453  -1.276  22.747  0.00  0.00    +0.161 C 
ENDROOT
BRANCH   1   2
ATOM      2  N   UNL     1       9.876  -1.521  21.385  0.00  0.00    -0.318 NA
ATOM      3  H1  UNL     1       8.858  -1.394  21.435  0.00  0.00    +0.119 HD
ATOM      4  H2  UNL     1      10.180  -0.753  20.777  0.00  0.00    +0.119 HD
ENDBRANCH   1   2
BRANCH   1   5
ATOM      5  C   UNL     1       9.732  -2.208  23.742  0.00  0.00    +0.322 C 
ATOM      6  OXT UNL     1      10.111  -3.320  24.075  0.00  0.00    -0.249 OA
BRANCH   5   7
ATOM      7  O   UNL     1       8.582  -1.649  24.197  0.00  0.00    -0.480 OA
ATOM      8  H   UNL     1       8.674  -1.621  25.183  0.00  0.00    +0.295 HD
ENDBRANCH   5   7
ENDBRANCH   1   5
BRANCH   1   9
ATOM      9  C   UNL     1      10.302   0.206  23.100  0.00  0.00    +0.039 C 
BRANCH   9  10
ATOM     10  C   UNL     1       9.861   1.082  21.927  0.00  0.00    +0.100 C 
BRANCH  10  11
ATOM     11  C   UNL     1       8.448   1.592  22.103  0.00  0.00    +0.235 C 
ATOM     12  N   UNL     1       7.571   0.626  22.531  0.00  0.00    -0.197 N 
ATOM     13  H   UNL     1       7.772  -0.369  22.529  0.00  0.00    +0.182 HD
ATOM     14  O   UNL     1       8.095   2.750  21.892  0.00  0.00    -0.274 OA
BRANCH  12  15
ATOM     15  O   UNL     1       6.213   1.007  22.617  0.00  0.00    -0.295 OA
ATOM     16  H   UNL     1       6.112   1.602  21.842  0.00  0.00    +0.241 HD
ENDBRANCH  12  15
ENDBRANCH  10  11
ENDBRANCH   9  10
ENDBRANCH   1   9
TORSDOF 7
ENDMDL
MODEL 8
REMARK VINA RESULT:      -4.5      6.631      9.414
REMARK  Name = 
REMARK  7 active torsions:
REMARK  status: ('A' for Active; 'I' for Inactive)
REMARK    1  A    between atoms: N_1  and  CA_2
REMARK    2  A    between atoms: CA_2  and  C_4
REMARK    3  A    between atoms: CA_2  and  C_10
REMARK    4  A    between atoms: C_4  and  C_5
REMARK    5  A    between atoms: C_5  and  C_6
REMARK    6  A    between atoms: N_8  and  O_9
REMARK    7  A    between atoms: C_10  and  O_11
REMARK                            x       y       z     vdW  Elec       q    Type
REMARK                         _______ _______ _______ _____ _____    ______ ____
ROOT
ATOM      1  CA  UNL     1      12.733   5.057  23.480  0.00  0.00    +0.161 C 
ENDROOT
BRANCH   1   2
ATOM      2  N   UNL     1      12.782   6.246  24.392  0.00  0.00    -0.318 NA
ATOM      3  H1  UNL     1      13.669   6.741  24.235  0.00  0.00    +0.119 HD
ATOM      4  H2  UNL     1      12.077   6.916  24.066  0.00  0.00    +0.119 HD
ENDBRANCH   1   2
BRANCH   1   5
ATOM      5  C   UNL     1      13.309   5.484  22.114  0.00  0.00    +0.322 C 
ATOM      6  OXT UNL     1      14.119   6.380  21.935  0.00  0.00    -0.249 OA
BRANCH   5   7
ATOM      7  O   UNL     1      12.777   4.751  21.103  0.00  0.00    -0.480 OA
ATOM      8  H   UNL     1      13.073   5.196  20.270  0.00  0.00    +0.295 HD
ENDBRANCH   5   7
ENDBRANCH   1   5
BRANCH   1   9
ATOM      9  C   UNL     1      11.291   4.550  23.387  0.00  0.00    +0.039 C 
BRANCH   9  10
ATOM     10  C   UNL     1      11.143   3.050  23.647  0.00  0.00    +0.100 C 
BRANCH  10  11
ATOM     11  C   UNL     1       9.893   2.489  23.008  0.00  0.00    +0.235 C 
ATOM     12  N   UNL     1      10.074   2.103  21.702  0.00  0.00    -0.197 N 
ATOM     13  H   UNL     1      10.882   2.354  21.140  0.00  0.00    +0.182 HD
ATOM     14  O   UNL     1       8.810   2.377  23.579  0.00  0.00    -0.274 OA
BRANCH  12  15
ATOM     15  O   UNL     1       8.922   1.667  21.012  0.00  0.00    -0.295 OA
ATOM     16  H   UNL     1       8.677   2.460  20.488  0.00  0.00    +0.241 HD
ENDBRANCH  12  15
ENDBRANCH  10  11
ENDBRANCH   9  10
ENDBRANCH   1   9
TORSDOF 7
ENDMDL
MODEL 9
REMARK VINA RESULT:      -4.5      3.083      5.786
REMARK  Name = 
REMARK  7 active torsions:
REMARK  status: ('A' for Active; 'I' for Inactive)
REMARK    1  A    between atoms: N_1  and  CA_2
REMARK    2  A    between atoms: CA_2  and  C_4
REMARK    3  A    between atoms: CA_2  and  C_10
REMARK    4  A    between atoms: C_4  and  C_5
REMARK    5  A    between atoms: C_5  and  C_6
REMARK    6  A    between atoms: N_8  and  O_9
REMARK    7  A    between atoms: C_10  and  O_11
REMARK                            x       y       z     vdW  Elec       q    Type
REMARK                         _______ _______ _______ _____ _____    ______ ____
ROOT
ATOM      1  CA  UNL     1       9.831   1.290  23.665  0.00  0.00    +0.161 C 
ENDROOT
BRANCH   1   2
ATOM      2  N   UNL     1       8.379   1.305  24.039  0.00  0.00    -0.318 NA
ATOM      3  H1  UNL     1       8.297   1.069  25.035  0.00  0.00    +0.119 HD
ATOM      4  H2  UNL     1       8.060   2.279  24.000  0.00  0.00    +0.119 HD
ENDBRANCH   1   2
BRANCH   1   5
ATOM      5  C   UNL     1       9.924   1.197  22.128  0.00  0.00    +0.322 C 
ATOM      6  OXT UNL     1       9.700   0.198  21.463  0.00  0.00    -0.249 OA
BRANCH   5   7
ATOM      7  O   UNL     1      10.323   2.376  21.586  0.00  0.00    -0.480 OA
ATOM      8  H   UNL     1      11.308   2.392  21.684  0.00  0.00    +0.295 HD
ENDBRANCH   5   7
ENDBRANCH   1   5
BRANCH   1   9
ATOM      9  C   UNL     1      10.524   0.124  24.376  0.00  0.00    +0.039 C 
BRANCH   9  10
ATOM     10  C   UNL     1       9.560  -0.925  24.931  0.00  0.00    +0.100 C 
BRANCH  10  11
ATOM     11  C   UNL     1       9.389  -2.091  23.983  0.00  0.00    +0.235 C 
ATOM     12  N   UNL     1       8.336  -1.936  23.115  0.00  0.00    -0.197 N 
ATOM     13  H   UNL     1       7.610  -1.234  23.218  0.00  0.00    +0.182 HD
ATOM     14  O   UNL     1      10.107  -3.088  23.970  0.00  0.00    -0.274 OA
BRANCH  12  15
ATOM     15  O   UNL     1       8.054  -3.033  22.271  0.00  0.00    -0.295 OA
ATOM     16  H   UNL     1       7.802  -2.594  21.430  0.00  0.00    +0.241 HD
ENDBRANCH  12  15
ENDBRANCH  10  11
ENDBRANCH   9  10
ENDBRANCH   1   9
TORSDOF 7
ENDMDL
