MODEL 1
REMARK VINA RESULT:      -6.3      0.000      0.000
REMARK  Name = 
REMARK  15 active torsions:
REMARK  status: ('A' for Active; 'I' for Inactive)
REMARK    1  A    between atoms: N_1  and  C_2
REMARK    2  A    between atoms: C_2  and  C_4
REMARK    3  A    between atoms: C_2  and  C_27
REMARK    4  A    between atoms: C_4  and  C_5
REMARK    5  A    between atoms: C_5  and  C_6
REMARK    6  A    between atoms: N_8  and  C_9
REMARK    7  A    between atoms: C_9  and  C_11
REMARK    8  A    between atoms: C_9  and  C_20
REMARK    9  A    between atoms: C_11  and  S_12
REMARK   10  A    between atoms: S_12  and  C_13
REMARK   11  A    between atoms: C_13  and  C_14
REMARK   12  A    between atoms: N_22  and  CA_23
REMARK   13  A    between atoms: CA_23  and  C_24
REMARK   14  A    between atoms: C_24  and  O_25
REMARK   15  A    between atoms: C_27  and  O_28
REMARK                            x       y       z     vdW  Elec       q    Type
REMARK                         _______ _______ _______ _____ _____    ______ ____
ROOT
ATOM      1  C   UNK A   1       7.629  -3.086  24.676  0.00  0.00    +0.169 C 
ENDROOT
BRANCH   1   3
ATOM      2  C   UNK A   1       7.776  -4.539  26.680  0.00  0.00    +0.214 C 
ATOM      3  N   UNK A   1       7.045  -4.001  25.653  0.00  0.00    -0.303 N 
ATOM      4  H   UNK A   1       6.094  -4.313  25.493  0.00  0.00    +0.149 HD
ATOM      5  O   UNK A   1       8.962  -4.289  26.863  0.00  0.00    -0.276 OA
BRANCH   2   6
ATOM      6  C   UNK A   1       6.993  -5.453  27.597  0.00  0.00    +0.098 C 
BRANCH   6   7
ATOM      7  C   UNK A   1       5.498  -5.144  27.558  0.00  0.00    +0.039 C 
BRANCH   7   8
ATOM      8  C   UNK A   1       4.633  -6.392  27.354  0.00  0.00    +0.161 C 
BRANCH   8   9
ATOM      9  N   UNK A   1       5.137  -7.561  28.136  0.00  0.00    -0.318 NA
ATOM     10  H   UNK A   1       4.413  -7.845  28.806  0.00  0.00    +0.119 HD
ATOM     11  H   UNK A   1       5.214  -8.360  27.497  0.00  0.00    +0.119 HD
ENDBRANCH   8   9
BRANCH   8  12
ATOM     12  C   UNK A   1       4.609  -6.784  25.863  0.00  0.00    +0.322 C 
ATOM     13  O   UNK A   1       5.151  -6.161  24.963  0.00  0.00    -0.249 OA
BRANCH  12  14
ATOM     14  O   UNK A   1       3.884  -7.914  25.662  0.00  0.00    -0.480 OA
ATOM     15  H   UNK A   1       2.936  -7.635  25.729  0.00  0.00    +0.295 HD
ENDBRANCH  12  14
ENDBRANCH   8  12
ENDBRANCH   7   8
ENDBRANCH   6   7
ENDBRANCH   2   6
ENDBRANCH   1   3
BRANCH   1  16
ATOM     16  C   UNK A   1       7.599  -3.722  23.276  0.00  0.00    +0.235 C 
ATOM     17  N   GLY A   2       7.284  -5.071  23.260  0.00  0.00    -0.303 N 
ATOM     18  H   GLY A   2       7.320  -5.598  24.126  0.00  0.00    +0.149 HD
ATOM     19  O   UNK A   1       7.817  -3.089  22.249  0.00  0.00    -0.274 OA
BRANCH  17  20
ATOM     20  CA  GLY A   2       7.322  -5.844  22.016  0.00  0.00    +0.224 C 
BRANCH  20  21
ATOM     21  C   GLY A   2       6.010  -5.844  21.232  0.00  0.00    +0.322 C 
ATOM     22  OXT GLY A   2       5.940  -5.606  20.034  0.00  0.00    -0.249 OA
BRANCH  21  23
ATOM     23  O   GLY A   2       4.927  -6.189  21.965  0.00  0.00    -0.480 OA
ATOM     24  H   GLY A   2       4.433  -5.394  22.246  0.00  0.00    +0.295 HD
ENDBRANCH  21  23
ENDBRANCH  20  21
ENDBRANCH  17  20
ENDBRANCH   1  16
BRANCH   1  25
ATOM     25  C   UNK A   1       6.895  -1.741  24.656  0.00  0.00    +0.101 C 
BRANCH  25  26
ATOM     26  S   UNK A   1       7.509  -0.547  25.904  0.00  0.00    -0.154 S 
BRANCH  26  27
ATOM     27  C   UNK A   1       9.282  -0.554  25.488  0.00  0.00    +0.104 C 
BRANCH  27  28
ATOM     28  C   UNK A   1       9.581   0.304  24.291  0.00  0.00    -0.038 A 
ATOM     29  C   UNK A   1       9.778   1.683  24.433  0.00  0.00    +0.004 A 
ATOM     30  C   UNK A   1      10.043   2.475  23.316  0.00  0.00    +0.000 A 
ATOM     31  C   UNK A   1      10.120   1.897  22.050  0.00  0.00    +0.000 A 
ATOM     32  C   UNK A   1       9.937   0.523  21.899  0.00  0.00    +0.000 A 
ATOM     33  C   UNK A   1       9.670  -0.271  23.014  0.00  0.00    +0.004 A 
ENDBRANCH  27  28
ENDBRANCH  26  27
ENDBRANCH  25  26
ENDBRANCH   1  25
TORSDOF 15
ENDMDL
MODEL 2
REMARK VINA RESULT:      -6.1      2.128      3.305
REMARK  Name = 
REMARK  15 active torsions:
REMARK  status: ('A' for Active; 'I' for Inactive)
REMARK    1  A    between atoms: N_1  and  C_2
REMARK    2  A    between atoms: C_2  and  C_4
REMARK    3  A    between atoms: C_2  and  C_27
REMARK    4  A    between atoms: C_4  and  C_5
REMARK    5  A    between atoms: C_5  and  C_6
REMARK    6  A    between atoms: N_8  and  C_9
REMARK    7  A    between atoms: C_9  and  C_11
REMARK    8  A    between atoms: C_9  and  C_20
REMARK    9  A    between atoms: C_11  and  S_12
REMARK   10  A    between atoms: S_12  and  C_13
REMARK   11  A    between atoms: C_13  and  C_14
REMARK   12  A    between atoms: N_22  and  CA_23
REMARK   13  A    between atoms: CA_23  and  C_24
REMARK   14  A    between atoms: C_24  and  O_25
REMARK   15  A    between atoms: C_27  and  O_28
REMARK                            x       y       z     vdW  Elec       q    Type
REMARK                         _______ _______ _______ _____ _____    ______ ____
ROOT
ATOM      1  C   UNK A   1       6.279  -1.994  23.555  0.00  0.00    +0.169 C 
ENDROOT
BRANCH   1   3
ATOM      2  C   UNK A   1       8.657  -2.693  23.508  0.00  0.00    +0.214 C 
ATOM      3  N   UNK A   1       7.465  -2.579  24.174  0.00  0.00    -0.303 N 
ATOM      4  H   UNK A   1       7.358  -2.998  25.091  0.00  0.00    +0.149 HD
ATOM      5  O   UNK A   1       8.823  -2.307  22.356  0.00  0.00    -0.276 OA
BRANCH   2   6
ATOM      6  C   UNK A   1       9.774  -3.312  24.320  0.00  0.00    +0.098 C 
BRANCH   6   7
ATOM      7  C   UNK A   1       9.374  -3.490  25.783  0.00  0.00    +0.039 C 
BRANCH   7   8
ATOM      8  C   UNK A   1       9.322  -4.959  26.215  0.00  0.00    +0.161 C 
BRANCH   8   9
ATOM      9  N   UNK A   1       9.812  -5.880  25.145  0.00  0.00    -0.318 NA
ATOM     10  H   UNK A   1      10.735  -6.240  25.418  0.00  0.00    +0.119 HD
ATOM     11  H   UNK A   1       9.211  -6.711  25.142  0.00  0.00    +0.119 HD
ENDBRANCH   8   9
BRANCH   8  12
ATOM     12  C   UNK A   1       7.875  -5.358  26.567  0.00  0.00    +0.322 C 
ATOM     13  O   UNK A   1       7.495  -5.727  27.668  0.00  0.00    -0.249 OA
BRANCH  12  14
ATOM     14  O   UNK A   1       7.059  -5.265  25.486  0.00  0.00    -0.480 OA
ATOM     15  H   UNK A   1       6.240  -4.812  25.810  0.00  0.00    +0.295 HD
ENDBRANCH  12  14
ENDBRANCH   8  12
ENDBRANCH   7   8
ENDBRANCH   6   7
ENDBRANCH   2   6
ENDBRANCH   1   3
BRANCH   1  16
ATOM     16  C   UNK A   1       5.372  -3.106  23.002  0.00  0.00    +0.235 C 
ATOM     17  N   GLY A   2       4.657  -3.802  23.962  0.00  0.00    -0.303 N 
ATOM     18  H   GLY A   2       4.924  -3.715  24.937  0.00  0.00    +0.149 HD
ATOM     19  O   UNK A   1       5.270  -3.352  21.804  0.00  0.00    -0.274 OA
BRANCH  17  20
ATOM     20  CA  GLY A   2       3.834  -4.960  23.605  0.00  0.00    +0.224 C 
BRANCH  20  21
ATOM     21  C   GLY A   2       4.621  -6.253  23.395  0.00  0.00    +0.322 C 
ATOM     22  OXT GLY A   2       4.746  -7.114  24.255  0.00  0.00    -0.249 OA
BRANCH  21  23
ATOM     23  O   GLY A   2       5.127  -6.397  22.149  0.00  0.00    -0.480 OA
ATOM     24  H   GLY A   2       6.043  -6.059  22.107  0.00  0.00    +0.295 HD
ENDBRANCH  21  23
ENDBRANCH  20  21
ENDBRANCH  17  20
ENDBRANCH   1  16
BRANCH   1  25
ATOM     25  C   UNK A   1       5.498  -1.126  24.547  0.00  0.00    +0.101 C 
BRANCH  25  26
ATOM     26  S   UNK A   1       6.547  -0.354  25.838  0.00  0.00    -0.154 S 
BRANCH  26  27
ATOM     27  C   UNK A   1       6.874   1.253  25.045  0.00  0.00    +0.104 C 
BRANCH  27  28
ATOM     28  C   UNK A   1       7.964   1.159  24.015  0.00  0.00    -0.038 A 
ATOM     29  C   UNK A   1       7.681   1.355  22.657  0.00  0.00    +0.004 A 
ATOM     30  C   UNK A   1       8.695   1.255  21.705  0.00  0.00    +0.000 A 
ATOM     31  C   UNK A   1       9.999   0.963  22.100  0.00  0.00    +0.000 A 
ATOM     32  C   UNK A   1      10.294   0.776  23.450  0.00  0.00    +0.000 A 
ATOM     33  C   UNK A   1       9.281   0.876  24.404  0.00  0.00    +0.004 A 
ENDBRANCH  27  28
ENDBRANCH  26  27
ENDBRANCH  25  26
ENDBRANCH   1  25
TORSDOF 15
ENDMDL
MODEL 3
REMARK VINA RESULT:      -6.1      2.057      3.119
REMARK  Name = 
REMARK  15 active torsions:
REMARK  status: ('A' for Active; 'I' for Inactive)
REMARK    1  A    between atoms: N_1  and  C_2
REMARK    2  A    between atoms: C_2  and  C_4
REMARK    3  A    between atoms: C_2  and  C_27
REMARK    4  A    between atoms: C_4  and  C_5
REMARK    5  A    between atoms: C_5  and  C_6
REMARK    6  A    between atoms: N_8  and  C_9
REMARK    7  A    between atoms: C_9  and  C_11
REMARK    8  A    between atoms: C_9  and  C_20
REMARK    9  A    between atoms: C_11  and  S_12
REMARK   10  A    between atoms: S_12  and  C_13
REMARK   11  A    between atoms: C_13  and  C_14
REMARK   12  A    between atoms: N_22  and  CA_23
REMARK   13  A    between atoms: CA_23  and  C_24
REMARK   14  A    between atoms: C_24  and  O_25
REMARK   15  A    between atoms: C_27  and  O_28
REMARK                            x       y       z     vdW  Elec       q    Type
REMARK                         _______ _______ _______ _____ _____    ______ ____
ROOT
ATOM      1  C   UNK A   1       7.828  -3.443  25.879  0.00  0.00    +0.169 C 
ENDROOT
BRANCH   1   3
ATOM      2  C   UNK A   1       6.632  -5.539  26.445  0.00  0.00    +0.214 C 
ATOM      3  N   UNK A   1       6.682  -4.342  25.780  0.00  0.00    -0.303 N 
ATOM      4  H   UNK A   1       5.954  -4.103  25.116  0.00  0.00    +0.149 HD
ATOM      5  O   UNK A   1       7.531  -5.940  27.176  0.00  0.00    -0.276 OA
BRANCH   2   6
ATOM      6  C   UNK A   1       5.357  -6.325  26.229  0.00  0.00    +0.098 C 
BRANCH   6   7
ATOM      7  C   UNK A   1       4.293  -5.488  25.522  0.00  0.00    +0.039 C 
BRANCH   7   8
ATOM      8  C   UNK A   1       3.900  -6.052  24.153  0.00  0.00    +0.161 C 
BRANCH   8   9
ATOM      9  N   UNK A   1       4.206  -7.510  24.033  0.00  0.00    -0.318 NA
ATOM     10  H   UNK A   1       5.195  -7.618  23.777  0.00  0.00    +0.119 HD
ATOM     11  H   UNK A   1       4.144  -7.924  24.969  0.00  0.00    +0.119 HD
ENDBRANCH   8   9
BRANCH   8  12
ATOM     12  C   UNK A   1       4.655  -5.307  23.034  0.00  0.00    +0.322 C 
ATOM     13  O   UNK A   1       5.075  -4.162  23.111  0.00  0.00    -0.249 OA
BRANCH  12  14
ATOM     14  O   UNK A   1       4.786  -6.081  21.926  0.00  0.00    -0.480 OA
ATOM     15  H   UNK A   1       3.892  -6.087  21.501  0.00  0.00    +0.295 HD
ENDBRANCH  12  14
ENDBRANCH   8  12
ENDBRANCH   7   8
ENDBRANCH   6   7
ENDBRANCH   2   6
ENDBRANCH   1   3
BRANCH   1  16
ATOM     16  C   UNK A   1       8.487  -3.276  24.500  0.00  0.00    +0.235 C 
ATOM     17  N   GLY A   2       7.702  -2.634  23.557  0.00  0.00    -0.303 N 
ATOM     18  H   GLY A   2       6.709  -2.523  23.733  0.00  0.00    +0.149 HD
ATOM     19  O   UNK A   1       9.625  -3.662  24.250  0.00  0.00    -0.274 OA
BRANCH  17  20
ATOM     20  CA  GLY A   2       8.144  -2.497  22.167  0.00  0.00    +0.224 C 
BRANCH  20  21
ATOM     21  C   GLY A   2       9.095  -1.327  21.920  0.00  0.00    +0.322 C 
ATOM     22  OXT GLY A   2       8.719  -0.177  21.739  0.00  0.00    -0.249 OA
BRANCH  21  23
ATOM     23  O   GLY A   2      10.406  -1.658  21.975  0.00  0.00    -0.480 OA
ATOM     24  H   GLY A   2      10.671  -2.152  21.175  0.00  0.00    +0.295 HD
ENDBRANCH  21  23
ENDBRANCH  20  21
ENDBRANCH  17  20
ENDBRANCH   1  16
BRANCH   1  25
ATOM     25  C   UNK A   1       7.422  -2.074  26.434  0.00  0.00    +0.101 C 
BRANCH  25  26
ATOM     26  S   UNK A   1       8.796  -0.862  26.489  0.00  0.00    -0.154 S 
BRANCH  26  27
ATOM     27  C   UNK A   1       7.964   0.579  25.747  0.00  0.00    +0.104 C 
BRANCH  27  28
ATOM     28  C   UNK A   1       8.913   1.420  24.940  0.00  0.00    -0.038 A 
ATOM     29  C   UNK A   1       8.552   2.711  24.535  0.00  0.00    +0.004 A 
ATOM     30  C   UNK A   1       9.433   3.482  23.776  0.00  0.00    +0.000 A 
ATOM     31  C   UNK A   1      10.681   2.974  23.422  0.00  0.00    +0.000 A 
ATOM     32  C   UNK A   1      11.054   1.694  23.830  0.00  0.00    +0.000 A 
ATOM     33  C   UNK A   1      10.175   0.920  24.588  0.00  0.00    +0.004 A 
ENDBRANCH  27  28
ENDBRANCH  26  27
ENDBRANCH  25  26
ENDBRANCH   1  25
TORSDOF 15
ENDMDL
MODEL 4
REMARK VINA RESULT:      -6.1      1.494      1.717
REMARK  Name = 
REMARK  15 active torsions:
REMARK  status: ('A' for Active; 'I' for Inactive)
REMARK    1  A    between atoms: N_1  and  C_2
REMARK    2  A    between atoms: C_2  and  C_4
REMARK    3  A    between atoms: C_2  and  C_27
REMARK    4  A    between atoms: C_4  and  C_5
REMARK    5  A    between atoms: C_5  and  C_6
REMARK    6  A    between atoms: N_8  and  C_9
REMARK    7  A    between atoms: C_9  and  C_11
REMARK    8  A    between atoms: C_9  and  C_20
REMARK    9  A    between atoms: C_11  and  S_12
REMARK   10  A    between atoms: S_12  and  C_13
REMARK   11  A    between atoms: C_13  and  C_14
REMARK   12  A    between atoms: N_22  and  CA_23
REMARK   13  A    between atoms: CA_23  and  C_24
REMARK   14  A    between atoms: C_24  and  O_25
REMARK   15  A    between atoms: C_27  and  O_28
REMARK                            x       y       z     vdW  Elec       q    Type
REMARK                         _______ _______ _______ _____ _____    ______ ____
ROOT
ATOM      1  C   UNK A   1       7.431  -4.100  25.625  0.00  0.00    +0.169 C 
ENDROOT
BRANCH   1   3
ATOM      2  C   UNK A   1       6.226  -5.704  27.082  0.00  0.00    +0.214 C 
ATOM      3  N   UNK A   1       6.231  -4.826  26.030  0.00  0.00    -0.303 N 
ATOM      4  H   UNK A   1       5.409  -4.741  25.441  0.00  0.00    +0.149 HD
ATOM      5  O   UNK A   1       7.217  -5.937  27.766  0.00  0.00    -0.276 OA
BRANCH   2   6
ATOM      6  C   UNK A   1       4.886  -6.348  27.358  0.00  0.00    +0.098 C 
BRANCH   6   7
ATOM      7  C   UNK A   1       3.760  -5.655  26.594  0.00  0.00    +0.039 C 
BRANCH   7   8
ATOM      8  C   UNK A   1       3.148  -6.534  25.499  0.00  0.00    +0.161 C 
BRANCH   8   9
ATOM      9  N   UNK A   1       3.561  -7.965  25.628  0.00  0.00    -0.318 NA
ATOM     10  H   UNK A   1       3.025  -8.394  26.392  0.00  0.00    +0.119 HD
ATOM     11  H   UNK A   1       3.241  -8.463  24.790  0.00  0.00    +0.119 HD
ENDBRANCH   8   9
BRANCH   8  12
ATOM     12  C   UNK A   1       3.583  -6.031  24.108  0.00  0.00    +0.322 C 
ATOM     13  O   UNK A   1       4.193  -4.994  23.894  0.00  0.00    -0.249 OA
BRANCH  12  14
ATOM     14  O   UNK A   1       3.185  -6.882  23.128  0.00  0.00    -0.480 OA
ATOM     15  H   UNK A   1       2.685  -6.323  22.480  0.00  0.00    +0.295 HD
ENDBRANCH  12  14
ENDBRANCH   8  12
ENDBRANCH   7   8
ENDBRANCH   6   7
ENDBRANCH   2   6
ENDBRANCH   1   3
BRANCH   1  16
ATOM     16  C   UNK A   1       7.965  -4.664  24.298  0.00  0.00    +0.235 C 
ATOM     17  N   GLY A   2       7.182  -4.382  23.192  0.00  0.00    -0.303 N 
ATOM     18  H   GLY A   2       6.235  -4.044  23.329  0.00  0.00    +0.149 HD
ATOM     19  O   UNK A   1       9.010  -5.301  24.214  0.00  0.00    -0.274 OA
BRANCH  17  20
ATOM     20  CA  GLY A   2       7.497  -4.941  21.875  0.00  0.00    +0.224 C 
BRANCH  20  21
ATOM     21  C   GLY A   2       6.390  -5.805  21.274  0.00  0.00    +0.322 C 
ATOM     22  OXT GLY A   2       5.936  -5.635  20.151  0.00  0.00    -0.249 OA
BRANCH  21  23
ATOM     23  O   GLY A   2       5.986  -6.821  22.071  0.00  0.00    -0.480 OA
ATOM     24  H   GLY A   2       5.011  -6.882  22.084  0.00  0.00    +0.295 HD
ENDBRANCH  21  23
ENDBRANCH  20  21
ENDBRANCH  17  20
ENDBRANCH   1  16
BRANCH   1  25
ATOM     25  C   UNK A   1       7.158  -2.599  25.484  0.00  0.00    +0.101 C 
BRANCH  25  26
ATOM     26  S   UNK A   1       8.587  -1.543  25.936  0.00  0.00    -0.154 S 
BRANCH  26  27
ATOM     27  C   UNK A   1       9.574  -1.694  24.412  0.00  0.00    +0.104 C 
BRANCH  27  28
ATOM     28  C   UNK A   1       9.816  -0.358  23.766  0.00  0.00    -0.038 A 
ATOM     29  C   UNK A   1      10.321   0.714  24.513  0.00  0.00    +0.004 A 
ATOM     30  C   UNK A   1      10.532   1.953  23.910  0.00  0.00    +0.000 A 
ATOM     31  C   UNK A   1      10.248   2.131  22.557  0.00  0.00    +0.000 A 
ATOM     32  C   UNK A   1       9.755   1.067  21.802  0.00  0.00    +0.000 A 
ATOM     33  C   UNK A   1       9.542  -0.173  22.403  0.00  0.00    +0.004 A 
ENDBRANCH  27  28
ENDBRANCH  26  27
ENDBRANCH  25  26
ENDBRANCH   1  25
TORSDOF 15
ENDMDL
MODEL 5
REMARK VINA RESULT:      -5.9      1.709      2.595
REMARK  Name = 
REMARK  15 active torsions:
REMARK  status: ('A' for Active; 'I' for Inactive)
REMARK    1  A    between atoms: N_1  and  C_2
REMARK    2  A    between atoms: C_2  and  C_4
REMARK    3  A    between atoms: C_2  and  C_27
REMARK    4  A    between atoms: C_4  and  C_5
REMARK    5  A    between atoms: C_5  and  C_6
REMARK    6  A    between atoms: N_8  and  C_9
REMARK    7  A    between atoms: C_9  and  C_11
REMARK    8  A    between atoms: C_9  and  C_20
REMARK    9  A    between atoms: C_11  and  S_12
REMARK   10  A    between atoms: S_12  and  C_13
REMARK   11  A    between atoms: C_13  and  C_14
REMARK   12  A    between atoms: N_22  and  CA_23
REMARK   13  A    between atoms: CA_23  and  C_24
REMARK   14  A    between atoms: C_24  and  O_25
REMARK   15  A    between atoms: C_27  and  O_28
REMARK                            x       y       z     vdW  Elec       q    Type
REMARK                         _______ _______ _______ _____ _____    ______ ____
ROOT
ATOM      1  C   UNK A   1       7.075  -4.980  23.121  0.00  0.00    +0.169 C 
ENDROOT
BRANCH   1   3
ATOM      2  C   UNK A   1       8.292  -5.184  25.271  0.00  0.00    +0.214 C 
ATOM      3  N   UNK A   1       7.142  -4.910  24.577  0.00  0.00    -0.303 N 
ATOM      4  H   UNK A   1       6.276  -4.749  25.080  0.00  0.00    +0.149 HD
ATOM      5  O   UNK A   1       9.346  -5.495  24.728  0.00  0.00    -0.276 OA
BRANCH   2   6
ATOM      6  C   UNK A   1       8.169  -5.044  26.773  0.00  0.00    +0.098 C 
BRANCH   6   7
ATOM      7  C   UNK A   1       6.746  -4.679  27.189  0.00  0.00    +0.039 C 
BRANCH   7   8
ATOM      8  C   UNK A   1       6.086  -5.746  28.068  0.00  0.00    +0.161 C 
BRANCH   8   9
ATOM      9  N   UNK A   1       7.091  -6.628  28.735  0.00  0.00    -0.318 NA
ATOM     10  H   UNK A   1       6.595  -7.288  29.346  0.00  0.00    +0.119 HD
ATOM     11  H   UNK A   1       7.515  -7.225  28.016  0.00  0.00    +0.119 HD
ENDBRANCH   8   9
BRANCH   8  12
ATOM     12  C   UNK A   1       5.155  -6.633  27.217  0.00  0.00    +0.322 C 
ATOM     13  O   UNK A   1       5.323  -6.901  26.037  0.00  0.00    -0.249 OA
BRANCH  12  14
ATOM     14  O   UNK A   1       4.096  -7.077  27.943  0.00  0.00    -0.480 OA
ATOM     15  H   UNK A   1       3.460  -6.318  27.973  0.00  0.00    +0.295 HD
ENDBRANCH  12  14
ENDBRANCH   8  12
ENDBRANCH   7   8
ENDBRANCH   6   7
ENDBRANCH   2   6
ENDBRANCH   1   3
BRANCH   1  16
ATOM     16  C   UNK A   1       5.642  -5.314  22.676  0.00  0.00    +0.235 C 
ATOM     17  N   GLY A   2       4.679  -5.163  23.660  0.00  0.00    -0.303 N 
ATOM     18  H   GLY A   2       4.971  -5.075  24.628  0.00  0.00    +0.149 HD
ATOM     19  O   UNK A   1       5.361  -5.670  21.536  0.00  0.00    -0.274 OA
BRANCH  17  20
ATOM     20  CA  GLY A   2       3.285  -5.546  23.424  0.00  0.00    +0.224 C 
BRANCH  20  21
ATOM     21  C   GLY A   2       2.805  -6.730  24.262  0.00  0.00    +0.322 C 
ATOM     22  OXT GLY A   2       2.920  -7.896  23.911  0.00  0.00    -0.249 OA
BRANCH  21  23
ATOM     23  O   GLY A   2       2.290  -6.385  25.465  0.00  0.00    -0.480 OA
ATOM     24  H   GLY A   2       2.683  -6.927  26.176  0.00  0.00    +0.295 HD
ENDBRANCH  21  23
ENDBRANCH  20  21
ENDBRANCH  17  20
ENDBRANCH   1  16
BRANCH   1  25
ATOM     25  C   UNK A   1       7.532  -3.668  22.474  0.00  0.00    +0.101 C 
BRANCH  25  26
ATOM     26  S   UNK A   1       6.904  -2.168  23.323  0.00  0.00    -0.154 S 
BRANCH  26  27
ATOM     27  C   UNK A   1       8.429  -1.629  24.160  0.00  0.00    +0.104 C 
BRANCH  27  28
ATOM     28  C   UNK A   1       9.031  -0.418  23.504  0.00  0.00    -0.038 A 
ATOM     29  C   UNK A   1       9.844   0.459  24.234  0.00  0.00    +0.004 A 
ATOM     30  C   UNK A   1      10.389   1.587  23.622  0.00  0.00    +0.000 A 
ATOM     31  C   UNK A   1      10.134   1.846  22.277  0.00  0.00    +0.000 A 
ATOM     32  C   UNK A   1       9.334   0.974  21.539  0.00  0.00    +0.000 A 
ATOM     33  C   UNK A   1       8.787  -0.155  22.148  0.00  0.00    +0.004 A 
ENDBRANCH  27  28
ENDBRANCH  26  27
ENDBRANCH  25  26
ENDBRANCH   1  25
TORSDOF 15
ENDMDL
MODEL 6
REMARK VINA RESULT:      -5.8      2.287      4.412
REMARK  Name = 
REMARK  15 active torsions:
REMARK  status: ('A' for Active; 'I' for Inactive)
REMARK    1  A    between atoms: N_1  and  C_2
REMARK    2  A    between atoms: C_2  and  C_4
REMARK    3  A    between atoms: C_2  and  C_27
REMARK    4  A    between atoms: C_4  and  C_5
REMARK    5  A    between atoms: C_5  and  C_6
REMARK    6  A    between atoms: N_8  and  C_9
REMARK    7  A    between atoms: C_9  and  C_11
REMARK    8  A    between atoms: C_9  and  C_20
REMARK    9  A    between atoms: C_11  and  S_12
REMARK   10  A    between atoms: S_12  and  C_13
REMARK   11  A    between atoms: C_13  and  C_14
REMARK   12  A    between atoms: N_22  and  CA_23
REMARK   13  A    between atoms: CA_23  and  C_24
REMARK   14  A    between atoms: C_24  and  O_25
REMARK   15  A    between atoms: C_27  and  O_28
REMARK                            x       y       z     vdW  Elec       q    Type
REMARK                         _______ _______ _______ _____ _____    ______ ____
ROOT
ATOM      1  C   UNK A   1       8.276  -1.537  24.271  0.00  0.00    +0.169 C 
ENDROOT
BRANCH   1   3
ATOM      2  C   UNK A   1       6.063  -2.283  23.440  0.00  0.00    +0.214 C 
ATOM      3  N   UNK A   1       7.431  -2.339  23.392  0.00  0.00    -0.303 N 
ATOM      4  H   UNK A   1       7.887  -3.026  22.801  0.00  0.00    +0.149 HD
ATOM      5  O   UNK A   1       5.447  -1.554  24.211  0.00  0.00    -0.276 OA
BRANCH   2   6
ATOM      6  C   UNK A   1       5.362  -3.177  22.441  0.00  0.00    +0.098 C 
BRANCH   6   7
ATOM      7  C   UNK A   1       4.698  -4.371  23.123  0.00  0.00    +0.039 C 
BRANCH   7   8
ATOM      8  C   UNK A   1       5.208  -5.719  22.602  0.00  0.00    +0.161 C 
BRANCH   8   9
ATOM      9  N   UNK A   1       4.892  -6.842  23.536  0.00  0.00    -0.318 NA
ATOM     10  H   UNK A   1       3.972  -7.225  23.288  0.00  0.00    +0.119 HD
ATOM     11  H   UNK A   1       5.543  -7.609  23.340  0.00  0.00    +0.119 HD
ENDBRANCH   8   9
BRANCH   8  12
ATOM     12  C   UNK A   1       6.737  -5.669  22.408  0.00  0.00    +0.322 C 
ATOM     13  O   UNK A   1       7.552  -5.458  23.294  0.00  0.00    -0.249 OA
BRANCH  12  14
ATOM     14  O   UNK A   1       7.077  -5.873  21.110  0.00  0.00    -0.480 OA
ATOM     15  H   UNK A   1       8.059  -5.748  21.071  0.00  0.00    +0.295 HD
ENDBRANCH  12  14
ENDBRANCH   8  12
ENDBRANCH   7   8
ENDBRANCH   6   7
ENDBRANCH   2   6
ENDBRANCH   1   3
BRANCH   1  16
ATOM     16  C   UNK A   1       8.545  -2.297  25.580  0.00  0.00    +0.235 C 
ATOM     17  N   GLY A   2       8.611  -3.674  25.447  0.00  0.00    -0.303 N 
ATOM     18  H   GLY A   2       8.267  -4.106  24.596  0.00  0.00    +0.149 HD
ATOM     19  O   UNK A   1       8.707  -1.736  26.659  0.00  0.00    -0.274 OA
BRANCH  17  20
ATOM     20  CA  GLY A   2       8.752  -4.545  26.617  0.00  0.00    +0.224 C 
BRANCH  20  21
ATOM     21  C   GLY A   2       7.470  -5.271  27.021  0.00  0.00    +0.322 C 
ATOM     22  OXT GLY A   2       7.008  -5.246  28.153  0.00  0.00    -0.249 OA
BRANCH  21  23
ATOM     23  O   GLY A   2       6.848  -5.905  26.000  0.00  0.00    -0.480 OA
ATOM     24  H   GLY A   2       6.559  -6.797  26.273  0.00  0.00    +0.295 HD
ENDBRANCH  21  23
ENDBRANCH  20  21
ENDBRANCH  17  20
ENDBRANCH   1  16
BRANCH   1  25
ATOM     25  C   UNK A   1       9.602  -1.171  23.596  0.00  0.00    +0.101 C 
BRANCH  25  26
ATOM     26  S   UNK A   1       9.412  -0.563  21.877  0.00  0.00    -0.154 S 
BRANCH  26  27
ATOM     27  C   UNK A   1      10.094   1.115  22.068  0.00  0.00    +0.104 C 
BRANCH  27  28
ATOM     28  C   UNK A   1       9.023   2.125  22.371  0.00  0.00    -0.038 A 
ATOM     29  C   UNK A   1       7.787   2.072  21.714  0.00  0.00    +0.004 A 
ATOM     30  C   UNK A   1       6.802   3.019  21.992  0.00  0.00    +0.000 A 
ATOM     31  C   UNK A   1       7.039   4.022  22.931  0.00  0.00    +0.000 A 
ATOM     32  C   UNK A   1       8.262   4.076  23.598  0.00  0.00    +0.000 A 
ATOM     33  C   UNK A   1       9.250   3.131  23.322  0.00  0.00    +0.004 A 
ENDBRANCH  27  28
ENDBRANCH  26  27
ENDBRANCH  25  26
ENDBRANCH   1  25
TORSDOF 15
ENDMDL
MODEL 7
REMARK VINA RESULT:      -5.7      3.052      7.661
REMARK  Name = 
REMARK  15 active torsions:
REMARK  status: ('A' for Active; 'I' for Inactive)
REMARK    1  A    between atoms: N_1  and  C_2
REMARK    2  A    between atoms: C_2  and  C_4
REMARK    3  A    between atoms: C_2  and  C_27
REMARK    4  A    between atoms: C_4  and  C_5
REMARK    5  A    between atoms: C_5  and  C_6
REMARK    6  A    between atoms: N_8  and  C_9
REMARK    7  A    between atoms: C_9  and  C_11
REMARK    8  A    between atoms: C_9  and  C_20
REMARK    9  A    between atoms: C_11  and  S_12
REMARK   10  A    between atoms: S_12  and  C_13
REMARK   11  A    between atoms: C_13  and  C_14
REMARK   12  A    between atoms: N_22  and  CA_23
REMARK   13  A    between atoms: CA_23  and  C_24
REMARK   14  A    between atoms: C_24  and  O_25
REMARK   15  A    between atoms: C_27  and  O_28
REMARK                            x       y       z     vdW  Elec       q    Type
REMARK                         _______ _______ _______ _____ _____    ______ ____
ROOT
ATOM      1  C   UNK A   1       8.198  -2.949  22.655  0.00  0.00    +0.169 C 
ENDROOT
BRANCH   1   3
ATOM      2  C   UNK A   1       9.081  -0.675  22.211  0.00  0.00    +0.214 C 
ATOM      3  N   UNK A   1       8.049  -1.499  22.580  0.00  0.00    -0.303 N 
ATOM      4  H   UNK A   1       7.178  -1.098  22.911  0.00  0.00    +0.149 HD
ATOM      5  O   UNK A   1      10.195  -1.089  21.907  0.00  0.00    -0.276 OA
BRANCH   2   6
ATOM      6  C   UNK A   1       8.730   0.796  22.179  0.00  0.00    +0.098 C 
BRANCH   6   7
ATOM      7  C   UNK A   1       9.979   1.673  22.228  0.00  0.00    +0.039 C 
BRANCH   7   8
ATOM      8  C   UNK A   1      10.403   2.033  23.656  0.00  0.00    +0.161 C 
BRANCH   8   9
ATOM      9  N   UNK A   1      11.069   0.890  24.352  0.00  0.00    -0.318 NA
ATOM     10  H   UNK A   1      10.840   0.023  23.852  0.00  0.00    +0.119 HD
ATOM     11  H   UNK A   1      12.082   0.991  24.228  0.00  0.00    +0.119 HD
ENDBRANCH   8   9
BRANCH   8  12
ATOM     12  C   UNK A   1       9.173   2.453  24.486  0.00  0.00    +0.322 C 
ATOM     13  O   UNK A   1       8.529   3.477  24.320  0.00  0.00    -0.249 OA
BRANCH  12  14
ATOM     14  O   UNK A   1       8.895   1.541  25.453  0.00  0.00    -0.480 OA
ATOM     15  H   UNK A   1       8.318   2.014  26.104  0.00  0.00    +0.295 HD
ENDBRANCH  12  14
ENDBRANCH   8  12
ENDBRANCH   7   8
ENDBRANCH   6   7
ENDBRANCH   2   6
ENDBRANCH   1   3
BRANCH   1  16
ATOM     16  C   UNK A   1       8.729  -3.354  24.040  0.00  0.00    +0.235 C 
ATOM     17  N   GLY A   2       7.761  -3.447  25.026  0.00  0.00    -0.303 N 
ATOM     18  H   GLY A   2       6.846  -3.042  24.862  0.00  0.00    +0.149 HD
ATOM     19  O   UNK A   1       9.912  -3.593  24.259  0.00  0.00    -0.274 OA
BRANCH  17  20
ATOM     20  CA  GLY A   2       8.122  -3.715  26.421  0.00  0.00    +0.224 C 
BRANCH  20  21
ATOM     21  C   GLY A   2       8.136  -5.196  26.796  0.00  0.00    +0.322 C 
ATOM     22  OXT GLY A   2       7.472  -5.667  27.708  0.00  0.00    -0.249 OA
BRANCH  21  23
ATOM     23  O   GLY A   2       8.908  -5.963  25.992  0.00  0.00    -0.480 OA
ATOM     24  H   GLY A   2       8.617  -6.895  26.022  0.00  0.00    +0.295 HD
ENDBRANCH  21  23
ENDBRANCH  20  21
ENDBRANCH  17  20
ENDBRANCH   1  16
BRANCH   1  25
ATOM     25  C   UNK A   1       6.872  -3.664  22.373  0.00  0.00    +0.101 C 
BRANCH  25  26
ATOM     26  S   UNK A   1       7.053  -5.465  22.080  0.00  0.00    -0.154 S 
BRANCH  26  27
ATOM     27  C   UNK A   1       5.304  -5.968  22.169  0.00  0.00    +0.104 C 
BRANCH  27  28
ATOM     28  C   UNK A   1       4.669  -5.557  23.468  0.00  0.00    -0.038 A 
ATOM     29  C   UNK A   1       5.150  -6.054  24.686  0.00  0.00    +0.004 A 
ATOM     30  C   UNK A   1       4.548  -5.678  25.886  0.00  0.00    +0.000 A 
ATOM     31  C   UNK A   1       3.467  -4.799  25.882  0.00  0.00    +0.000 A 
ATOM     32  C   UNK A   1       2.987  -4.290  24.676  0.00  0.00    +0.000 A 
ATOM     33  C   UNK A   1       3.586  -4.665  23.474  0.00  0.00    +0.004 A 
ENDBRANCH  27  28
ENDBRANCH  26  27
ENDBRANCH  25  26
ENDBRANCH   1  25
TORSDOF 15
ENDMDL
MODEL 8
REMARK VINA RESULT:      -5.7      2.472      7.035
REMARK  Name = 
REMARK  15 active torsions:
REMARK  status: ('A' for Active; 'I' for Inactive)
REMARK    1  A    between atoms: N_1  and  C_2
REMARK    2  A    between atoms: C_2  and  C_4
REMARK    3  A    between atoms: C_2  and  C_27
REMARK    4  A    between atoms: C_4  and  C_5
REMARK    5  A    between atoms: C_5  and  C_6
REMARK    6  A    between atoms: N_8  and  C_9
REMARK    7  A    between atoms: C_9  and  C_11
REMARK    8  A    between atoms: C_9  and  C_20
REMARK    9  A    between atoms: C_11  and  S_12
REMARK   10  A    between atoms: S_12  and  C_13
REMARK   11  A    between atoms: C_13  and  C_14
REMARK   12  A    between atoms: N_22  and  CA_23
REMARK   13  A    between atoms: CA_23  and  C_24
REMARK   14  A    between atoms: C_24  and  O_25
REMARK   15  A    between atoms: C_27  and  O_28
REMARK                            x       y       z     vdW  Elec       q    Type
REMARK                         _______ _______ _______ _____ _____    ______ ____
ROOT
ATOM      1  C   UNK A   1       8.656  -2.851  24.417  0.00  0.00    +0.169 C 
ENDROOT
BRANCH   1   3
ATOM      2  C   UNK A   1       8.976  -0.500  25.137  0.00  0.00    +0.214 C 
ATOM      3  N   UNK A   1       9.166  -1.498  24.217  0.00  0.00    -0.303 N 
ATOM      4  H   UNK A   1       9.585  -1.283  23.319  0.00  0.00    +0.149 HD
ATOM      5  O   UNK A   1       8.378  -0.667  26.195  0.00  0.00    -0.276 OA
BRANCH   2   6
ATOM      6  C   UNK A   1       9.590   0.830  24.758  0.00  0.00    +0.098 C 
BRANCH   6   7
ATOM      7  C   UNK A   1      10.627   0.675  23.648  0.00  0.00    +0.039 C 
BRANCH   7   8
ATOM      8  C   UNK A   1      10.311   1.520  22.410  0.00  0.00    +0.161 C 
BRANCH   8   9
ATOM      9  N   UNK A   1       9.825   2.887  22.769  0.00  0.00    -0.318 NA
ATOM     10  H   UNK A   1      10.084   3.536  22.017  0.00  0.00    +0.119 HD
ATOM     11  H   UNK A   1       8.799   2.874  22.745  0.00  0.00    +0.119 HD
ENDBRANCH   8   9
BRANCH   8  12
ATOM     12  C   UNK A   1       9.226   0.830  21.559  0.00  0.00    +0.322 C 
ATOM     13  O   UNK A   1       8.186   1.352  21.188  0.00  0.00    -0.249 OA
BRANCH  12  14
ATOM     14  O   UNK A   1       9.561  -0.456  21.280  0.00  0.00    -0.480 OA
ATOM     15  H   UNK A   1      10.235  -0.402  20.557  0.00  0.00    +0.295 HD
ENDBRANCH  12  14
ENDBRANCH   8  12
ENDBRANCH   7   8
ENDBRANCH   6   7
ENDBRANCH   2   6
ENDBRANCH   1   3
BRANCH   1  16
ATOM     16  C   UNK A   1       8.045  -3.383  23.111  0.00  0.00    +0.235 C 
ATOM     17  N   GLY A   2       7.788  -4.743  23.102  0.00  0.00    -0.303 N 
ATOM     18  H   GLY A   2       8.205  -5.330  23.818  0.00  0.00    +0.149 HD
ATOM     19  O   UNK A   1       7.786  -2.662  22.152  0.00  0.00    -0.274 OA
BRANCH  17  20
ATOM     20  CA  GLY A   2       7.309  -5.419  21.894  0.00  0.00    +0.224 C 
BRANCH  20  21
ATOM     21  C   GLY A   2       5.857  -5.112  21.533  0.00  0.00    +0.322 C 
ATOM     22  OXT GLY A   2       4.900  -5.666  22.057  0.00  0.00    -0.249 OA
BRANCH  21  23
ATOM     23  O   GLY A   2       5.710  -4.126  20.619  0.00  0.00    -0.480 OA
ATOM     24  H   GLY A   2       5.750  -4.488  19.712  0.00  0.00    +0.295 HD
ENDBRANCH  21  23
ENDBRANCH  20  21
ENDBRANCH  17  20
ENDBRANCH   1  16
BRANCH   1  25
ATOM     25  C   UNK A   1       9.757  -3.800  24.905  0.00  0.00    +0.101 C 
BRANCH  25  26
ATOM     26  S   UNK A   1       9.238  -4.883  26.290  0.00  0.00    -0.154 S 
BRANCH  26  27
ATOM     27  C   UNK A   1       7.673  -4.070  26.745  0.00  0.00    +0.104 C 
BRANCH  27  28
ATOM     28  C   UNK A   1       6.558  -5.062  26.924  0.00  0.00    -0.038 A 
ATOM     29  C   UNK A   1       6.113  -5.411  28.205  0.00  0.00    +0.004 A 
ATOM     30  C   UNK A   1       5.085  -6.341  28.364  0.00  0.00    +0.000 A 
ATOM     31  C   UNK A   1       4.490  -6.924  27.246  0.00  0.00    +0.000 A 
ATOM     32  C   UNK A   1       4.919  -6.575  25.966  0.00  0.00    +0.000 A 
ATOM     33  C   UNK A   1       5.947  -5.647  25.805  0.00  0.00    +0.004 A 
ENDBRANCH  27  28
ENDBRANCH  26  27
ENDBRANCH  25  26
ENDBRANCH   1  25
TORSDOF 15
ENDMDL
MODEL 9
REMARK VINA RESULT:      -5.6      1.963      2.397
REMARK  Name = 
REMARK  15 active torsions:
REMARK  status: ('A' for Active; 'I' for Inactive)
REMARK    1  A    between atoms: N_1  and  C_2
REMARK    2  A    between atoms: C_2  and  C_4
REMARK    3  A    between atoms: C_2  and  C_27
REMARK    4  A    between atoms: C_4  and  C_5
REMARK    5  A    between atoms: C_5  and  C_6
REMARK    6  A    between atoms: N_8  and  C_9
REMARK    7  A    between atoms: C_9  and  C_11
REMARK    8  A    between atoms: C_9  and  C_20
REMARK    9  A    between atoms: C_11  and  S_12
REMARK   10  A    between atoms: S_12  and  C_13
REMARK   11  A    between atoms: C_13  and  C_14
REMARK   12  A    between atoms: N_22  and  CA_23
REMARK   13  A    between atoms: CA_23  and  C_24
REMARK   14  A    between atoms: C_24  and  O_25
REMARK   15  A    between atoms: C_27  and  O_28
REMARK                            x       y       z     vdW  Elec       q    Type
REMARK                         _______ _______ _______ _____ _____    ______ ____
ROOT
ATOM      1  C   UNK A   1       8.255  -3.410  25.513  0.00  0.00    +0.169 C 
ENDROOT
BRANCH   1   3
ATOM      2  C   UNK A   1       6.674  -4.352  27.174  0.00  0.00    +0.214 C 
ATOM      3  N   UNK A   1       6.952  -3.464  26.168  0.00  0.00    -0.303 N 
ATOM      4  H   UNK A   1       6.210  -2.887  25.786  0.00  0.00    +0.149 HD
ATOM      5  O   UNK A   1       7.495  -5.155  27.606  0.00  0.00    -0.276 OA
BRANCH   2   6
ATOM      6  C   UNK A   1       5.274  -4.247  27.738  0.00  0.00    +0.098 C 
BRANCH   6   7
ATOM      7  C   UNK A   1       4.393  -3.333  26.889  0.00  0.00    +0.039 C 
BRANCH   7   8
ATOM      8  C   UNK A   1       3.419  -4.104  25.993  0.00  0.00    +0.161 C 
BRANCH   8   9
ATOM      9  N   UNK A   1       3.356  -5.556  26.345  0.00  0.00    -0.318 NA
ATOM     10  H   UNK A   1       3.875  -5.705  27.218  0.00  0.00    +0.119 HD
ATOM     11  H   UNK A   1       2.385  -5.780  26.590  0.00  0.00    +0.119 HD
ENDBRANCH   8   9
BRANCH   8  12
ATOM     12  C   UNK A   1       3.847  -3.985  24.516  0.00  0.00    +0.322 C 
ATOM     13  O   UNK A   1       3.447  -4.697  23.608  0.00  0.00    -0.249 OA
BRANCH  12  14
ATOM     14  O   UNK A   1       4.751  -2.986  24.344  0.00  0.00    -0.480 OA
ATOM     15  H   UNK A   1       5.353  -3.298  23.621  0.00  0.00    +0.295 HD
ENDBRANCH  12  14
ENDBRANCH   8  12
ENDBRANCH   7   8
ENDBRANCH   6   7
ENDBRANCH   2   6
ENDBRANCH   1   3
BRANCH   1  16
ATOM     16  C   UNK A   1       8.329  -4.467  24.399  0.00  0.00    +0.235 C 
ATOM     17  N   GLY A   2       7.340  -4.362  23.435  0.00  0.00    -0.303 N 
ATOM     18  H   GLY A   2       6.528  -3.783  23.619  0.00  0.00    +0.149 HD
ATOM     19  O   UNK A   1       9.201  -5.329  24.350  0.00  0.00    -0.274 OA
BRANCH  17  20
ATOM     20  CA  GLY A   2       7.209  -5.360  22.369  0.00  0.00    +0.224 C 
BRANCH  20  21
ATOM     21  C   GLY A   2       6.182  -5.005  21.295  0.00  0.00    +0.322 C 
ATOM     22  OXT GLY A   2       5.960  -5.704  20.317  0.00  0.00    -0.249 OA
BRANCH  21  23
ATOM     23  O   GLY A   2       5.489  -3.870  21.545  0.00  0.00    -0.480 OA
ATOM     24  H   GLY A   2       5.614  -3.587  22.472  0.00  0.00    +0.295 HD
ENDBRANCH  21  23
ENDBRANCH  20  21
ENDBRANCH  17  20
ENDBRANCH   1  16
BRANCH   1  25
ATOM     25  C   UNK A   1       8.535  -2.019  24.934  0.00  0.00    +0.101 C 
BRANCH  25  26
ATOM     26  S   UNK A   1       9.908  -1.987  23.719  0.00  0.00    -0.154 S 
BRANCH  26  27
ATOM     27  C   UNK A   1      10.537  -0.303  24.012  0.00  0.00    +0.104 C 
BRANCH  27  28
ATOM     28  C   UNK A   1       9.678   0.739  23.351  0.00  0.00    -0.038 A 
ATOM     29  C   UNK A   1       9.322   0.618  22.002  0.00  0.00    +0.004 A 
ATOM     30  C   UNK A   1       8.534   1.594  21.392  0.00  0.00    +0.000 A 
ATOM     31  C   UNK A   1       8.091   2.695  22.125  0.00  0.00    +0.000 A 
ATOM     32  C   UNK A   1       8.432   2.818  23.471  0.00  0.00    +0.000 A 
ATOM     33  C   UNK A   1       9.220   1.844  24.083  0.00  0.00    +0.004 A 
ENDBRANCH  27  28
ENDBRANCH  26  27
ENDBRANCH  25  26
ENDBRANCH   1  25
TORSDOF 15
ENDMDL
