MODEL 1
REMARK VINA RESULT:      -5.2      0.000      0.000
REMARK  Name = 
REMARK  8 active torsions:
REMARK  status: ('A' for Active; 'I' for Inactive)
REMARK    1  A    between atoms: O_1  and  P_2
REMARK    2  A    between atoms: P_2  and  O_3
REMARK    3  A    between atoms: P_2  and  C_5
REMARK    4  A    between atoms: C_5  and  N_6
REMARK    5  A    between atoms: C_5  and  P_13
REMARK    6  A    between atoms: N_6  and  C_7
REMARK    7  A    between atoms: P_13  and  O_14
REMARK    8  A    between atoms: P_13  and  O_15
REMARK                            x       y       z     vdW  Elec       q    Type
REMARK                         _______ _______ _______ _____ _____    ______ ____
ROOT
ATOM      1  C   UNL     1       8.552  -3.047  23.460  0.00  0.00    +0.284 C 
ENDROOT
BRANCH   1   2
ATOM      2  P   UNL     1       6.899  -3.121  22.675  0.00  0.00    +0.356 P 
ATOM      3  O   UNL     1       7.156  -4.516  22.099  0.00  0.00    -0.257 OA
BRANCH   2   4
ATOM      4  O   UNL     1       5.338  -3.191  21.934  0.00  0.00    -0.323 OA
ATOM      5  H   UNL     1       4.808  -2.498  22.389  0.00  0.00    +0.220 HD
ENDBRANCH   2   4
BRANCH   2   6
ATOM      6  O   UNL     1       6.123  -3.350  24.109  0.00  0.00    -0.323 OA
ATOM      7  H   UNL     1       6.660  -3.984  24.639  0.00  0.00    +0.220 HD
ENDBRANCH   2   6
ENDBRANCH   1   2
BRANCH   1   8
ATOM      8  P   UNL     1       8.770  -4.166  24.920  0.00  0.00    +0.356 P 
ATOM      9  O   UNL     1       8.534  -3.529  26.251  0.00  0.00    -0.257 OA
BRANCH   8  10
ATOM     10  O   UNL     1      10.219  -4.850  24.817  0.00  0.00    -0.323 OA
ATOM     11  H   UNL     1      10.445  -5.451  25.567  0.00  0.00    +0.220 HD
ENDBRANCH   8  10
BRANCH   8  12
ATOM     12  O   UNL     1       7.803  -5.414  24.591  0.00  0.00    -0.323 OA
ATOM     13  H   UNL     1       7.653  -5.535  23.629  0.00  0.00    +0.220 HD
ENDBRANCH   8  12
ENDBRANCH   1   8
BRANCH   1  14
ATOM     14  N   UNL     1       8.815  -1.627  23.873  0.00  0.00    -0.291 NA
ATOM     15  H   UNL     1       8.827  -1.600  24.899  0.00  0.00    +0.124 HD
BRANCH  14  16
ATOM     16  C   UNL     1      10.149  -1.138  23.415  0.00  0.00    +0.055 C 
ATOM     17  C   UNL     1      10.537   0.168  24.132  0.00  0.00    +0.019 C 
ATOM     18  C   UNL     1       9.794   1.404  23.630  0.00  0.00    +0.002 C 
ATOM     19  C   UNL     1       9.812   1.526  22.106  0.00  0.00    +0.000 C 
ATOM     20  C   UNL     1       9.371   0.234  21.431  0.00  0.00    +0.002 C 
ATOM     21  C   UNL     1      10.252  -0.923  21.894  0.00  0.00    +0.019 C 
ENDBRANCH  14  16
ENDBRANCH   1  14
TORSDOF 8
ENDMDL
MODEL 2
REMARK VINA RESULT:      -5.1      1.122      2.901
REMARK  Name = 
REMARK  8 active torsions:
REMARK  status: ('A' for Active; 'I' for Inactive)
REMARK    1  A    between atoms: O_1  and  P_2
REMARK    2  A    between atoms: P_2  and  O_3
REMARK    3  A    between atoms: P_2  and  C_5
REMARK    4  A    between atoms: C_5  and  N_6
REMARK    5  A    between atoms: C_5  and  P_13
REMARK    6  A    between atoms: N_6  and  C_7
REMARK    7  A    between atoms: P_13  and  O_14
REMARK    8  A    between atoms: P_13  and  O_15
REMARK                            x       y       z     vdW  Elec       q    Type
REMARK                         _______ _______ _______ _____ _____    ______ ____
ROOT
ATOM      1  C   UNL     1       7.840  -2.938  24.841  0.00  0.00    +0.284 C 
ENDROOT
BRANCH   1   2
ATOM      2  P   UNL     1       9.194  -4.160  24.986  0.00  0.00    +0.356 P 
ATOM      3  O   UNL     1       8.710  -4.643  26.356  0.00  0.00    -0.257 OA
BRANCH   2   4
ATOM      4  O   UNL     1      10.474  -5.316  25.122  0.00  0.00    -0.323 OA
ATOM      5  H   UNL     1      10.840  -5.186  26.026  0.00  0.00    +0.220 HD
ENDBRANCH   2   4
BRANCH   2   6
ATOM      6  O   UNL     1       8.525  -5.176  23.876  0.00  0.00    -0.323 OA
ATOM      7  H   UNL     1       8.477  -4.690  23.020  0.00  0.00    +0.220 HD
ENDBRANCH   2   6
ENDBRANCH   1   2
BRANCH   1   8
ATOM      8  P   UNL     1       6.173  -3.663  24.485  0.00  0.00    +0.356 P 
ATOM      9  O   UNL     1       5.010  -2.811  24.882  0.00  0.00    -0.257 OA
BRANCH   8  10
ATOM     10  O   UNL     1       6.110  -5.127  25.142  0.00  0.00    -0.323 OA
ATOM     11  H   UNL     1       5.702  -5.819  24.568  0.00  0.00    +0.220 HD
ENDBRANCH   8  10
BRANCH   8  12
ATOM     12  O   UNL     1       6.240  -4.020  22.914  0.00  0.00    -0.323 OA
ATOM     13  H   UNL     1       5.500  -3.628  22.403  0.00  0.00    +0.220 HD
ENDBRANCH   8  12
ENDBRANCH   1   8
BRANCH   1  14
ATOM     14  N   UNL     1       8.201  -1.958  23.761  0.00  0.00    -0.291 NA
ATOM     15  H   UNL     1       7.698  -1.085  23.955  0.00  0.00    +0.124 HD
BRANCH  14  16
ATOM     16  C   UNL     1       9.655  -1.624  23.759  0.00  0.00    +0.055 C 
ATOM     17  C   UNL     1       9.933  -0.348  24.576  0.00  0.00    +0.019 C 
ATOM     18  C   UNL     1       9.526   0.947  23.876  0.00  0.00    +0.002 C 
ATOM     19  C   UNL     1      10.042   1.029  22.440  0.00  0.00    +0.000 C 
ATOM     20  C   UNL     1       9.704  -0.226  21.645  0.00  0.00    +0.002 C 
ATOM     21  C   UNL     1      10.261  -1.457  22.353  0.00  0.00    +0.019 C 
ENDBRANCH  14  16
ENDBRANCH   1  14
TORSDOF 8
ENDMDL
MODEL 3
REMARK VINA RESULT:      -5.1      1.493      3.364
REMARK  Name = 
REMARK  8 active torsions:
REMARK  status: ('A' for Active; 'I' for Inactive)
REMARK    1  A    between atoms: O_1  and  P_2
REMARK    2  A    between atoms: P_2  and  O_3
REMARK    3  A    between atoms: P_2  and  C_5
REMARK    4  A    between atoms: C_5  and  N_6
REMARK    5  A    between atoms: C_5  and  P_13
REMARK    6  A    between atoms: N_6  and  C_7
REMARK    7  A    between atoms: P_13  and  O_14
REMARK    8  A    between atoms: P_13  and  O_15
REMARK                            x       y       z     vdW  Elec       q    Type
REMARK                         _______ _______ _______ _____ _____    ______ ____
ROOT
ATOM      1  C   UNL     1       7.432  -3.840  23.560  0.00  0.00    +0.284 C 
ENDROOT
BRANCH   1   2
ATOM      2  P   UNL     1       8.639  -4.737  24.603  0.00  0.00    +0.356 P 
ATOM      3  O   UNL     1       7.573  -5.123  25.632  0.00  0.00    -0.257 OA
BRANCH   2   4
ATOM      4  O   UNL     1       9.780  -5.585  25.589  0.00  0.00    -0.323 OA
ATOM      5  H   UNL     1       9.437  -6.506  25.641  0.00  0.00    +0.220 HD
ENDBRANCH   2   4
BRANCH   2   6
ATOM      6  O   UNL     1       8.749  -6.002  23.556  0.00  0.00    -0.323 OA
ATOM      7  H   UNL     1       8.191  -6.732  23.912  0.00  0.00    +0.220 HD
ENDBRANCH   2   6
ENDBRANCH   1   2
BRANCH   1   8
ATOM      8  P   UNL     1       6.318  -4.925  22.553  0.00  0.00    +0.356 P 
ATOM      9  O   UNL     1       6.955  -5.557  21.358  0.00  0.00    -0.257 OA
BRANCH   8  10
ATOM     10  O   UNL     1       5.005  -4.082  22.171  0.00  0.00    -0.323 OA
ATOM     11  H   UNL     1       4.791  -3.348  22.795  0.00  0.00    +0.220 HD
ENDBRANCH   8  10
BRANCH   8  12
ATOM     12  O   UNL     1       5.726  -5.968  23.631  0.00  0.00    -0.323 OA
ATOM     13  H   UNL     1       4.886  -5.661  24.035  0.00  0.00    +0.220 HD
ENDBRANCH   8  12
ENDBRANCH   1   8
BRANCH   1  14
ATOM     14  N   UNL     1       8.189  -2.916  22.649  0.00  0.00    -0.291 NA
ATOM     15  H   UNL     1       7.501  -2.361  22.130  0.00  0.00    +0.124 HD
BRANCH  14  16
ATOM     16  C   UNL     1       9.042  -1.949  23.400  0.00  0.00    +0.055 C 
ATOM     17  C   UNL     1       8.191  -0.823  24.018  0.00  0.00    +0.019 C 
ATOM     18  C   UNL     1       7.706   0.221  23.014  0.00  0.00    +0.002 C 
ATOM     19  C   UNL     1       8.828   0.740  22.114  0.00  0.00    +0.000 C 
ATOM     20  C   UNL     1       9.614  -0.399  21.477  0.00  0.00    +0.002 C 
ATOM     21  C   UNL     1      10.169  -1.319  22.561  0.00  0.00    +0.019 C 
ENDBRANCH  14  16
ENDBRANCH   1  14
TORSDOF 8
ENDMDL
MODEL 4
REMARK VINA RESULT:      -5.0      1.252      3.479
REMARK  Name = 
REMARK  8 active torsions:
REMARK  status: ('A' for Active; 'I' for Inactive)
REMARK    1  A    between atoms: O_1  and  P_2
REMARK    2  A    between atoms: P_2  and  O_3
REMARK    3  A    between atoms: P_2  and  C_5
REMARK    4  A    between atoms: C_5  and  N_6
REMARK    5  A    between atoms: C_5  and  P_13
REMARK    6  A    between atoms: N_6  and  C_7
REMARK    7  A    between atoms: P_13  and  O_14
REMARK    8  A    between atoms: P_13  and  O_15
REMARK                            x       y       z     vdW  Elec       q    Type
REMARK                         _______ _______ _______ _____ _____    ______ ____
ROOT
ATOM      1  C   UNL     1       7.951  -3.254  24.338  0.00  0.00    +0.284 C 
ENDROOT
BRANCH   1   2
ATOM      2  P   UNL     1       9.170  -4.383  25.106  0.00  0.00    +0.356 P 
ATOM      3  O   UNL     1       8.258  -4.671  26.302  0.00  0.00    -0.257 OA
BRANCH   2   4
ATOM      4  O   UNL     1      10.322  -5.449  25.832  0.00  0.00    -0.323 OA
ATOM      5  H   UNL     1      10.840  -5.816  25.080  0.00  0.00    +0.220 HD
ENDBRANCH   2   4
BRANCH   2   6
ATOM      6  O   UNL     1       8.892  -5.582  24.014  0.00  0.00    -0.323 OA
ATOM      7  H   UNL     1       8.546  -6.360  24.509  0.00  0.00    +0.220 HD
ENDBRANCH   2   6
ENDBRANCH   1   2
BRANCH   1   8
ATOM      8  P   UNL     1       6.671  -4.089  23.291  0.00  0.00    +0.356 P 
ATOM      9  O   UNL     1       7.152  -4.570  21.960  0.00  0.00    -0.257 OA
BRANCH   8  10
ATOM     10  O   UNL     1       5.405  -3.109  23.166  0.00  0.00    -0.323 OA
ATOM     11  H   UNL     1       4.730  -3.390  22.503  0.00  0.00    +0.220 HD
ENDBRANCH   8  10
BRANCH   8  12
ATOM     12  O   UNL     1       6.087  -5.245  24.253  0.00  0.00    -0.323 OA
ATOM     13  H   UNL     1       6.496  -5.239  25.145  0.00  0.00    +0.220 HD
ENDBRANCH   8  12
ENDBRANCH   1   8
BRANCH   1  14
ATOM     14  N   UNL     1       8.696  -2.247  23.509  0.00  0.00    -0.291 NA
ATOM     15  H   UNL     1       8.529  -2.473  22.523  0.00  0.00    +0.124 HD
BRANCH  14  16
ATOM     16  C   UNL     1       8.199  -0.856  23.722  0.00  0.00    +0.055 C 
ATOM     17  C   UNL     1       8.543   0.046  22.521  0.00  0.00    +0.019 C 
ATOM     18  C   UNL     1      10.009   0.467  22.452  0.00  0.00    +0.002 C 
ATOM     19  C   UNL     1      10.530   1.013  23.782  0.00  0.00    +0.000 C 
ATOM     20  C   UNL     1      10.220   0.071  24.939  0.00  0.00    +0.002 C 
ATOM     21  C   UNL     1       8.718  -0.191  25.010  0.00  0.00    +0.019 C 
ENDBRANCH  14  16
ENDBRANCH   1  14
TORSDOF 8
ENDMDL
MODEL 5
REMARK VINA RESULT:      -5.0      1.562      2.971
REMARK  Name = 
REMARK  8 active torsions:
REMARK  status: ('A' for Active; 'I' for Inactive)
REMARK    1  A    between atoms: O_1  and  P_2
REMARK    2  A    between atoms: P_2  and  O_3
REMARK    3  A    between atoms: P_2  and  C_5
REMARK    4  A    between atoms: C_5  and  N_6
REMARK    5  A    between atoms: C_5  and  P_13
REMARK    6  A    between atoms: N_6  and  C_7
REMARK    7  A    between atoms: P_13  and  O_14
REMARK    8  A    between atoms: P_13  and  O_15
REMARK                            x       y       z     vdW  Elec       q    Type
REMARK                         _______ _______ _______ _____ _____    ______ ____
ROOT
ATOM      1  C   UNL     1       8.431  -2.526  25.432  0.00  0.00    +0.284 C 
ENDROOT
BRANCH   1   2
ATOM      2  P   UNL     1       9.083  -4.197  25.068  0.00  0.00    +0.356 P 
ATOM      3  O   UNL     1       9.231  -4.542  26.553  0.00  0.00    -0.257 OA
BRANCH   2   4
ATOM      4  O   UNL     1       9.699  -5.777  24.724  0.00  0.00    -0.323 OA
ATOM      5  H   UNL     1       9.214  -6.378  25.334  0.00  0.00    +0.220 HD
ENDBRANCH   2   4
BRANCH   2   6
ATOM      6  O   UNL     1       7.613  -4.774  24.604  0.00  0.00    -0.323 OA
ATOM      7  H   UNL     1       7.532  -5.692  24.951  0.00  0.00    +0.220 HD
ENDBRANCH   2   6
ENDBRANCH   1   2
BRANCH   1   8
ATOM      8  P   UNL     1       6.695  -2.492  26.075  0.00  0.00    +0.356 P 
ATOM      9  O   UNL     1       5.628  -2.555  25.032  0.00  0.00    -0.257 OA
BRANCH   8  10
ATOM     10  O   UNL     1       6.538  -1.213  27.033  0.00  0.00    -0.323 OA
ATOM     11  H   UNL     1       5.615  -0.876  27.123  0.00  0.00    +0.220 HD
ENDBRANCH   8  10
BRANCH   8  12
ATOM     12  O   UNL     1       6.662  -3.698  27.146  0.00  0.00    -0.323 OA
ATOM     13  H   UNL     1       6.193  -3.458  27.974  0.00  0.00    +0.220 HD
ENDBRANCH   8  12
ENDBRANCH   1   8
BRANCH   1  14
ATOM     14  N   UNL     1       8.518  -1.702  24.179  0.00  0.00    -0.291 NA
ATOM     15  H   UNL     1       8.056  -0.805  24.366  0.00  0.00    +0.124 HD
BRANCH  14  16
ATOM     16  C   UNL     1       9.927  -1.388  23.800  0.00  0.00    +0.055 C 
ATOM     17  C   UNL     1      10.360  -0.020  24.358  0.00  0.00    +0.019 C 
ATOM     18  C   UNL     1       9.780   1.177  23.607  0.00  0.00    +0.002 C 
ATOM     19  C   UNL     1       9.952   1.064  22.092  0.00  0.00    +0.000 C 
ATOM     20  C   UNL     1       9.464  -0.280  21.567  0.00  0.00    +0.002 C 
ATOM     21  C   UNL     1      10.191  -1.415  22.283  0.00  0.00    +0.019 C 
ENDBRANCH  14  16
ENDBRANCH   1  14
TORSDOF 8
ENDMDL
MODEL 6
REMARK VINA RESULT:      -5.0      1.471      3.480
REMARK  Name = 
REMARK  8 active torsions:
REMARK  status: ('A' for Active; 'I' for Inactive)
REMARK    1  A    between atoms: O_1  and  P_2
REMARK    2  A    between atoms: P_2  and  O_3
REMARK    3  A    between atoms: P_2  and  C_5
REMARK    4  A    between atoms: C_5  and  N_6
REMARK    5  A    between atoms: C_5  and  P_13
REMARK    6  A    between atoms: N_6  and  C_7
REMARK    7  A    between atoms: P_13  and  O_14
REMARK    8  A    between atoms: P_13  and  O_15
REMARK                            x       y       z     vdW  Elec       q    Type
REMARK                         _______ _______ _______ _____ _____    ______ ____
ROOT
ATOM      1  C   UNL     1       7.525  -3.691  23.764  0.00  0.00    +0.284 C 
ENDROOT
BRANCH   1   2
ATOM      2  P   UNL     1       8.610  -4.834  24.696  0.00  0.00    +0.356 P 
ATOM      3  O   UNL     1       8.590  -5.881  23.578  0.00  0.00    -0.257 OA
BRANCH   2   4
ATOM      4  O   UNL     1       9.636  -5.914  25.576  0.00  0.00    -0.323 OA
ATOM      5  H   UNL     1      10.547  -5.714  25.262  0.00  0.00    +0.220 HD
ENDBRANCH   2   4
BRANCH   2   6
ATOM      6  O   UNL     1       9.953  -3.917  24.445  0.00  0.00    -0.323 OA
ATOM      7  H   UNL     1      10.191  -3.497  25.304  0.00  0.00    +0.220 HD
ENDBRANCH   2   6
ENDBRANCH   1   2
BRANCH   1   8
ATOM      8  P   UNL     1       6.234  -4.519  22.726  0.00  0.00    +0.356 P 
ATOM      9  O   UNL     1       5.075  -3.656  22.344  0.00  0.00    -0.257 OA
BRANCH   8  10
ATOM     10  O   UNL     1       5.774  -5.864  23.473  0.00  0.00    -0.323 OA
ATOM     11  H   UNL     1       6.447  -6.587  23.472  0.00  0.00    +0.220 HD
ENDBRANCH   8  10
BRANCH   8  12
ATOM     12  O   UNL     1       7.069  -5.114  21.481  0.00  0.00    -0.323 OA
ATOM     13  H   UNL     1       8.039  -5.068  21.618  0.00  0.00    +0.220 HD
ENDBRANCH   8  12
ENDBRANCH   1   8
BRANCH   1  14
ATOM     14  N   UNL     1       8.389  -2.825  22.892  0.00  0.00    -0.291 NA
ATOM     15  H   UNL     1       8.287  -3.158  21.928  0.00  0.00    +0.124 HD
BRANCH  14  16
ATOM     16  C   UNL     1       7.957  -1.397  22.902  0.00  0.00    +0.055 C 
ATOM     17  C   UNL     1       8.925  -0.518  22.088  0.00  0.00    +0.019 C 
ATOM     18  C   UNL     1      10.252  -0.232  22.787  0.00  0.00    +0.002 C 
ATOM     19  C   UNL     1      10.069   0.250  24.227  0.00  0.00    +0.000 C 
ATOM     20  C   UNL     1       9.149  -0.670  25.018  0.00  0.00    +0.002 C 
ATOM     21  C   UNL     1       7.803  -0.795  24.311  0.00  0.00    +0.019 C 
ENDBRANCH  14  16
ENDBRANCH   1  14
TORSDOF 8
ENDMDL
MODEL 7
REMARK VINA RESULT:      -5.0      3.582      5.116
REMARK  Name = 
REMARK  8 active torsions:
REMARK  status: ('A' for Active; 'I' for Inactive)
REMARK    1  A    between atoms: O_1  and  P_2
REMARK    2  A    between atoms: P_2  and  O_3
REMARK    3  A    between atoms: P_2  and  C_5
REMARK    4  A    between atoms: C_5  and  N_6
REMARK    5  A    between atoms: C_5  and  P_13
REMARK    6  A    between atoms: N_6  and  C_7
REMARK    7  A    between atoms: P_13  and  O_14
REMARK    8  A    between atoms: P_13  and  O_15
REMARK                            x       y       z     vdW  Elec       q    Type
REMARK                         _______ _______ _______ _____ _____    ______ ____
ROOT
ATOM      1  C   UNL     1       8.014  -1.383  23.326  0.00  0.00    +0.284 C 
ENDROOT
BRANCH   1   2
ATOM      2  P   UNL     1       7.437   0.341  23.109  0.00  0.00    +0.356 P 
ATOM      3  O   UNL     1       8.144   0.815  24.382  0.00  0.00    -0.257 OA
BRANCH   2   4
ATOM      4  O   UNL     1       6.893   1.970  22.903  0.00  0.00    -0.323 OA
ATOM      5  H   UNL     1       6.271   1.937  22.141  0.00  0.00    +0.220 HD
ENDBRANCH   2   4
BRANCH   2   6
ATOM      6  O   UNL     1       8.478   0.634  21.868  0.00  0.00    -0.323 OA
ATOM      7  H   UNL     1       9.125  -0.109  21.842  0.00  0.00    +0.220 HD
ENDBRANCH   2   6
ENDBRANCH   1   2
BRANCH   1   8
ATOM      8  P   UNL     1       9.828  -1.636  23.051  0.00  0.00    +0.356 P 
ATOM      9  O   UNL     1      10.411  -2.840  23.717  0.00  0.00    -0.257 OA
BRANCH   8  10
ATOM     10  O   UNL     1      10.592  -0.283  23.455  0.00  0.00    -0.323 OA
ATOM     11  H   UNL     1      11.182   0.082  22.754  0.00  0.00    +0.220 HD
ENDBRANCH   8  10
BRANCH   8  12
ATOM     12  O   UNL     1       9.975  -1.619  21.445  0.00  0.00    -0.323 OA
ATOM     13  H   UNL     1      10.664  -0.992  21.134  0.00  0.00    +0.220 HD
ENDBRANCH   8  12
ENDBRANCH   1   8
BRANCH   1  14
ATOM     14  N   UNL     1       7.237  -2.263  22.389  0.00  0.00    -0.291 NA
ATOM     15  H   UNL     1       7.910  -2.860  21.897  0.00  0.00    +0.124 HD
BRANCH  14  16
ATOM     16  C   UNL     1       6.300  -3.174  23.109  0.00  0.00    +0.055 C 
ATOM     17  C   UNL     1       7.063  -4.116  24.060  0.00  0.00    +0.019 C 
ATOM     18  C   UNL     1       7.800  -5.254  23.358  0.00  0.00    +0.002 C 
ATOM     19  C   UNL     1       6.919  -5.999  22.355  0.00  0.00    +0.000 C 
ATOM     20  C   UNL     1       6.222  -5.042  21.396  0.00  0.00    +0.002 C 
ATOM     21  C   UNL     1       5.406  -4.019  22.182  0.00  0.00    +0.019 C 
ENDBRANCH  14  16
ENDBRANCH   1  14
TORSDOF 8
ENDMDL
MODEL 8
REMARK VINA RESULT:      -4.9      1.672      2.370
REMARK  Name = 
REMARK  8 active torsions:
REMARK  status: ('A' for Active; 'I' for Inactive)
REMARK    1  A    between atoms: O_1  and  P_2
REMARK    2  A    between atoms: P_2  and  O_3
REMARK    3  A    between atoms: P_2  and  C_5
REMARK    4  A    between atoms: C_5  and  N_6
REMARK    5  A    between atoms: C_5  and  P_13
REMARK    6  A    between atoms: N_6  and  C_7
REMARK    7  A    between atoms: P_13  and  O_14
REMARK    8  A    between atoms: P_13  and  O_15
REMARK                            x       y       z     vdW  Elec       q    Type
REMARK                         _______ _______ _______ _____ _____    ______ ____
ROOT
ATOM      1  C   UNL     1       8.370  -4.762  24.526  0.00  0.00    +0.284 C 
ENDROOT
BRANCH   1   2
ATOM      2  P   UNL     1       6.850  -4.786  23.506  0.00  0.00    +0.356 P 
ATOM      3  O   UNL     1       7.424  -5.832  22.546  0.00  0.00    -0.257 OA
BRANCH   2   4
ATOM      4  O   UNL     1       5.414  -4.809  22.541  0.00  0.00    -0.323 OA
ATOM      5  H   UNL     1       5.602  -5.451  21.819  0.00  0.00    +0.220 HD
ENDBRANCH   2   4
BRANCH   2   6
ATOM      6  O   UNL     1       5.990  -5.618  24.635  0.00  0.00    -0.323 OA
ATOM      7  H   UNL     1       5.152  -5.915  24.211  0.00  0.00    +0.220 HD
ENDBRANCH   2   6
ENDBRANCH   1   2
BRANCH   1   8
ATOM      8  P   UNL     1       8.079  -4.593  26.348  0.00  0.00    +0.356 P 
ATOM      9  O   UNL     1       6.979  -3.658  26.733  0.00  0.00    -0.257 OA
BRANCH   8  10
ATOM     10  O   UNL     1       9.475  -4.215  27.047  0.00  0.00    -0.323 OA
ATOM     11  H   UNL     1      10.275  -4.407  26.501  0.00  0.00    +0.220 HD
ENDBRANCH   8  10
BRANCH   8  12
ATOM     12  O   UNL     1       7.875  -6.114  26.844  0.00  0.00    -0.323 OA
ATOM     13  H   UNL     1       8.203  -6.772  26.195  0.00  0.00    +0.220 HD
ENDBRANCH   8  12
ENDBRANCH   1   8
BRANCH   1  14
ATOM     14  N   UNL     1       9.240  -3.634  24.051  0.00  0.00    -0.291 NA
ATOM     15  H   UNL     1       9.757  -3.968  23.230  0.00  0.00    +0.124 HD
BRANCH  14  16
ATOM     16  C   UNL     1       8.447  -2.451  23.607  0.00  0.00    +0.055 C 
ATOM     17  C   UNL     1       8.894  -1.975  22.212  0.00  0.00    +0.019 C 
ATOM     18  C   UNL     1      10.223  -1.222  22.201  0.00  0.00    +0.002 C 
ATOM     19  C   UNL     1      10.286  -0.121  23.260  0.00  0.00    +0.000 C 
ATOM     20  C   UNL     1       9.890  -0.638  24.637  0.00  0.00    +0.002 C 
ATOM     21  C   UNL     1       8.497  -1.258  24.580  0.00  0.00    +0.019 C 
ENDBRANCH  14  16
ENDBRANCH   1  14
TORSDOF 8
ENDMDL
MODEL 9
REMARK VINA RESULT:      -4.8      3.409      5.375
REMARK  Name = 
REMARK  8 active torsions:
REMARK  status: ('A' for Active; 'I' for Inactive)
REMARK    1  A    between atoms: O_1  and  P_2
REMARK    2  A    between atoms: P_2  and  O_3
REMARK    3  A    between atoms: P_2  and  C_5
REMARK    4  A    between atoms: C_5  and  N_6
REMARK    5  A    between atoms: C_5  and  P_13
REMARK    6  A    between atoms: N_6  and  C_7
REMARK    7  A    between atoms: P_13  and  O_14
REMARK    8  A    between atoms: P_13  and  O_15
REMARK                            x       y       z     vdW  Elec       q    Type
REMARK                         _______ _______ _______ _____ _____    ______ ____
ROOT
ATOM      1  C   UNL     1       7.922  -2.133  23.540  0.00  0.00    +0.284 C 
ENDROOT
BRANCH   1   2
ATOM      2  P   UNL     1       6.628  -0.919  23.991  0.00  0.00    +0.356 P 
ATOM      3  O   UNL     1       7.379  -0.478  25.251  0.00  0.00    -0.257 OA
BRANCH   2   4
ATOM      4  O   UNL     1       5.405   0.228  24.417  0.00  0.00    -0.323 OA
ATOM      5  H   UNL     1       4.553  -0.244  24.278  0.00  0.00    +0.220 HD
ENDBRANCH   2   4
BRANCH   2   6
ATOM      6  O   UNL     1       7.064   0.132  22.802  0.00  0.00    -0.323 OA
ATOM      7  H   UNL     1       7.903   0.564  23.081  0.00  0.00    +0.220 HD
ENDBRANCH   2   6
ENDBRANCH   1   2
BRANCH   1   8
ATOM      8  P   UNL     1       9.430  -1.403  22.751  0.00  0.00    +0.356 P 
ATOM      9  O   UNL     1       9.257  -0.961  21.334  0.00  0.00    -0.257 OA
BRANCH   8  10
ATOM     10  O   UNL     1      10.642  -2.443  22.923  0.00  0.00    -0.323 OA
ATOM     11  H   UNL     1      11.541  -2.037  22.889  0.00  0.00    +0.220 HD
ENDBRANCH   8  10
BRANCH   8  12
ATOM     12  O   UNL     1       9.866  -0.233  23.772  0.00  0.00    -0.323 OA
ATOM     13  H   UNL     1      10.159  -0.578  24.642  0.00  0.00    +0.220 HD
ENDBRANCH   8  12
ENDBRANCH   1   8
BRANCH   1  14
ATOM     14  N   UNL     1       7.315  -3.149  22.616  0.00  0.00    -0.291 NA
ATOM     15  H   UNL     1       7.713  -2.997  21.684  0.00  0.00    +0.124 HD
BRANCH  14  16
ATOM     16  C   UNL     1       7.657  -4.549  23.006  0.00  0.00    +0.055 C 
ATOM     17  C   UNL     1       7.176  -5.554  21.943  0.00  0.00    +0.019 C 
ATOM     18  C   UNL     1       5.670  -5.807  21.953  0.00  0.00    +0.002 C 
ATOM     19  C   UNL     1       5.132  -6.108  23.352  0.00  0.00    +0.000 C 
ATOM     20  C   UNL     1       5.581  -5.065  24.367  0.00  0.00    +0.002 C 
ATOM     21  C   UNL     1       7.105  -4.973  24.379  0.00  0.00    +0.019 C 
ENDBRANCH  14  16
ENDBRANCH   1  14
TORSDOF 8
ENDMDL
