MODEL 1
REMARK VINA RESULT:      -5.1      0.000      0.000
REMARK  Name = 
REMARK  15 active torsions:
REMARK  status: ('A' for Active; 'I' for Inactive)
REMARK    1  A    between atoms: C_1  and  C_2
REMARK    2  A    between atoms: C_2  and  O_4
REMARK    3  A    between atoms: C_2  and  C_5
REMARK    4  A    between atoms: C_5  and  C_6
REMARK    5  A    between atoms: C_6  and  O_8
REMARK    6  A    between atoms: O_8  and  C_9
REMARK    7  A    between atoms: C_9  and  C_11
REMARK    8  A    between atoms: C_9  and  C_12
REMARK    9  A    between atoms: C_12  and  C_13
REMARK   10  A    between atoms: C_13  and  O_15
REMARK   11  A    between atoms: O_15  and  C_16
REMARK   12  A    between atoms: C_16  and  C_18
REMARK   13  A    between atoms: C_16  and  C_19
REMARK   14  A    between atoms: C_19  and  C_20
REMARK   15  A    between atoms: C_20  and  O_21
REMARK                            x       y       z     vdW  Elec       q    Type
REMARK                         _______ _______ _______ _____ _____    ______ ____
ROOT
ATOM      1  C   UNL     1       7.222  -3.466  22.203  0.00  0.00    +0.164 C 
ENDROOT
BRANCH   1   2
ATOM      2  C   UNL     1       7.044  -4.862  22.811  0.00  0.00    +0.184 C 
ATOM      3  C   UNL     1       6.412  -5.837  21.828  0.00  0.00    +0.052 C 
BRANCH   2   4
ATOM      4  O   UNL     1       8.349  -5.278  23.256  0.00  0.00    -0.461 OA
BRANCH   4   5
ATOM      5  C   UNL     1       8.731  -5.126  24.547  0.00  0.00    +0.310 C 
ATOM      6  O   UNL     1       9.867  -4.906  24.934  0.00  0.00    -0.251 OA
BRANCH   5   7
ATOM      7  C   UNL     1       7.529  -5.364  25.424  0.00  0.00    +0.151 C 
BRANCH   7   9
ATOM      8  C   UNL     1       6.526  -3.824  27.169  0.00  0.00    +0.038 C 
ATOM      9  C   UNL     1       7.663  -4.776  26.817  0.00  0.00    +0.122 C 
BRANCH   9  10
ATOM     10  O   UNL     1       7.636  -5.873  27.739  0.00  0.00    -0.392 OA
ATOM     11  H   UNL     1       7.838  -6.684  27.241  0.00  0.00    +0.210 HD
ENDBRANCH   9  10
ENDBRANCH   7   9
ENDBRANCH   5   7
ENDBRANCH   4   5
ENDBRANCH   2   4
ENDBRANCH   1   2
BRANCH   1  12
ATOM     12  C   UNL     1       6.835  -2.324  23.129  0.00  0.00    +0.311 C 
ATOM     13  O   UNL     1       5.790  -2.295  23.765  0.00  0.00    -0.251 OA
BRANCH  12  14
ATOM     14  O   UNL     1       7.788  -1.362  23.174  0.00  0.00    -0.461 OA
BRANCH  14  15
ATOM     15  C   UNL     1       9.072  -1.548  23.817  0.00  0.00    +0.184 C 
ATOM     16  C   UNL     1       8.913  -1.423  25.328  0.00  0.00    +0.052 C 
BRANCH  15  17
ATOM     17  C   UNL     1      10.203  -0.659  23.306  0.00  0.00    +0.164 C 
BRANCH  17  18
ATOM     18  C   UNL     1       9.867  -0.069  21.965  0.00  0.00    +0.308 C 
ATOM     19  O   UNL     1       9.849   1.130  21.735  0.00  0.00    -0.251 OA
BRANCH  18  20
ATOM     20  O   UNL     1       9.602  -0.991  21.016  0.00  0.00    -0.481 OA
ATOM     21  H   UNL     1       8.754  -0.848  20.544  0.00  0.00    +0.295 HD
ENDBRANCH  18  20
ENDBRANCH  17  18
ENDBRANCH  15  17
ENDBRANCH  14  15
ENDBRANCH  12  14
ENDBRANCH   1  12
TORSDOF 12
ENDMDL
MODEL 2
REMARK VINA RESULT:      -5.1      1.661      2.600
REMARK  Name = 
REMARK  15 active torsions:
REMARK  status: ('A' for Active; 'I' for Inactive)
REMARK    1  A    between atoms: C_1  and  C_2
REMARK    2  A    between atoms: C_2  and  O_4
REMARK    3  A    between atoms: C_2  and  C_5
REMARK    4  A    between atoms: C_5  and  C_6
REMARK    5  A    between atoms: C_6  and  O_8
REMARK    6  A    between atoms: O_8  and  C_9
REMARK    7  A    between atoms: C_9  and  C_11
REMARK    8  A    between atoms: C_9  and  C_12
REMARK    9  A    between atoms: C_12  and  C_13
REMARK   10  A    between atoms: C_13  and  O_15
REMARK   11  A    between atoms: O_15  and  C_16
REMARK   12  A    between atoms: C_16  and  C_18
REMARK   13  A    between atoms: C_16  and  C_19
REMARK   14  A    between atoms: C_19  and  C_20
REMARK   15  A    between atoms: C_20  and  O_21
REMARK                            x       y       z     vdW  Elec       q    Type
REMARK                         _______ _______ _______ _____ _____    ______ ____
ROOT
ATOM      1  C   UNL     1       8.454  -2.058  22.347  0.00  0.00    +0.164 C 
ENDROOT
BRANCH   1   2
ATOM      2  C   UNL     1       7.418  -2.558  23.360  0.00  0.00    +0.184 C 
ATOM      3  C   UNL     1       6.252  -1.591  23.507  0.00  0.00    +0.052 C 
BRANCH   2   4
ATOM      4  O   UNL     1       7.014  -3.866  22.912  0.00  0.00    -0.461 OA
BRANCH   4   5
ATOM      5  C   UNL     1       7.540  -4.988  23.459  0.00  0.00    +0.310 C 
ATOM      6  O   UNL     1       8.141  -5.862  22.857  0.00  0.00    -0.251 OA
BRANCH   5   7
ATOM      7  C   UNL     1       7.175  -5.013  24.922  0.00  0.00    +0.151 C 
BRANCH   7   9
ATOM      8  C   UNL     1       8.823  -3.837  26.446  0.00  0.00    +0.038 C 
ATOM      9  C   UNL     1       8.369  -5.162  25.846  0.00  0.00    +0.122 C 
BRANCH   9  10
ATOM     10  O   UNL     1       7.966  -6.028  26.916  0.00  0.00    -0.392 OA
ATOM     11  H   UNL     1       7.115  -6.428  26.667  0.00  0.00    +0.210 HD
ENDBRANCH   9  10
ENDBRANCH   7   9
ENDBRANCH   5   7
ENDBRANCH   4   5
ENDBRANCH   2   4
ENDBRANCH   1   2
BRANCH   1  12
ATOM     12  C   UNL     1       9.842  -1.833  22.926  0.00  0.00    +0.311 C 
ATOM     13  O   UNL     1      10.549  -2.736  23.354  0.00  0.00    -0.251 OA
BRANCH  12  14
ATOM     14  O   UNL     1      10.200  -0.528  22.896  0.00  0.00    -0.461 OA
BRANCH  14  15
ATOM     15  C   UNL     1      10.556   0.225  24.081  0.00  0.00    +0.184 C 
ATOM     16  C   UNL     1       9.625  -0.151  25.228  0.00  0.00    +0.052 C 
BRANCH  15  17
ATOM     17  C   UNL     1      10.630   1.740  23.904  0.00  0.00    +0.164 C 
BRANCH  17  18
ATOM     18  C   UNL     1       9.682   2.211  22.838  0.00  0.00    +0.308 C 
ATOM     19  O   UNL     1       8.564   2.643  23.064  0.00  0.00    -0.251 OA
BRANCH  18  20
ATOM     20  O   UNL     1      10.187   2.132  21.588  0.00  0.00    -0.481 OA
ATOM     21  H   UNL     1       9.534   1.858  20.909  0.00  0.00    +0.295 HD
ENDBRANCH  18  20
ENDBRANCH  17  18
ENDBRANCH  15  17
ENDBRANCH  14  15
ENDBRANCH  12  14
ENDBRANCH   1  12
TORSDOF 12
ENDMDL
MODEL 3
REMARK VINA RESULT:      -5.1      1.775      6.182
REMARK  Name = 
REMARK  15 active torsions:
REMARK  status: ('A' for Active; 'I' for Inactive)
REMARK    1  A    between atoms: C_1  and  C_2
REMARK    2  A    between atoms: C_2  and  O_4
REMARK    3  A    between atoms: C_2  and  C_5
REMARK    4  A    between atoms: C_5  and  C_6
REMARK    5  A    between atoms: C_6  and  O_8
REMARK    6  A    between atoms: O_8  and  C_9
REMARK    7  A    between atoms: C_9  and  C_11
REMARK    8  A    between atoms: C_9  and  C_12
REMARK    9  A    between atoms: C_12  and  C_13
REMARK   10  A    between atoms: C_13  and  O_15
REMARK   11  A    between atoms: O_15  and  C_16
REMARK   12  A    between atoms: C_16  and  C_18
REMARK   13  A    between atoms: C_16  and  C_19
REMARK   14  A    between atoms: C_19  and  C_20
REMARK   15  A    between atoms: C_20  and  O_21
REMARK                            x       y       z     vdW  Elec       q    Type
REMARK                         _______ _______ _______ _____ _____    ______ ____
ROOT
ATOM      1  C   UNL     1       9.731  -1.898  24.237  0.00  0.00    +0.164 C 
ENDROOT
BRANCH   1   2
ATOM      2  C   UNL     1       8.995  -0.812  25.030  0.00  0.00    +0.184 C 
ATOM      3  C   UNL     1       8.331  -1.370  26.281  0.00  0.00    +0.052 C 
BRANCH   2   4
ATOM      4  O   UNL     1       9.970   0.209  25.318  0.00  0.00    -0.461 OA
BRANCH   4   5
ATOM      5  C   UNL     1      10.397   1.061  24.355  0.00  0.00    +0.310 C 
ATOM      6  O   UNL     1      11.558   1.360  24.130  0.00  0.00    -0.251 OA
BRANCH   5   7
ATOM      7  C   UNL     1       9.186   1.644  23.673  0.00  0.00    +0.151 C 
BRANCH   7   9
ATOM      8  C   UNL     1       7.900   1.929  21.507  0.00  0.00    +0.038 C 
ATOM      9  C   UNL     1       9.205   1.493  22.162  0.00  0.00    +0.122 C 
BRANCH   9  10
ATOM     10  O   UNL     1      10.260   2.331  21.671  0.00  0.00    -0.392 OA
ATOM     11  H   UNL     1      10.838   2.550  22.422  0.00  0.00    +0.210 HD
ENDBRANCH   9  10
ENDBRANCH   7   9
ENDBRANCH   5   7
ENDBRANCH   4   5
ENDBRANCH   2   4
ENDBRANCH   1   2
BRANCH   1  12
ATOM     12  C   UNL     1       9.025  -2.332  22.962  0.00  0.00    +0.311 C 
ATOM     13  O   UNL     1       9.411  -2.027  21.841  0.00  0.00    -0.251 OA
BRANCH  12  14
ATOM     14  O   UNL     1       7.941  -3.100  23.218  0.00  0.00    -0.461 OA
BRANCH  14  15
ATOM     15  C   UNL     1       8.018  -4.526  23.460  0.00  0.00    +0.184 C 
ATOM     16  C   UNL     1       7.170  -5.269  22.435  0.00  0.00    +0.052 C 
BRANCH  15  17
ATOM     17  C   UNL     1       7.684  -4.974  24.881  0.00  0.00    +0.164 C 
BRANCH  17  18
ATOM     18  C   UNL     1       8.919  -5.045  25.735  0.00  0.00    +0.308 C 
ATOM     19  O   UNL     1       8.942  -4.765  26.922  0.00  0.00    -0.251 OA
BRANCH  18  20
ATOM     20  O   UNL     1      10.015  -5.469  25.071  0.00  0.00    -0.481 OA
ATOM     21  H   UNL     1      10.844  -5.014  25.334  0.00  0.00    +0.295 HD
ENDBRANCH  18  20
ENDBRANCH  17  18
ENDBRANCH  15  17
ENDBRANCH  14  15
ENDBRANCH  12  14
ENDBRANCH   1  12
TORSDOF 12
ENDMDL
MODEL 4
REMARK VINA RESULT:      -5.1      2.137      3.623
REMARK  Name = 
REMARK  15 active torsions:
REMARK  status: ('A' for Active; 'I' for Inactive)
REMARK    1  A    between atoms: C_1  and  C_2
REMARK    2  A    between atoms: C_2  and  O_4
REMARK    3  A    between atoms: C_2  and  C_5
REMARK    4  A    between atoms: C_5  and  C_6
REMARK    5  A    between atoms: C_6  and  O_8
REMARK    6  A    between atoms: O_8  and  C_9
REMARK    7  A    between atoms: C_9  and  C_11
REMARK    8  A    between atoms: C_9  and  C_12
REMARK    9  A    between atoms: C_12  and  C_13
REMARK   10  A    between atoms: C_13  and  O_15
REMARK   11  A    between atoms: O_15  and  C_16
REMARK   12  A    between atoms: C_16  and  C_18
REMARK   13  A    between atoms: C_16  and  C_19
REMARK   14  A    between atoms: C_19  and  C_20
REMARK   15  A    between atoms: C_20  and  O_21
REMARK                            x       y       z     vdW  Elec       q    Type
REMARK                         _______ _______ _______ _____ _____    ______ ____
ROOT
ATOM      1  C   UNL     1       8.564  -1.759  22.247  0.00  0.00    +0.164 C 
ENDROOT
BRANCH   1   2
ATOM      2  C   UNL     1       7.542  -2.340  23.232  0.00  0.00    +0.184 C 
ATOM      3  C   UNL     1       6.398  -1.373  23.503  0.00  0.00    +0.052 C 
BRANCH   2   4
ATOM      4  O   UNL     1       7.102  -3.590  22.665  0.00  0.00    -0.461 OA
BRANCH   4   5
ATOM      5  C   UNL     1       7.510  -4.775  23.180  0.00  0.00    +0.310 C 
ATOM      6  O   UNL     1       7.984  -4.946  24.291  0.00  0.00    -0.251 OA
BRANCH   5   7
ATOM      7  C   UNL     1       7.361  -5.827  22.110  0.00  0.00    +0.151 C 
BRANCH   7   9
ATOM      8  C   UNL     1       4.877  -5.848  22.615  0.00  0.00    +0.038 C 
ATOM      9  C   UNL     1       5.957  -5.925  21.542  0.00  0.00    +0.122 C 
BRANCH   9  10
ATOM     10  O   UNL     1       5.788  -4.815  20.650  0.00  0.00    -0.392 OA
ATOM     11  H   UNL     1       6.062  -5.104  19.762  0.00  0.00    +0.210 HD
ENDBRANCH   9  10
ENDBRANCH   7   9
ENDBRANCH   5   7
ENDBRANCH   4   5
ENDBRANCH   2   4
ENDBRANCH   1   2
BRANCH   1  12
ATOM     12  C   UNL     1       9.978  -1.660  22.797  0.00  0.00    +0.311 C 
ATOM     13  O   UNL     1      10.614  -2.624  23.202  0.00  0.00    -0.251 OA
BRANCH  12  14
ATOM     14  O   UNL     1      10.447  -0.390  22.766  0.00  0.00    -0.461 OA
BRANCH  14  15
ATOM     15  C   UNL     1      10.177   0.580  23.807  0.00  0.00    +0.184 C 
ATOM     16  C   UNL     1       9.934  -0.138  25.129  0.00  0.00    +0.052 C 
BRANCH  15  17
ATOM     17  C   UNL     1       9.060   1.577  23.508  0.00  0.00    +0.164 C 
BRANCH  17  18
ATOM     18  C   UNL     1       8.991   1.895  22.041  0.00  0.00    +0.308 C 
ATOM     19  O   UNL     1       7.974   1.807  21.373  0.00  0.00    -0.251 OA
BRANCH  18  20
ATOM     20  O   UNL     1      10.165   2.311  21.519  0.00  0.00    -0.481 OA
ATOM     21  H   UNL     1      10.103   3.148  21.011  0.00  0.00    +0.295 HD
ENDBRANCH  18  20
ENDBRANCH  17  18
ENDBRANCH  15  17
ENDBRANCH  14  15
ENDBRANCH  12  14
ENDBRANCH   1  12
TORSDOF 12
ENDMDL
MODEL 5
REMARK VINA RESULT:      -5.0      1.768      5.904
REMARK  Name = 
REMARK  15 active torsions:
REMARK  status: ('A' for Active; 'I' for Inactive)
REMARK    1  A    between atoms: C_1  and  C_2
REMARK    2  A    between atoms: C_2  and  O_4
REMARK    3  A    between atoms: C_2  and  C_5
REMARK    4  A    between atoms: C_5  and  C_6
REMARK    5  A    between atoms: C_6  and  O_8
REMARK    6  A    between atoms: O_8  and  C_9
REMARK    7  A    between atoms: C_9  and  C_11
REMARK    8  A    between atoms: C_9  and  C_12
REMARK    9  A    between atoms: C_12  and  C_13
REMARK   10  A    between atoms: C_13  and  O_15
REMARK   11  A    between atoms: O_15  and  C_16
REMARK   12  A    between atoms: C_16  and  C_18
REMARK   13  A    between atoms: C_16  and  C_19
REMARK   14  A    between atoms: C_19  and  C_20
REMARK   15  A    between atoms: C_20  and  O_21
REMARK                            x       y       z     vdW  Elec       q    Type
REMARK                         _______ _______ _______ _____ _____    ______ ____
ROOT
ATOM      1  C   UNL     1       8.609  -2.758  25.538  0.00  0.00    +0.164 C 
ENDROOT
BRANCH   1   2
ATOM      2  C   UNL     1       8.580  -1.329  24.984  0.00  0.00    +0.184 C 
ATOM      3  C   UNL     1       8.050  -0.332  26.005  0.00  0.00    +0.052 C 
BRANCH   2   4
ATOM      4  O   UNL     1       9.923  -1.035  24.554  0.00  0.00    -0.461 OA
BRANCH   4   5
ATOM      5  C   UNL     1      10.159  -0.385  23.389  0.00  0.00    +0.310 C 
ATOM      6  O   UNL     1      10.101  -0.874  22.273  0.00  0.00    -0.251 OA
BRANCH   5   7
ATOM      7  C   UNL     1      10.594   1.021  23.716  0.00  0.00    +0.151 C 
BRANCH   7   9
ATOM      8  C   UNL     1       9.975   3.478  23.622  0.00  0.00    +0.038 C 
ATOM      9  C   UNL     1       9.769   2.091  23.023  0.00  0.00    +0.122 C 
BRANCH   9  10
ATOM     10  O   UNL     1      10.190   2.123  21.653  0.00  0.00    -0.392 OA
ATOM     11  H   UNL     1       9.394   2.209  21.100  0.00  0.00    +0.210 HD
ENDBRANCH   9  10
ENDBRANCH   7   9
ENDBRANCH   5   7
ENDBRANCH   4   5
ENDBRANCH   2   4
ENDBRANCH   1   2
BRANCH   1  12
ATOM     12  C   UNL     1       9.073  -3.809  24.542  0.00  0.00    +0.311 C 
ATOM     13  O   UNL     1      10.081  -4.485  24.695  0.00  0.00    -0.251 OA
BRANCH  12  14
ATOM     14  O   UNL     1       8.233  -3.912  23.485  0.00  0.00    -0.461 OA
BRANCH  14  15
ATOM     15  C   UNL     1       7.136  -4.856  23.433  0.00  0.00    +0.184 C 
ATOM     16  C   UNL     1       7.400  -5.891  22.345  0.00  0.00    +0.052 C 
BRANCH  15  17
ATOM     17  C   UNL     1       5.744  -4.245  23.288  0.00  0.00    +0.164 C 
BRANCH  17  18
ATOM     18  C   UNL     1       5.721  -3.193  22.216  0.00  0.00    +0.308 C 
ATOM     19  O   UNL     1       5.435  -3.415  21.050  0.00  0.00    -0.251 OA
BRANCH  18  20
ATOM     20  O   UNL     1       6.027  -1.956  22.661  0.00  0.00    -0.481 OA
ATOM     21  H   UNL     1       5.263  -1.341  22.697  0.00  0.00    +0.295 HD
ENDBRANCH  18  20
ENDBRANCH  17  18
ENDBRANCH  15  17
ENDBRANCH  14  15
ENDBRANCH  12  14
ENDBRANCH   1  12
TORSDOF 12
ENDMDL
MODEL 6
REMARK VINA RESULT:      -5.0      2.038      5.790
REMARK  Name = 
REMARK  15 active torsions:
REMARK  status: ('A' for Active; 'I' for Inactive)
REMARK    1  A    between atoms: C_1  and  C_2
REMARK    2  A    between atoms: C_2  and  O_4
REMARK    3  A    between atoms: C_2  and  C_5
REMARK    4  A    between atoms: C_5  and  C_6
REMARK    5  A    between atoms: C_6  and  O_8
REMARK    6  A    between atoms: O_8  and  C_9
REMARK    7  A    between atoms: C_9  and  C_11
REMARK    8  A    between atoms: C_9  and  C_12
REMARK    9  A    between atoms: C_12  and  C_13
REMARK   10  A    between atoms: C_13  and  O_15
REMARK   11  A    between atoms: O_15  and  C_16
REMARK   12  A    between atoms: C_16  and  C_18
REMARK   13  A    between atoms: C_16  and  C_19
REMARK   14  A    between atoms: C_19  and  C_20
REMARK   15  A    between atoms: C_20  and  O_21
REMARK                            x       y       z     vdW  Elec       q    Type
REMARK                         _______ _______ _______ _____ _____    ______ ____
ROOT
ATOM      1  C   UNL     1       8.222  -2.805  23.065  0.00  0.00    +0.164 C 
ENDROOT
BRANCH   1   2
ATOM      2  C   UNL     1       9.242  -1.664  22.968  0.00  0.00    +0.184 C 
ATOM      3  C   UNL     1       9.387  -1.149  21.544  0.00  0.00    +0.052 C 
BRANCH   2   4
ATOM      4  O   UNL     1       8.802  -0.651  23.892  0.00  0.00    -0.461 OA
BRANCH   4   5
ATOM      5  C   UNL     1       9.546  -0.319  24.975  0.00  0.00    +0.310 C 
ATOM      6  O   UNL     1       9.279  -0.589  26.134  0.00  0.00    -0.251 OA
BRANCH   5   7
ATOM      7  C   UNL     1      10.709   0.518  24.507  0.00  0.00    +0.151 C 
BRANCH   7   9
ATOM      8  C   UNL     1      10.253   2.226  22.691  0.00  0.00    +0.038 C 
ATOM      9  C   UNL     1      10.338   1.955  24.188  0.00  0.00    +0.122 C 
BRANCH   9  10
ATOM     10  O   UNL     1       9.047   2.192  24.765  0.00  0.00    -0.392 OA
ATOM     11  H   UNL     1       8.855   3.142  24.679  0.00  0.00    +0.210 HD
ENDBRANCH   9  10
ENDBRANCH   7   9
ENDBRANCH   5   7
ENDBRANCH   4   5
ENDBRANCH   2   4
ENDBRANCH   1   2
BRANCH   1  12
ATOM     12  C   UNL     1       8.668  -3.974  23.929  0.00  0.00    +0.311 C 
ATOM     13  O   UNL     1       9.722  -3.991  24.550  0.00  0.00    -0.251 OA
BRANCH  12  14
ATOM     14  O   UNL     1       7.756  -4.975  23.939  0.00  0.00    -0.461 OA
BRANCH  14  15
ATOM     15  C   UNL     1       6.425  -4.830  24.490  0.00  0.00    +0.184 C 
ATOM     16  C   UNL     1       6.365  -5.480  25.867  0.00  0.00    +0.052 C 
BRANCH  15  17
ATOM     17  C   UNL     1       5.284  -5.318  23.600  0.00  0.00    +0.164 C 
BRANCH  17  18
ATOM     18  C   UNL     1       5.753  -5.552  22.192  0.00  0.00    +0.308 C 
ATOM     19  O   UNL     1       5.658  -4.727  21.297  0.00  0.00    -0.251 OA
BRANCH  18  20
ATOM     20  O   UNL     1       6.316  -6.764  22.001  0.00  0.00    -0.481 OA
ATOM     21  H   UNL     1       5.670  -7.486  21.845  0.00  0.00    +0.295 HD
ENDBRANCH  18  20
ENDBRANCH  17  18
ENDBRANCH  15  17
ENDBRANCH  14  15
ENDBRANCH  12  14
ENDBRANCH   1  12
TORSDOF 12
ENDMDL
MODEL 7
REMARK VINA RESULT:      -5.0      2.165      6.136
REMARK  Name = 
REMARK  15 active torsions:
REMARK  status: ('A' for Active; 'I' for Inactive)
REMARK    1  A    between atoms: C_1  and  C_2
REMARK    2  A    between atoms: C_2  and  O_4
REMARK    3  A    between atoms: C_2  and  C_5
REMARK    4  A    between atoms: C_5  and  C_6
REMARK    5  A    between atoms: C_6  and  O_8
REMARK    6  A    between atoms: O_8  and  C_9
REMARK    7  A    between atoms: C_9  and  C_11
REMARK    8  A    between atoms: C_9  and  C_12
REMARK    9  A    between atoms: C_12  and  C_13
REMARK   10  A    between atoms: C_13  and  O_15
REMARK   11  A    between atoms: O_15  and  C_16
REMARK   12  A    between atoms: C_16  and  C_18
REMARK   13  A    between atoms: C_16  and  C_19
REMARK   14  A    between atoms: C_19  and  C_20
REMARK   15  A    between atoms: C_20  and  O_21
REMARK                            x       y       z     vdW  Elec       q    Type
REMARK                         _______ _______ _______ _____ _____    ______ ____
ROOT
ATOM      1  C   UNL     1       8.259  -2.320  25.093  0.00  0.00    +0.164 C 
ENDROOT
BRANCH   1   2
ATOM      2  C   UNL     1       8.312  -0.871  24.593  0.00  0.00    +0.184 C 
ATOM      3  C   UNL     1       7.355   0.031  25.359  0.00  0.00    +0.052 C 
BRANCH   2   4
ATOM      4  O   UNL     1       9.687  -0.456  24.704  0.00  0.00    -0.461 OA
BRANCH   4   5
ATOM      5  C   UNL     1      10.209   0.471  23.866  0.00  0.00    +0.310 C 
ATOM      6  O   UNL     1      10.722   1.527  24.198  0.00  0.00    -0.251 OA
BRANCH   5   7
ATOM      7  C   UNL     1       9.965   0.015  22.450  0.00  0.00    +0.151 C 
BRANCH   7   9
ATOM      8  C   UNL     1       8.001   1.550  21.993  0.00  0.00    +0.038 C 
ATOM      9  C   UNL     1       9.386   1.093  21.552  0.00  0.00    +0.122 C 
BRANCH   9  10
ATOM     10  O   UNL     1      10.276   2.216  21.619  0.00  0.00    -0.392 OA
ATOM     11  H   UNL     1      11.186   1.873  21.608  0.00  0.00    +0.210 HD
ENDBRANCH   9  10
ENDBRANCH   7   9
ENDBRANCH   5   7
ENDBRANCH   4   5
ENDBRANCH   2   4
ENDBRANCH   1   2
BRANCH   1  12
ATOM     12  C   UNL     1       8.906  -3.330  24.158  0.00  0.00    +0.311 C 
ATOM     13  O   UNL     1      10.081  -3.663  24.233  0.00  0.00    -0.251 OA
BRANCH  12  14
ATOM     14  O   UNL     1       8.026  -3.821  23.253  0.00  0.00    -0.461 OA
BRANCH  14  15
ATOM     15  C   UNL     1       7.338  -5.085  23.421  0.00  0.00    +0.184 C 
ATOM     16  C   UNL     1       7.286  -5.822  22.088  0.00  0.00    +0.052 C 
BRANCH  15  17
ATOM     17  C   UNL     1       5.955  -5.005  24.062  0.00  0.00    +0.164 C 
BRANCH  17  18
ATOM     18  C   UNL     1       5.006  -4.209  23.212  0.00  0.00    +0.308 C 
ATOM     19  O   UNL     1       3.989  -4.668  22.716  0.00  0.00    -0.251 OA
BRANCH  18  20
ATOM     20  O   UNL     1       5.367  -2.918  23.056  0.00  0.00    -0.481 OA
ATOM     21  H   UNL     1       5.717  -2.705  22.164  0.00  0.00    +0.295 HD
ENDBRANCH  18  20
ENDBRANCH  17  18
ENDBRANCH  15  17
ENDBRANCH  14  15
ENDBRANCH  12  14
ENDBRANCH   1  12
TORSDOF 12
ENDMDL
MODEL 8
REMARK VINA RESULT:      -4.9      1.849      3.096
REMARK  Name = 
REMARK  15 active torsions:
REMARK  status: ('A' for Active; 'I' for Inactive)
REMARK    1  A    between atoms: C_1  and  C_2
REMARK    2  A    between atoms: C_2  and  O_4
REMARK    3  A    between atoms: C_2  and  C_5
REMARK    4  A    between atoms: C_5  and  C_6
REMARK    5  A    between atoms: C_6  and  O_8
REMARK    6  A    between atoms: O_8  and  C_9
REMARK    7  A    between atoms: C_9  and  C_11
REMARK    8  A    between atoms: C_9  and  C_12
REMARK    9  A    between atoms: C_12  and  C_13
REMARK   10  A    between atoms: C_13  and  O_15
REMARK   11  A    between atoms: O_15  and  C_16
REMARK   12  A    between atoms: C_16  and  C_18
REMARK   13  A    between atoms: C_16  and  C_19
REMARK   14  A    between atoms: C_19  and  C_20
REMARK   15  A    between atoms: C_20  and  O_21
REMARK                            x       y       z     vdW  Elec       q    Type
REMARK                         _______ _______ _______ _____ _____    ______ ____
ROOT
ATOM      1  C   UNL     1       8.238  -2.075  22.420  0.00  0.00    +0.164 C 
ENDROOT
BRANCH   1   2
ATOM      2  C   UNL     1       7.401  -2.872  23.426  0.00  0.00    +0.184 C 
ATOM      3  C   UNL     1       5.913  -2.802  23.111  0.00  0.00    +0.052 C 
BRANCH   2   4
ATOM      4  O   UNL     1       7.918  -4.216  23.406  0.00  0.00    -0.461 OA
BRANCH   4   5
ATOM      5  C   UNL     1       8.546  -4.742  24.485  0.00  0.00    +0.310 C 
ATOM      6  O   UNL     1       9.331  -5.675  24.471  0.00  0.00    -0.251 OA
BRANCH   5   7
ATOM      7  C   UNL     1       8.037  -4.034  25.715  0.00  0.00    +0.151 C 
BRANCH   7   9
ATOM      8  C   UNL     1       6.102  -5.637  26.046  0.00  0.00    +0.038 C 
ATOM      9  C   UNL     1       7.301  -4.943  26.682  0.00  0.00    +0.122 C 
BRANCH   9  10
ATOM     10  O   UNL     1       8.233  -5.947  27.106  0.00  0.00    -0.392 OA
ATOM     11  H   UNL     1       8.886  -6.064  26.394  0.00  0.00    +0.210 HD
ENDBRANCH   9  10
ENDBRANCH   7   9
ENDBRANCH   5   7
ENDBRANCH   4   5
ENDBRANCH   2   4
ENDBRANCH   1   2
BRANCH   1  12
ATOM     12  C   UNL     1       9.620  -1.685  22.922  0.00  0.00    +0.311 C 
ATOM     13  O   UNL     1      10.649  -1.891  22.293  0.00  0.00    -0.251 OA
BRANCH  12  14
ATOM     14  O   UNL     1       9.568  -1.075  24.130  0.00  0.00    -0.461 OA
BRANCH  14  15
ATOM     15  C   UNL     1       9.542   0.364  24.291  0.00  0.00    +0.184 C 
ATOM     16  C   UNL     1      10.953   0.878  24.553  0.00  0.00    +0.052 C 
BRANCH  15  17
ATOM     17  C   UNL     1       8.559   0.895  25.333  0.00  0.00    +0.164 C 
BRANCH  17  18
ATOM     18  C   UNL     1       8.130  -0.190  26.280  0.00  0.00    +0.308 C 
ATOM     19  O   UNL     1       7.019  -0.695  26.277  0.00  0.00    -0.251 OA
BRANCH  18  20
ATOM     20  O   UNL     1       9.099  -0.579  27.136  0.00  0.00    -0.481 OA
ATOM     21  H   UNL     1       9.379  -1.514  27.026  0.00  0.00    +0.295 HD
ENDBRANCH  18  20
ENDBRANCH  17  18
ENDBRANCH  15  17
ENDBRANCH  14  15
ENDBRANCH  12  14
ENDBRANCH   1  12
TORSDOF 12
ENDMDL
MODEL 9
REMARK VINA RESULT:      -4.9      2.136      2.929
REMARK  Name = 
REMARK  15 active torsions:
REMARK  status: ('A' for Active; 'I' for Inactive)
REMARK    1  A    between atoms: C_1  and  C_2
REMARK    2  A    between atoms: C_2  and  O_4
REMARK    3  A    between atoms: C_2  and  C_5
REMARK    4  A    between atoms: C_5  and  C_6
REMARK    5  A    between atoms: C_6  and  O_8
REMARK    6  A    between atoms: O_8  and  C_9
REMARK    7  A    between atoms: C_9  and  C_11
REMARK    8  A    between atoms: C_9  and  C_12
REMARK    9  A    between atoms: C_12  and  C_13
REMARK   10  A    between atoms: C_13  and  O_15
REMARK   11  A    between atoms: O_15  and  C_16
REMARK   12  A    between atoms: C_16  and  C_18
REMARK   13  A    between atoms: C_16  and  C_19
REMARK   14  A    between atoms: C_19  and  C_20
REMARK   15  A    between atoms: C_20  and  O_21
REMARK                            x       y       z     vdW  Elec       q    Type
REMARK                         _______ _______ _______ _____ _____    ______ ____
ROOT
ATOM      1  C   UNL     1       7.629  -0.993  22.651  0.00  0.00    +0.164 C 
ENDROOT
BRANCH   1   2
ATOM      2  C   UNL     1       7.109  -2.254  23.350  0.00  0.00    +0.184 C 
ATOM      3  C   UNL     1       5.822  -2.767  22.718  0.00  0.00    +0.052 C 
BRANCH   2   4
ATOM      4  O   UNL     1       8.182  -3.215  23.301  0.00  0.00    -0.461 OA
BRANCH   4   5
ATOM      5  C   UNL     1       9.293  -3.063  24.061  0.00  0.00    +0.310 C 
ATOM      6  O   UNL     1      10.424  -2.874  23.643  0.00  0.00    -0.251 OA
BRANCH   5   7
ATOM      7  C   UNL     1       8.905  -3.257  25.505  0.00  0.00    +0.151 C 
BRANCH   7   9
ATOM      8  C   UNL     1       7.754  -5.386  26.256  0.00  0.00    +0.038 C 
ATOM      9  C   UNL     1       9.080  -4.682  25.997  0.00  0.00    +0.122 C 
BRANCH   9  10
ATOM     10  O   UNL     1       9.780  -5.398  24.970  0.00  0.00    -0.392 OA
ATOM     11  H   UNL     1       9.555  -6.340  25.060  0.00  0.00    +0.210 HD
ENDBRANCH   9  10
ENDBRANCH   7   9
ENDBRANCH   5   7
ENDBRANCH   4   5
ENDBRANCH   2   4
ENDBRANCH   1   2
BRANCH   1  12
ATOM     12  C   UNL     1       7.465   0.285  23.459  0.00  0.00    +0.311 C 
ATOM     13  O   UNL     1       6.434   0.943  23.478  0.00  0.00    -0.251 OA
BRANCH  12  14
ATOM     14  O   UNL     1       8.583   0.591  24.158  0.00  0.00    -0.461 OA
BRANCH  14  15
ATOM     15  C   UNL     1       9.906   0.617  23.568  0.00  0.00    +0.184 C 
ATOM     16  C   UNL     1      10.960   0.519  24.664  0.00  0.00    +0.052 C 
BRANCH  15  17
ATOM     17  C   UNL     1      10.189   1.790  22.633  0.00  0.00    +0.164 C 
BRANCH  17  18
ATOM     18  C   UNL     1      10.377   3.067  23.402  0.00  0.00    +0.308 C 
ATOM     19  O   UNL     1      11.406   3.722  23.392  0.00  0.00    -0.251 OA
BRANCH  18  20
ATOM     20  O   UNL     1       9.286   3.445  24.102  0.00  0.00    -0.481 OA
ATOM     21  H   UNL     1       8.852   4.256  23.760  0.00  0.00    +0.295 HD
ENDBRANCH  18  20
ENDBRANCH  17  18
ENDBRANCH  15  17
ENDBRANCH  14  15
ENDBRANCH  12  14
ENDBRANCH   1  12
TORSDOF 12
ENDMDL
