MODEL 1
REMARK VINA RESULT:      -7.0      0.000      0.000
REMARK  Name = 
REMARK  10 active torsions:
REMARK  status: ('A' for Active; 'I' for Inactive)
REMARK    1  A    between atoms: O_1  and  C_2
REMARK    2  A    between atoms: C_2  and  C_4
REMARK    3  A    between atoms: C_4  and  C_6
REMARK    4  A    between atoms: C_6  and  C_7
REMARK    5  A    between atoms: C_7  and  C_9
REMARK    6  A    between atoms: C_13  and  N_15
REMARK    7  A    between atoms: N_15  and  C_16
REMARK    8  A    between atoms: N_15  and  C_23
REMARK    9  A    between atoms: C_16  and  C_17
REMARK   10  A    between atoms: C_23  and  C_24
REMARK                            x       y       z     vdW  Elec       q    Type
REMARK                         _______ _______ _______ _____ _____    ______ ____
ROOT
ATOM      1  C   UNL     1       7.134  -5.003  25.483  0.00  0.00    +0.020 A 
ATOM      2  C   UNL     1       7.023  -3.862  24.668  0.00  0.00    +0.034 A 
ATOM      3  C   UNL     1       8.156  -3.222  24.137  0.00  0.00    +0.031 A 
ATOM      4  C   UNL     1       9.408  -3.720  24.541  0.00  0.00    +0.023 A 
ATOM      5  C   UNL     1       9.535  -4.855  25.347  0.00  0.00    +0.002 A 
ATOM      6  C   UNL     1       8.398  -5.511  25.795  0.00  0.00    +0.011 A 
ENDROOT
BRANCH   1   7
ATOM      7  C   UNL     1       5.953  -5.690  26.086  0.00  0.00    +0.171 C 
ATOM      8  O   UNL     1       6.128  -6.454  27.035  0.00  0.00    -0.292 OA
BRANCH   7   9
ATOM      9  C   UNL     1       4.577  -5.473  25.525  0.00  0.00    +0.166 C 
BRANCH   9  10
ATOM     10  C   UNL     1       4.208  -6.477  24.479  0.00  0.00    +0.246 C 
ATOM     11  O   UNL     1       4.276  -7.699  24.560  0.00  0.00    -0.285 OA
BRANCH  10  12
ATOM     12  C   UNL     1       3.737  -5.900  23.150  0.00  0.00    +0.373 C 
ATOM     13  O   UNL     1       4.154  -4.858  22.692  0.00  0.00    -0.242 OA
BRANCH  12  14
ATOM     14  O   UNL     1       2.834  -6.714  22.570  0.00  0.00    -0.475 OA
ATOM     15  H   UNL     1       1.926  -6.407  22.802  0.00  0.00    +0.295 HD
ENDBRANCH  12  14
ENDBRANCH  10  12
ENDBRANCH   9  10
ENDBRANCH   7   9
ENDBRANCH   1   7
BRANCH   3  16
ATOM     16  N   UNL     1       8.059  -2.165  23.238  0.00  0.00    -0.321 N 
BRANCH  16  17
ATOM     17  C   UNL     1       9.198  -1.690  22.439  0.00  0.00    +0.140 C 
BRANCH  17  18
ATOM     18  C   UNL     1       9.738  -0.290  22.696  0.00  0.00    -0.030 A 
ATOM     19  C   UNL     1      10.291  -0.047  23.972  0.00  0.00    +0.005 A 
ATOM     20  C   UNL     1      10.794   1.207  24.328  0.00  0.00    +0.000 A 
ATOM     21  C   UNL     1      10.751   2.253  23.415  0.00  0.00    +0.000 A 
ATOM     22  C   UNL     1      10.212   2.036  22.148  0.00  0.00    +0.000 A 
ATOM     23  C   UNL     1       9.712   0.775  21.787  0.00  0.00    +0.005 A 
ENDBRANCH  17  18
ENDBRANCH  16  17
BRANCH  16  24
ATOM     24  C   UNL     1       6.781  -1.453  23.102  0.00  0.00    +0.140 C 
BRANCH  24  25
ATOM     25  C   UNL     1       6.676  -0.084  23.757  0.00  0.00    -0.030 A 
ATOM     26  C   UNL     1       6.848  -0.031  25.155  0.00  0.00    +0.005 A 
ATOM     27  C   UNL     1       6.952   1.187  25.828  0.00  0.00    +0.000 A 
ATOM     28  C   UNL     1       6.862   2.378  25.118  0.00  0.00    +0.000 A 
ATOM     29  C   UNL     1       6.602   2.348  23.748  0.00  0.00    +0.000 A 
ATOM     30  C   UNL     1       6.494   1.125  23.072  0.00  0.00    +0.005 A 
ENDBRANCH  24  25
ENDBRANCH  16  24
ENDBRANCH   3  16
TORSDOF 10
ENDMDL
MODEL 2
REMARK VINA RESULT:      -7.0      0.275      2.829
REMARK  Name = 
REMARK  10 active torsions:
REMARK  status: ('A' for Active; 'I' for Inactive)
REMARK    1  A    between atoms: O_1  and  C_2
REMARK    2  A    between atoms: C_2  and  C_4
REMARK    3  A    between atoms: C_4  and  C_6
REMARK    4  A    between atoms: C_6  and  C_7
REMARK    5  A    between atoms: C_7  and  C_9
REMARK    6  A    between atoms: C_13  and  N_15
REMARK    7  A    between atoms: N_15  and  C_16
REMARK    8  A    between atoms: N_15  and  C_23
REMARK    9  A    between atoms: C_16  and  C_17
REMARK   10  A    between atoms: C_23  and  C_24
REMARK                            x       y       z     vdW  Elec       q    Type
REMARK                         _______ _______ _______ _____ _____    ______ ____
ROOT
ATOM      1  C   UNL     1       7.144  -4.992  25.521  0.00  0.00    +0.020 A 
ATOM      2  C   UNL     1       7.057  -3.829  24.734  0.00  0.00    +0.034 A 
ATOM      3  C   UNL     1       8.202  -3.201  24.216  0.00  0.00    +0.031 A 
ATOM      4  C   UNL     1       9.444  -3.734  24.607  0.00  0.00    +0.023 A 
ATOM      5  C   UNL     1       9.548  -4.890  25.385  0.00  0.00    +0.002 A 
ATOM      6  C   UNL     1       8.397  -5.533  25.820  0.00  0.00    +0.011 A 
ENDROOT
BRANCH   1   7
ATOM      7  C   UNL     1       5.950  -5.668  26.110  0.00  0.00    +0.171 C 
ATOM      8  O   UNL     1       6.106  -6.437  27.057  0.00  0.00    -0.292 OA
BRANCH   7   9
ATOM      9  C   UNL     1       4.581  -5.433  25.535  0.00  0.00    +0.166 C 
BRANCH   9  10
ATOM     10  C   UNL     1       4.199  -6.450  24.506  0.00  0.00    +0.246 C 
ATOM     11  O   UNL     1       4.203  -7.670  24.625  0.00  0.00    -0.285 OA
BRANCH  10  12
ATOM     12  C   UNL     1       3.803  -5.891  23.145  0.00  0.00    +0.373 C 
ATOM     13  O   UNL     1       4.331  -4.922  22.645  0.00  0.00    -0.242 OA
BRANCH  12  14
ATOM     14  O   UNL     1       2.826  -6.634  22.591  0.00  0.00    -0.475 OA
ATOM     15  H   UNL     1       3.010  -6.745  21.628  0.00  0.00    +0.295 HD
ENDBRANCH  12  14
ENDBRANCH  10  12
ENDBRANCH   9  10
ENDBRANCH   7   9
ENDBRANCH   1   7
BRANCH   3  16
ATOM     16  N   UNL     1       8.127  -2.121  23.343  0.00  0.00    -0.321 N 
BRANCH  16  17
ATOM     17  C   UNL     1       6.888  -1.363  23.115  0.00  0.00    +0.140 C 
BRANCH  17  18
ATOM     18  C   UNL     1       6.774   0.042  23.690  0.00  0.00    -0.030 A 
ATOM     19  C   UNL     1       6.479   1.079  22.779  0.00  0.00    +0.005 A 
ATOM     20  C   UNL     1       6.375   2.410  23.189  0.00  0.00    +0.000 A 
ATOM     21  C   UNL     1       6.570   2.738  24.525  0.00  0.00    +0.000 A 
ATOM     22  C   UNL     1       6.861   1.731  25.444  0.00  0.00    +0.000 A 
ATOM     23  C   UNL     1       6.959   0.392  25.033  0.00  0.00    +0.005 A 
ENDBRANCH  17  18
ENDBRANCH  16  17
BRANCH  16  24
ATOM     24  C   UNL     1       9.318  -1.736  22.573  0.00  0.00    +0.140 C 
BRANCH  24  25
ATOM     25  C   UNL     1       9.890  -0.350  22.826  0.00  0.00    -0.030 A 
ATOM     26  C   UNL     1       9.762   0.593  21.787  0.00  0.00    +0.005 A 
ATOM     27  C   UNL     1      10.086   1.936  21.981  0.00  0.00    +0.000 A 
ATOM     28  C   UNL     1      10.570   2.359  23.213  0.00  0.00    +0.000 A 
ATOM     29  C   UNL     1      10.790   1.425  24.226  0.00  0.00    +0.000 A 
ATOM     30  C   UNL     1      10.467   0.075  24.031  0.00  0.00    +0.005 A 
ENDBRANCH  24  25
ENDBRANCH  16  24
ENDBRANCH   3  16
TORSDOF 10
ENDMDL
MODEL 3
REMARK VINA RESULT:      -6.9      5.309      8.991
REMARK  Name = 
REMARK  10 active torsions:
REMARK  status: ('A' for Active; 'I' for Inactive)
REMARK    1  A    between atoms: O_1  and  C_2
REMARK    2  A    between atoms: C_2  and  C_4
REMARK    3  A    between atoms: C_4  and  C_6
REMARK    4  A    between atoms: C_6  and  C_7
REMARK    5  A    between atoms: C_7  and  C_9
REMARK    6  A    between atoms: C_13  and  N_15
REMARK    7  A    between atoms: N_15  and  C_16
REMARK    8  A    between atoms: N_15  and  C_23
REMARK    9  A    between atoms: C_16  and  C_17
REMARK   10  A    between atoms: C_23  and  C_24
REMARK                            x       y       z     vdW  Elec       q    Type
REMARK                         _______ _______ _______ _____ _____    ______ ____
ROOT
ATOM      1  C   UNL     1       9.656   3.184  23.750  0.00  0.00    +0.020 A 
ATOM      2  C   UNL     1       8.809   2.321  24.469  0.00  0.00    +0.034 A 
ATOM      3  C   UNL     1       8.614   0.985  24.079  0.00  0.00    +0.031 A 
ATOM      4  C   UNL     1       9.230   0.583  22.880  0.00  0.00    +0.023 A 
ATOM      5  C   UNL     1      10.077   1.427  22.156  0.00  0.00    +0.002 A 
ATOM      6  C   UNL     1      10.311   2.718  22.607  0.00  0.00    +0.011 A 
ENDROOT
BRANCH   1   7
ATOM      7  C   UNL     1       9.863   4.616  24.120  0.00  0.00    +0.171 C 
ATOM      8  O   UNL     1       9.335   5.050  25.143  0.00  0.00    -0.292 OA
BRANCH   7   9
ATOM      9  C   UNL     1      10.680   5.520  23.241  0.00  0.00    +0.166 C 
BRANCH   9  10
ATOM     10  C   UNL     1      12.091   5.673  23.714  0.00  0.00    +0.246 C 
ATOM     11  O   UNL     1      12.472   6.081  24.806  0.00  0.00    -0.285 OA
BRANCH  10  12
ATOM     12  C   UNL     1      13.168   5.319  22.696  0.00  0.00    +0.373 C 
ATOM     13  O   UNL     1      12.975   5.308  21.500  0.00  0.00    -0.242 OA
BRANCH  12  14
ATOM     14  O   UNL     1      14.336   5.053  23.312  0.00  0.00    -0.475 OA
ATOM     15  H   UNL     1      14.169   4.905  24.273  0.00  0.00    +0.295 HD
ENDBRANCH  12  14
ENDBRANCH  10  12
ENDBRANCH   9  10
ENDBRANCH   7   9
ENDBRANCH   1   7
BRANCH   3  16
ATOM     16  N   UNL     1       7.873   0.089  24.842  0.00  0.00    -0.321 N 
BRANCH  16  17
ATOM     17  C   UNL     1       6.427  -0.108  24.663  0.00  0.00    +0.140 C 
BRANCH  17  18
ATOM     18  C   UNL     1       5.929  -1.457  24.164  0.00  0.00    -0.030 A 
ATOM     19  C   UNL     1       6.336  -1.845  22.869  0.00  0.00    +0.005 A 
ATOM     20  C   UNL     1       5.921  -3.051  22.299  0.00  0.00    +0.000 A 
ATOM     21  C   UNL     1       5.081  -3.898  23.011  0.00  0.00    +0.000 A 
ATOM     22  C   UNL     1       4.668  -3.537  24.293  0.00  0.00    +0.000 A 
ATOM     23  C   UNL     1       5.090  -2.329  24.869  0.00  0.00    +0.005 A 
ENDBRANCH  17  18
ENDBRANCH  16  17
BRANCH  16  24
ATOM     24  C   UNL     1       8.542  -0.670  25.909  0.00  0.00    +0.140 C 
BRANCH  24  25
ATOM     25  C   UNL     1       8.656  -2.176  25.722  0.00  0.00    -0.030 A 
ATOM     26  C   UNL     1       8.057  -2.987  26.706  0.00  0.00    +0.005 A 
ATOM     27  C   UNL     1       7.945  -4.368  26.539  0.00  0.00    +0.000 A 
ATOM     28  C   UNL     1       8.453  -4.969  25.393  0.00  0.00    +0.000 A 
ATOM     29  C   UNL     1       9.130  -4.194  24.450  0.00  0.00    +0.000 A 
ATOM     30  C   UNL     1       9.245  -2.808  24.619  0.00  0.00    +0.005 A 
ENDBRANCH  24  25
ENDBRANCH  16  24
ENDBRANCH   3  16
TORSDOF 10
ENDMDL
MODEL 4
REMARK VINA RESULT:      -6.9      5.340      8.807
REMARK  Name = 
REMARK  10 active torsions:
REMARK  status: ('A' for Active; 'I' for Inactive)
REMARK    1  A    between atoms: O_1  and  C_2
REMARK    2  A    between atoms: C_2  and  C_4
REMARK    3  A    between atoms: C_4  and  C_6
REMARK    4  A    between atoms: C_6  and  C_7
REMARK    5  A    between atoms: C_7  and  C_9
REMARK    6  A    between atoms: C_13  and  N_15
REMARK    7  A    between atoms: N_15  and  C_16
REMARK    8  A    between atoms: N_15  and  C_23
REMARK    9  A    between atoms: C_16  and  C_17
REMARK   10  A    between atoms: C_23  and  C_24
REMARK                            x       y       z     vdW  Elec       q    Type
REMARK                         _______ _______ _______ _____ _____    ______ ____
ROOT
ATOM      1  C   UNL     1       9.726   3.248  23.826  0.00  0.00    +0.020 A 
ATOM      2  C   UNL     1       8.961   2.372  24.617  0.00  0.00    +0.034 A 
ATOM      3  C   UNL     1       8.808   1.017  24.279  0.00  0.00    +0.031 A 
ATOM      4  C   UNL     1       9.374   0.604  23.059  0.00  0.00    +0.023 A 
ATOM      5  C   UNL     1      10.140   1.461  22.264  0.00  0.00    +0.002 A 
ATOM      6  C   UNL     1      10.337   2.776  22.661  0.00  0.00    +0.011 A 
ENDROOT
BRANCH   1   7
ATOM      7  C   UNL     1       9.886   4.699  24.141  0.00  0.00    +0.171 C 
ATOM      8  O   UNL     1       9.309   5.164  25.123  0.00  0.00    -0.292 OA
BRANCH   7   9
ATOM      9  C   UNL     1      10.717   5.584  23.256  0.00  0.00    +0.166 C 
BRANCH   9  10
ATOM     10  C   UNL     1      12.129   5.723  23.730  0.00  0.00    +0.246 C 
ATOM     11  O   UNL     1      12.513   6.110  24.828  0.00  0.00    -0.285 OA
BRANCH  10  12
ATOM     12  C   UNL     1      13.204   5.380  22.706  0.00  0.00    +0.373 C 
ATOM     13  O   UNL     1      13.024   5.437  21.509  0.00  0.00    -0.242 OA
BRANCH  12  14
ATOM     14  O   UNL     1      14.354   5.040  23.317  0.00  0.00    -0.475 OA
ATOM     15  H   UNL     1      14.757   5.846  23.721  0.00  0.00    +0.295 HD
ENDBRANCH  12  14
ENDBRANCH  10  12
ENDBRANCH   9  10
ENDBRANCH   7   9
ENDBRANCH   1   7
BRANCH   3  16
ATOM     16  N   UNL     1       8.153   0.113  25.109  0.00  0.00    -0.321 N 
BRANCH  16  17
ATOM     17  C   UNL     1       8.866  -0.841  25.971  0.00  0.00    +0.140 C 
BRANCH  17  18
ATOM     18  C   UNL     1       8.708  -2.330  25.701  0.00  0.00    -0.030 A 
ATOM     19  C   UNL     1       8.026  -3.085  26.680  0.00  0.00    +0.005 A 
ATOM     20  C   UNL     1       7.842  -4.463  26.549  0.00  0.00    +0.000 A 
ATOM     21  C   UNL     1       8.344  -5.124  25.435  0.00  0.00    +0.000 A 
ATOM     22  C   UNL     1       9.019  -4.400  24.454  0.00  0.00    +0.000 A 
ATOM     23  C   UNL     1       9.198  -3.014  24.581  0.00  0.00    +0.005 A 
ENDBRANCH  17  18
ENDBRANCH  16  17
BRANCH  16  24
ATOM     24  C   UNL     1       6.684   0.066  25.102  0.00  0.00    +0.140 C 
BRANCH  24  25
ATOM     25  C   UNL     1       6.032  -1.140  24.442  0.00  0.00    -0.030 A 
ATOM     26  C   UNL     1       6.430  -1.439  23.124  0.00  0.00    +0.005 A 
ATOM     27  C   UNL     1       6.033  -2.620  22.495  0.00  0.00    +0.000 A 
ATOM     28  C   UNL     1       5.209  -3.516  23.166  0.00  0.00    +0.000 A 
ATOM     29  C   UNL     1       4.730  -3.196  24.437  0.00  0.00    +0.000 A 
ATOM     30  C   UNL     1       5.127  -2.008  25.067  0.00  0.00    +0.005 A 
ENDBRANCH  24  25
ENDBRANCH  16  24
ENDBRANCH   3  16
TORSDOF 10
ENDMDL
MODEL 5
REMARK VINA RESULT:      -6.8      4.494      8.175
REMARK  Name = 
REMARK  10 active torsions:
REMARK  status: ('A' for Active; 'I' for Inactive)
REMARK    1  A    between atoms: O_1  and  C_2
REMARK    2  A    between atoms: C_2  and  C_4
REMARK    3  A    between atoms: C_4  and  C_6
REMARK    4  A    between atoms: C_6  and  C_7
REMARK    5  A    between atoms: C_7  and  C_9
REMARK    6  A    between atoms: C_13  and  N_15
REMARK    7  A    between atoms: N_15  and  C_16
REMARK    8  A    between atoms: N_15  and  C_23
REMARK    9  A    between atoms: C_16  and  C_17
REMARK   10  A    between atoms: C_23  and  C_24
REMARK                            x       y       z     vdW  Elec       q    Type
REMARK                         _______ _______ _______ _____ _____    ______ ____
ROOT
ATOM      1  C   UNL     1       9.432   1.950  23.163  0.00  0.00    +0.020 A 
ATOM      2  C   UNL     1       8.524   1.120  23.844  0.00  0.00    +0.034 A 
ATOM      3  C   UNL     1       8.144  -0.133  23.334  0.00  0.00    +0.031 A 
ATOM      4  C   UNL     1       8.638  -0.471  22.061  0.00  0.00    +0.023 A 
ATOM      5  C   UNL     1       9.543   0.342  21.372  0.00  0.00    +0.002 A 
ATOM      6  C   UNL     1       9.960   1.539  21.936  0.00  0.00    +0.011 A 
ENDROOT
BRANCH   1   7
ATOM      7  C   UNL     1       9.835   3.298  23.663  0.00  0.00    +0.171 C 
ATOM      8  O   UNL     1      11.026   3.608  23.650  0.00  0.00    -0.292 OA
BRANCH   7   9
ATOM      9  C   UNL     1       8.806   4.251  24.200  0.00  0.00    +0.166 C 
BRANCH   9  10
ATOM     10  C   UNL     1       8.537   5.399  23.279  0.00  0.00    +0.246 C 
ATOM     11  O   UNL     1       9.052   6.511  23.303  0.00  0.00    -0.285 OA
BRANCH  10  12
ATOM     12  C   UNL     1       7.466   5.158  22.222  0.00  0.00    +0.373 C 
ATOM     13  O   UNL     1       6.722   4.202  22.236  0.00  0.00    -0.242 OA
BRANCH  12  14
ATOM     14  O   UNL     1       7.460   6.153  21.314  0.00  0.00    -0.475 OA
ATOM     15  H   UNL     1       6.595   6.152  20.839  0.00  0.00    +0.295 HD
ENDBRANCH  12  14
ENDBRANCH  10  12
ENDBRANCH   9  10
ENDBRANCH   7   9
ENDBRANCH   1   7
BRANCH   3  16
ATOM     16  N   UNL     1       7.340  -1.014  24.049  0.00  0.00    -0.321 N 
BRANCH  16  17
ATOM     17  C   UNL     1       6.112  -1.603  23.496  0.00  0.00    +0.140 C 
BRANCH  17  18
ATOM     18  C   UNL     1       6.123  -3.071  23.092  0.00  0.00    -0.030 A 
ATOM     19  C   UNL     1       5.161  -3.905  23.702  0.00  0.00    +0.005 A 
ATOM     20  C   UNL     1       5.094  -5.272  23.426  0.00  0.00    +0.000 A 
ATOM     21  C   UNL     1       5.993  -5.842  22.533  0.00  0.00    +0.000 A 
ATOM     22  C   UNL     1       6.951  -5.038  21.917  0.00  0.00    +0.000 A 
ATOM     23  C   UNL     1       7.015  -3.663  22.189  0.00  0.00    +0.005 A 
ENDBRANCH  17  18
ENDBRANCH  16  17
BRANCH  16  24
ATOM     24  C   UNL     1       7.696  -1.346  25.436  0.00  0.00    +0.140 C 
BRANCH  24  25
ATOM     25  C   UNL     1       8.112  -2.782  25.721  0.00  0.00    -0.030 A 
ATOM     26  C   UNL     1       7.331  -3.500  26.648  0.00  0.00    +0.005 A 
ATOM     27  C   UNL     1       7.513  -4.870  26.844  0.00  0.00    +0.000 A 
ATOM     28  C   UNL     1       8.499  -5.544  26.133  0.00  0.00    +0.000 A 
ATOM     29  C   UNL     1       9.343  -4.833  25.279  0.00  0.00    +0.000 A 
ATOM     30  C   UNL     1       9.161  -3.457  25.084  0.00  0.00    +0.005 A 
ENDBRANCH  24  25
ENDBRANCH  16  24
ENDBRANCH   3  16
TORSDOF 10
ENDMDL
MODEL 6
REMARK VINA RESULT:      -6.8      1.452      2.902
REMARK  Name = 
REMARK  10 active torsions:
REMARK  status: ('A' for Active; 'I' for Inactive)
REMARK    1  A    between atoms: O_1  and  C_2
REMARK    2  A    between atoms: C_2  and  C_4
REMARK    3  A    between atoms: C_4  and  C_6
REMARK    4  A    between atoms: C_6  and  C_7
REMARK    5  A    between atoms: C_7  and  C_9
REMARK    6  A    between atoms: C_13  and  N_15
REMARK    7  A    between atoms: N_15  and  C_16
REMARK    8  A    between atoms: N_15  and  C_23
REMARK    9  A    between atoms: C_16  and  C_17
REMARK   10  A    between atoms: C_23  and  C_24
REMARK                            x       y       z     vdW  Elec       q    Type
REMARK                         _______ _______ _______ _____ _____    ______ ____
ROOT
ATOM      1  C   UNL     1       5.806  -5.608  24.230  0.00  0.00    +0.020 A 
ATOM      2  C   UNL     1       6.671  -4.627  24.748  0.00  0.00    +0.034 A 
ATOM      3  C   UNL     1       7.555  -3.913  23.921  0.00  0.00    +0.031 A 
ATOM      4  C   UNL     1       7.604  -4.299  22.569  0.00  0.00    +0.023 A 
ATOM      5  C   UNL     1       6.750  -5.270  22.039  0.00  0.00    +0.002 A 
ATOM      6  C   UNL     1       5.833  -5.905  22.865  0.00  0.00    +0.011 A 
ENDROOT
BRANCH   1   7
ATOM      7  C   UNL     1       4.875  -6.404  25.084  0.00  0.00    +0.171 C 
ATOM      8  O   UNL     1       4.433  -7.468  24.654  0.00  0.00    -0.292 OA
BRANCH   7   9
ATOM      9  C   UNL     1       4.462  -5.899  26.437  0.00  0.00    +0.166 C 
BRANCH   9  10
ATOM     10  C   UNL     1       5.255  -6.504  27.553  0.00  0.00    +0.246 C 
ATOM     11  O   UNL     1       5.114  -7.616  28.050  0.00  0.00    -0.285 OA
BRANCH  10  12
ATOM     12  C   UNL     1       6.328  -5.608  28.159  0.00  0.00    +0.373 C 
ATOM     13  O   UNL     1       6.080  -4.669  28.883  0.00  0.00    -0.242 OA
BRANCH  12  14
ATOM     14  O   UNL     1       7.556  -6.025  27.796  0.00  0.00    -0.475 OA
ATOM     15  H   UNL     1       7.793  -5.619  26.929  0.00  0.00    +0.295 HD
ENDBRANCH  12  14
ENDBRANCH  10  12
ENDBRANCH   9  10
ENDBRANCH   7   9
ENDBRANCH   1   7
BRANCH   3  16
ATOM     16  N   UNL     1       8.331  -2.861  24.396  0.00  0.00    -0.321 N 
BRANCH  16  17
ATOM     17  C   UNL     1       9.603  -2.463  23.775  0.00  0.00    +0.140 C 
BRANCH  17  18
ATOM     18  C   UNL     1       9.693  -1.101  23.101  0.00  0.00    -0.030 A 
ATOM     19  C   UNL     1      10.379  -0.088  23.806  0.00  0.00    +0.005 A 
ATOM     20  C   UNL     1      10.503   1.206  23.295  0.00  0.00    +0.000 A 
ATOM     21  C   UNL     1       9.937   1.522  22.067  0.00  0.00    +0.000 A 
ATOM     22  C   UNL     1       9.256   0.537  21.352  0.00  0.00    +0.000 A 
ATOM     23  C   UNL     1       9.137  -0.765  21.860  0.00  0.00    +0.005 A 
ENDBRANCH  17  18
ENDBRANCH  16  17
BRANCH  16  24
ATOM     24  C   UNL     1       7.897  -2.134  25.597  0.00  0.00    +0.140 C 
BRANCH  24  25
ATOM     25  C   UNL     1       7.316  -0.742  25.394  0.00  0.00    -0.030 A 
ATOM     26  C   UNL     1       7.754   0.267  26.275  0.00  0.00    +0.005 A 
ATOM     27  C   UNL     1       7.427   1.606  26.065  0.00  0.00    +0.000 A 
ATOM     28  C   UNL     1       6.633   1.962  24.981  0.00  0.00    +0.000 A 
ATOM     29  C   UNL     1       6.114   0.968  24.150  0.00  0.00    +0.000 A 
ATOM     30  C   UNL     1       6.441  -0.378  24.362  0.00  0.00    +0.005 A 
ENDBRANCH  24  25
ENDBRANCH  16  24
ENDBRANCH   3  16
TORSDOF 10
ENDMDL
MODEL 7
REMARK VINA RESULT:      -6.7      1.692      4.053
REMARK  Name = 
REMARK  10 active torsions:
REMARK  status: ('A' for Active; 'I' for Inactive)
REMARK    1  A    between atoms: O_1  and  C_2
REMARK    2  A    between atoms: C_2  and  C_4
REMARK    3  A    between atoms: C_4  and  C_6
REMARK    4  A    between atoms: C_6  and  C_7
REMARK    5  A    between atoms: C_7  and  C_9
REMARK    6  A    between atoms: C_13  and  N_15
REMARK    7  A    between atoms: N_15  and  C_16
REMARK    8  A    between atoms: N_15  and  C_23
REMARK    9  A    between atoms: C_16  and  C_17
REMARK   10  A    between atoms: C_23  and  C_24
REMARK                            x       y       z     vdW  Elec       q    Type
REMARK                         _______ _______ _______ _____ _____    ______ ____
ROOT
ATOM      1  C   UNL     1       5.936  -5.295  24.184  0.00  0.00    +0.020 A 
ATOM      2  C   UNL     1       6.487  -4.005  24.082  0.00  0.00    +0.034 A 
ATOM      3  C   UNL     1       7.014  -3.521  22.873  0.00  0.00    +0.031 A 
ATOM      4  C   UNL     1       7.054  -4.426  21.796  0.00  0.00    +0.023 A 
ATOM      5  C   UNL     1       6.507  -5.709  21.880  0.00  0.00    +0.002 A 
ATOM      6  C   UNL     1       5.925  -6.134  23.066  0.00  0.00    +0.011 A 
ENDROOT
BRANCH   1   7
ATOM      7  C   UNL     1       5.394  -5.850  25.460  0.00  0.00    +0.171 C 
ATOM      8  O   UNL     1       4.806  -6.930  25.438  0.00  0.00    -0.292 OA
BRANCH   7   9
ATOM      9  C   UNL     1       5.539  -5.086  26.745  0.00  0.00    +0.166 C 
BRANCH   9  10
ATOM     10  C   UNL     1       6.601  -5.645  27.639  0.00  0.00    +0.246 C 
ATOM     11  O   UNL     1       7.815  -5.594  27.476  0.00  0.00    -0.285 OA
BRANCH  10  12
ATOM     12  C   UNL     1       6.101  -6.397  28.865  0.00  0.00    +0.373 C 
ATOM     13  O   UNL     1       6.240  -5.989  29.998  0.00  0.00    -0.242 OA
BRANCH  12  14
ATOM     14  O   UNL     1       5.477  -7.535  28.505  0.00  0.00    -0.475 OA
ATOM     15  H   UNL     1       4.503  -7.414  28.603  0.00  0.00    +0.295 HD
ENDBRANCH  12  14
ENDBRANCH  10  12
ENDBRANCH   9  10
ENDBRANCH   7   9
ENDBRANCH   1   7
BRANCH   3  16
ATOM     16  N   UNL     1       7.456  -2.210  22.726  0.00  0.00    -0.321 N 
BRANCH  16  17
ATOM     17  C   UNL     1       6.622  -1.045  23.055  0.00  0.00    +0.140 C 
BRANCH  17  18
ATOM     18  C   UNL     1       6.864  -0.321  24.372  0.00  0.00    -0.030 A 
ATOM     19  C   UNL     1       6.999  -1.126  25.524  0.00  0.00    +0.005 A 
ATOM     20  C   UNL     1       7.201  -0.570  26.789  0.00  0.00    +0.000 A 
ATOM     21  C   UNL     1       7.267   0.811  26.934  0.00  0.00    +0.000 A 
ATOM     22  C   UNL     1       7.138   1.626  25.811  0.00  0.00    +0.000 A 
ATOM     23  C   UNL     1       6.943   1.067  24.538  0.00  0.00    +0.005 A 
ENDBRANCH  17  18
ENDBRANCH  16  17
BRANCH  16  24
ATOM     24  C   UNL     1       8.796  -1.962  22.176  0.00  0.00    +0.140 C 
BRANCH  24  25
ATOM     25  C   UNL     1       9.552  -0.754  22.711  0.00  0.00    -0.030 A 
ATOM     26  C   UNL     1       9.552   0.405  21.910  0.00  0.00    +0.005 A 
ATOM     27  C   UNL     1      10.056   1.616  22.385  0.00  0.00    +0.000 A 
ATOM     28  C   UNL     1      10.595   1.686  23.664  0.00  0.00    +0.000 A 
ATOM     29  C   UNL     1      10.687   0.528  24.438  0.00  0.00    +0.000 A 
ATOM     30  C   UNL     1      10.183  -0.689  23.961  0.00  0.00    +0.005 A 
ENDBRANCH  24  25
ENDBRANCH  16  24
ENDBRANCH   3  16
TORSDOF 10
ENDMDL
MODEL 8
REMARK VINA RESULT:      -6.7      4.706      8.394
REMARK  Name = 
REMARK  10 active torsions:
REMARK  status: ('A' for Active; 'I' for Inactive)
REMARK    1  A    between atoms: O_1  and  C_2
REMARK    2  A    between atoms: C_2  and  C_4
REMARK    3  A    between atoms: C_4  and  C_6
REMARK    4  A    between atoms: C_6  and  C_7
REMARK    5  A    between atoms: C_7  and  C_9
REMARK    6  A    between atoms: C_13  and  N_15
REMARK    7  A    between atoms: N_15  and  C_16
REMARK    8  A    between atoms: N_15  and  C_23
REMARK    9  A    between atoms: C_16  and  C_17
REMARK   10  A    between atoms: C_23  and  C_24
REMARK                            x       y       z     vdW  Elec       q    Type
REMARK                         _______ _______ _______ _____ _____    ______ ____
ROOT
ATOM      1  C   UNL     1       8.588   1.599  22.697  0.00  0.00    +0.020 A 
ATOM      2  C   UNL     1       7.624   0.686  23.161  0.00  0.00    +0.034 A 
ATOM      3  C   UNL     1       7.697  -0.684  22.856  0.00  0.00    +0.031 A 
ATOM      4  C   UNL     1       8.725  -1.080  21.981  0.00  0.00    +0.023 A 
ATOM      5  C   UNL     1       9.693  -0.187  21.513  0.00  0.00    +0.002 A 
ATOM      6  C   UNL     1       9.639   1.147  21.893  0.00  0.00    +0.011 A 
ENDROOT
BRANCH   1   7
ATOM      7  C   UNL     1       8.525   3.063  22.979  0.00  0.00    +0.171 C 
ATOM      8  O   UNL     1       7.860   3.786  22.239  0.00  0.00    -0.292 OA
BRANCH   7   9
ATOM      9  C   UNL     1       9.287   3.650  24.134  0.00  0.00    +0.166 C 
BRANCH   9  10
ATOM     10  C   UNL     1      10.535   4.358  23.710  0.00  0.00    +0.246 C 
ATOM     11  O   UNL     1      11.596   3.853  23.357  0.00  0.00    -0.285 OA
BRANCH  10  12
ATOM     12  C   UNL     1      10.482   5.879  23.769  0.00  0.00    +0.373 C 
ATOM     13  O   UNL     1      11.231   6.545  24.450  0.00  0.00    -0.242 OA
BRANCH  12  14
ATOM     14  O   UNL     1       9.521   6.354  22.954  0.00  0.00    -0.475 OA
ATOM     15  H   UNL     1       9.803   7.230  22.598  0.00  0.00    +0.295 HD
ENDBRANCH  12  14
ENDBRANCH  10  12
ENDBRANCH   9  10
ENDBRANCH   7   9
ENDBRANCH   1   7
BRANCH   3  16
ATOM     16  N   UNL     1       6.819  -1.615  23.401  0.00  0.00    -0.321 N 
BRANCH  16  17
ATOM     17  C   UNL     1       6.860  -2.017  24.814  0.00  0.00    +0.140 C 
BRANCH  17  18
ATOM     18  C   UNL     1       7.652  -3.259  25.198  0.00  0.00    -0.030 A 
ATOM     19  C   UNL     1       7.013  -4.181  26.056  0.00  0.00    +0.005 A 
ATOM     20  C   UNL     1       7.653  -5.343  26.492  0.00  0.00    +0.000 A 
ATOM     21  C   UNL     1       8.954  -5.610  26.085  0.00  0.00    +0.000 A 
ATOM     22  C   UNL     1       9.604  -4.716  25.236  0.00  0.00    +0.000 A 
ATOM     23  C   UNL     1       8.960  -3.551  24.791  0.00  0.00    +0.005 A 
ENDBRANCH  17  18
ENDBRANCH  16  17
BRANCH  16  24
ATOM     24  C   UNL     1       5.831  -2.267  22.530  0.00  0.00    +0.140 C 
BRANCH  24  25
ATOM     25  C   UNL     1       5.867  -3.786  22.455  0.00  0.00    -0.030 A 
ATOM     26  C   UNL     1       6.980  -4.367  21.815  0.00  0.00    +0.005 A 
ATOM     27  C   UNL     1       7.201  -5.744  21.852  0.00  0.00    +0.000 A 
ATOM     28  C   UNL     1       6.299  -6.571  22.510  0.00  0.00    +0.000 A 
ATOM     29  C   UNL     1       5.145  -6.025  23.072  0.00  0.00    +0.000 A 
ATOM     30  C   UNL     1       4.921  -4.642  23.033  0.00  0.00    +0.005 A 
ENDBRANCH  24  25
ENDBRANCH  16  24
ENDBRANCH   3  16
TORSDOF 10
ENDMDL
MODEL 9
REMARK VINA RESULT:      -6.7      4.333      7.996
REMARK  Name = 
REMARK  10 active torsions:
REMARK  status: ('A' for Active; 'I' for Inactive)
REMARK    1  A    between atoms: O_1  and  C_2
REMARK    2  A    between atoms: C_2  and  C_4
REMARK    3  A    between atoms: C_4  and  C_6
REMARK    4  A    between atoms: C_6  and  C_7
REMARK    5  A    between atoms: C_7  and  C_9
REMARK    6  A    between atoms: C_13  and  N_15
REMARK    7  A    between atoms: N_15  and  C_16
REMARK    8  A    between atoms: N_15  and  C_23
REMARK    9  A    between atoms: C_16  and  C_17
REMARK   10  A    between atoms: C_23  and  C_24
REMARK                            x       y       z     vdW  Elec       q    Type
REMARK                         _______ _______ _______ _____ _____    ______ ____
ROOT
ATOM      1  C   UNL     1       8.310   1.903  23.387  0.00  0.00    +0.020 A 
ATOM      2  C   UNL     1       8.209   0.542  23.047  0.00  0.00    +0.034 A 
ATOM      3  C   UNL     1       9.242  -0.368  23.330  0.00  0.00    +0.031 A 
ATOM      4  C   UNL     1      10.421   0.169  23.878  0.00  0.00    +0.023 A 
ATOM      5  C   UNL     1      10.536   1.518  24.224  0.00  0.00    +0.002 A 
ATOM      6  C   UNL     1       9.470   2.379  24.003  0.00  0.00    +0.011 A 
ENDROOT
BRANCH   1   7
ATOM      7  C   UNL     1       7.243   2.901  23.075  0.00  0.00    +0.171 C 
ATOM      8  O   UNL     1       6.593   2.776  22.038  0.00  0.00    -0.292 OA
BRANCH   7   9
ATOM      9  C   UNL     1       6.987   4.056  24.001  0.00  0.00    +0.166 C 
BRANCH   9  10
ATOM     10  C   UNL     1       6.626   5.315  23.277  0.00  0.00    +0.246 C 
ATOM     11  O   UNL     1       5.518   5.831  23.185  0.00  0.00    -0.285 OA
BRANCH  10  12
ATOM     12  C   UNL     1       7.769   6.000  22.538  0.00  0.00    +0.373 C 
ATOM     13  O   UNL     1       8.826   6.278  23.060  0.00  0.00    -0.242 OA
BRANCH  12  14
ATOM     14  O   UNL     1       7.442   6.217  21.250  0.00  0.00    -0.475 OA
ATOM     15  H   UNL     1       8.022   6.926  20.883  0.00  0.00    +0.295 HD
ENDBRANCH  12  14
ENDBRANCH  10  12
ENDBRANCH   9  10
ENDBRANCH   7   9
ENDBRANCH   1   7
BRANCH   3  16
ATOM     16  N   UNL     1       9.111  -1.734  23.107  0.00  0.00    -0.321 N 
BRANCH  16  17
ATOM     17  C   UNL     1       8.244  -2.293  22.058  0.00  0.00    +0.140 C 
BRANCH  17  18
ATOM     18  C   UNL     1       7.069  -3.169  22.471  0.00  0.00    -0.030 A 
ATOM     19  C   UNL     1       7.141  -4.534  22.121  0.00  0.00    +0.005 A 
ATOM     20  C   UNL     1       6.112  -5.426  22.427  0.00  0.00    +0.000 A 
ATOM     21  C   UNL     1       4.977  -4.971  23.088  0.00  0.00    +0.000 A 
ATOM     22  C   UNL     1       4.884  -3.627  23.445  0.00  0.00    +0.000 A 
ATOM     23  C   UNL     1       5.922  -2.732  23.144  0.00  0.00    +0.005 A 
ENDBRANCH  17  18
ENDBRANCH  16  17
BRANCH  16  24
ATOM     24  C   UNL     1       9.828  -2.676  23.977  0.00  0.00    +0.140 C 
BRANCH  24  25
ATOM     25  C   UNL     1       9.012  -3.401  25.037  0.00  0.00    -0.030 A 
ATOM     26  C   UNL     1       8.182  -2.608  25.855  0.00  0.00    +0.005 A 
ATOM     27  C   UNL     1       7.262  -3.185  26.731  0.00  0.00    +0.000 A 
ATOM     28  C   UNL     1       7.170  -4.569  26.823  0.00  0.00    +0.000 A 
ATOM     29  C   UNL     1       8.045  -5.370  26.089  0.00  0.00    +0.000 A 
ATOM     30  C   UNL     1       8.972  -4.791  25.211  0.00  0.00    +0.005 A 
ENDBRANCH  24  25
ENDBRANCH  16  24
ENDBRANCH   3  16
TORSDOF 10
ENDMDL
