MODEL 1
REMARK VINA RESULT:      -4.0      0.000      0.000
REMARK  Name = 
REMARK  10 active torsions:
REMARK  status: ('A' for Active; 'I' for Inactive)
REMARK    1  A    between atoms: C_1  and  C_2
REMARK    2  A    between atoms: C_2  and  O_4
REMARK    3  A    between atoms: C_2  and  C_5
REMARK    4  A    between atoms: C_5  and  O_7
REMARK    5  A    between atoms: C_5  and  C_8
REMARK    6  A    between atoms: C_8  and  O_10
REMARK    7  A    between atoms: C_8  and  C_11
REMARK    8  A    between atoms: C_11  and  O_13
REMARK    9  A    between atoms: C_11  and  C_14
REMARK   10  A    between atoms: C_14  and  O_15
REMARK                            x       y       z     vdW  Elec       q    Type
REMARK                         _______ _______ _______ _____ _____    ______ ____
ROOT
ATOM      1  C   UNL     1      10.150   0.971  22.628  0.00  0.00    +0.176 C 
ENDROOT
BRANCH   1   2
ATOM      2  O   UNL     1       9.909   1.831  21.496  0.00  0.00    -0.387 OA
ATOM      3  H   UNL     1       8.992   2.152  21.560  0.00  0.00    +0.210 HD
ENDBRANCH   1   2
BRANCH   1   4
ATOM      4  C   UNL     1       8.941   0.035  22.907  0.00  0.00    +0.174 C 
BRANCH   4   6
ATOM      5  C   UNL     1       8.420  -2.447  22.643  0.00  0.00    +0.040 C 
ATOM      6  C   UNL     1       8.886  -1.172  21.945  0.00  0.00    +0.142 C 
BRANCH   6   7
ATOM      7  O   UNL     1      10.177  -1.404  21.379  0.00  0.00    -0.389 OA
ATOM      8  H   UNL     1      10.356  -2.358  21.439  0.00  0.00    +0.210 HD
ENDBRANCH   6   7
ENDBRANCH   4   6
BRANCH   4   9
ATOM      9  O   UNL     1       7.712   0.765  22.801  0.00  0.00    -0.387 OA
ATOM     10  H   UNL     1       7.877   1.630  23.239  0.00  0.00    +0.210 HD
ENDBRANCH   4   9
ENDBRANCH   1   4
BRANCH   1  11
ATOM     11  C   UNL     1      10.474   1.857  23.859  0.00  0.00    +0.171 C 
BRANCH  11  12
ATOM     12  O   UNL     1       9.683   1.442  24.989  0.00  0.00    -0.387 OA
ATOM     13  H   UNL     1       9.267   2.251  25.350  0.00  0.00    +0.210 HD
ENDBRANCH  11  12
BRANCH  11  14
ATOM     14  C   UNL     1      10.225   3.347  23.571  0.00  0.00    +0.189 C 
BRANCH  14  15
ATOM     15  O   UNL     1      11.357   3.935  22.931  0.00  0.00    -0.392 OA
ATOM     16  H   UNL     1      11.576   3.346  22.172  0.00  0.00    +0.210 HD
ENDBRANCH  14  15
ENDBRANCH  11  14
ENDBRANCH   1  11
TORSDOF 9
ENDMDL
MODEL 2
REMARK VINA RESULT:      -4.0      1.893      4.421
REMARK  Name = 
REMARK  10 active torsions:
REMARK  status: ('A' for Active; 'I' for Inactive)
REMARK    1  A    between atoms: C_1  and  C_2
REMARK    2  A    between atoms: C_2  and  O_4
REMARK    3  A    between atoms: C_2  and  C_5
REMARK    4  A    between atoms: C_5  and  O_7
REMARK    5  A    between atoms: C_5  and  C_8
REMARK    6  A    between atoms: C_8  and  O_10
REMARK    7  A    between atoms: C_8  and  C_11
REMARK    8  A    between atoms: C_11  and  O_13
REMARK    9  A    between atoms: C_11  and  C_14
REMARK   10  A    between atoms: C_14  and  O_15
REMARK                            x       y       z     vdW  Elec       q    Type
REMARK                         _______ _______ _______ _____ _____    ______ ____
ROOT
ATOM      1  C   UNL     1       8.881  -0.603  23.402  0.00  0.00    +0.176 C 
ENDROOT
BRANCH   1   2
ATOM      2  O   UNL     1       7.531  -0.469  22.916  0.00  0.00    -0.387 OA
ATOM      3  H   UNL     1       7.462   0.395  22.473  0.00  0.00    +0.210 HD
ENDBRANCH   1   2
BRANCH   1   4
ATOM      4  C   UNL     1       9.925  -0.317  22.286  0.00  0.00    +0.174 C 
BRANCH   4   6
ATOM      5  C   UNL     1      10.003   2.105  23.079  0.00  0.00    +0.040 C 
ATOM      6  C   UNL     1       9.965   1.170  21.873  0.00  0.00    +0.142 C 
BRANCH   6   7
ATOM      7  O   UNL     1       8.819   1.488  21.081  0.00  0.00    -0.389 OA
ATOM      8  H   UNL     1       8.642   0.726  20.503  0.00  0.00    +0.210 HD
ENDBRANCH   6   7
ENDBRANCH   4   6
BRANCH   4   9
ATOM      9  O   UNL     1       9.643  -1.110  21.126  0.00  0.00    -0.387 OA
ATOM     10  H   UNL     1       9.863  -0.542  20.354  0.00  0.00    +0.210 HD
ENDBRANCH   4   9
ENDBRANCH   1   4
BRANCH   1  11
ATOM     11  C   UNL     1       9.056  -2.029  23.987  0.00  0.00    +0.171 C 
BRANCH  11  12
ATOM     12  O   UNL     1      10.272  -2.621  23.491  0.00  0.00    -0.387 OA
ATOM     13  H   UNL     1      10.218  -3.578  23.691  0.00  0.00    +0.210 HD
ENDBRANCH  11  12
BRANCH  11  14
ATOM     14  C   UNL     1       7.860  -2.935  23.646  0.00  0.00    +0.189 C 
BRANCH  14  15
ATOM     15  O   UNL     1       7.825  -3.222  22.249  0.00  0.00    -0.392 OA
ATOM     16  H   UNL     1       7.238  -4.007  22.149  0.00  0.00    +0.210 HD
ENDBRANCH  14  15
ENDBRANCH  11  14
ENDBRANCH   1  11
TORSDOF 9
ENDMDL
MODEL 3
REMARK VINA RESULT:      -3.9      1.500      2.565
REMARK  Name = 
REMARK  10 active torsions:
REMARK  status: ('A' for Active; 'I' for Inactive)
REMARK    1  A    between atoms: C_1  and  C_2
REMARK    2  A    between atoms: C_2  and  O_4
REMARK    3  A    between atoms: C_2  and  C_5
REMARK    4  A    between atoms: C_5  and  O_7
REMARK    5  A    between atoms: C_5  and  C_8
REMARK    6  A    between atoms: C_8  and  O_10
REMARK    7  A    between atoms: C_8  and  C_11
REMARK    8  A    between atoms: C_11  and  O_13
REMARK    9  A    between atoms: C_11  and  C_14
REMARK   10  A    between atoms: C_14  and  O_15
REMARK                            x       y       z     vdW  Elec       q    Type
REMARK                         _______ _______ _______ _____ _____    ______ ____
ROOT
ATOM      1  C   UNL     1       9.135  -0.119  23.105  0.00  0.00    +0.176 C 
ENDROOT
BRANCH   1   2
ATOM      2  O   UNL     1      10.483   0.120  23.552  0.00  0.00    -0.387 OA
ATOM      3  H   UNL     1      11.051  -0.564  23.154  0.00  0.00    +0.210 HD
ENDBRANCH   1   2
BRANCH   1   4
ATOM      4  C   UNL     1       9.019  -1.450  22.311  0.00  0.00    +0.174 C 
BRANCH   4   6
ATOM      5  C   UNL     1       7.865  -2.490  24.333  0.00  0.00    +0.040 C 
ATOM      6  C   UNL     1       8.902  -2.686  23.229  0.00  0.00    +0.142 C 
BRANCH   6   7
ATOM      7  O   UNL     1      10.166  -2.967  23.832  0.00  0.00    -0.389 OA
ATOM      8  H   UNL     1      10.841  -2.461  23.346  0.00  0.00    +0.210 HD
ENDBRANCH   6   7
ENDBRANCH   4   6
BRANCH   4   9
ATOM      9  O   UNL     1      10.156  -1.618  21.454  0.00  0.00    -0.387 OA
ATOM     10  H   UNL     1       9.998  -1.030  20.683  0.00  0.00    +0.210 HD
ENDBRANCH   4   9
ENDBRANCH   1   4
BRANCH   1  11
ATOM     11  C   UNL     1       8.678   1.091  22.249  0.00  0.00    +0.171 C 
BRANCH  11  12
ATOM     12  O   UNL     1       8.877   0.811  20.850  0.00  0.00    -0.387 OA
ATOM     13  H   UNL     1       8.326   0.031  20.641  0.00  0.00    +0.210 HD
ENDBRANCH  11  12
BRANCH  11  14
ATOM     14  C   UNL     1       9.429   2.377  22.633  0.00  0.00    +0.189 C 
BRANCH  14  15
ATOM     15  O   UNL     1      10.562   2.573  21.789  0.00  0.00    -0.392 OA
ATOM     16  H   UNL     1      11.353   2.421  22.356  0.00  0.00    +0.210 HD
ENDBRANCH  14  15
ENDBRANCH  11  14
ENDBRANCH   1  11
TORSDOF 9
ENDMDL
MODEL 4
REMARK VINA RESULT:      -3.9      1.349      4.415
REMARK  Name = 
REMARK  10 active torsions:
REMARK  status: ('A' for Active; 'I' for Inactive)
REMARK    1  A    between atoms: C_1  and  C_2
REMARK    2  A    between atoms: C_2  and  O_4
REMARK    3  A    between atoms: C_2  and  C_5
REMARK    4  A    between atoms: C_5  and  O_7
REMARK    5  A    between atoms: C_5  and  C_8
REMARK    6  A    between atoms: C_8  and  O_10
REMARK    7  A    between atoms: C_8  and  C_11
REMARK    8  A    between atoms: C_11  and  O_13
REMARK    9  A    between atoms: C_11  and  C_14
REMARK   10  A    between atoms: C_14  and  O_15
REMARK                            x       y       z     vdW  Elec       q    Type
REMARK                         _______ _______ _______ _____ _____    ______ ____
ROOT
ATOM      1  C   UNL     1       9.454   0.159  22.987  0.00  0.00    +0.176 C 
ENDROOT
BRANCH   1   2
ATOM      2  O   UNL     1       8.158  -0.011  22.380  0.00  0.00    -0.387 OA
ATOM      3  H   UNL     1       8.007  -0.967  22.271  0.00  0.00    +0.210 HD
ENDBRANCH   1   2
BRANCH   1   4
ATOM      4  C   UNL     1      10.190   1.409  22.430  0.00  0.00    +0.174 C 
BRANCH   4   6
ATOM      5  C   UNL     1       9.229   2.779  24.354  0.00  0.00    +0.040 C 
ATOM      6  C   UNL     1      10.467   2.473  23.515  0.00  0.00    +0.142 C 
BRANCH   6   7
ATOM      7  O   UNL     1      10.920   3.683  22.907  0.00  0.00    -0.389 OA
ATOM      8  H   UNL     1      10.165   4.074  22.433  0.00  0.00    +0.210 HD
ENDBRANCH   6   7
ENDBRANCH   4   6
BRANCH   4   9
ATOM      9  O   UNL     1       9.422   2.012  21.380  0.00  0.00    -0.387 OA
ATOM     10  H   UNL     1       9.789   2.917  21.267  0.00  0.00    +0.210 HD
ENDBRANCH   4   9
ENDBRANCH   1   4
BRANCH   1  11
ATOM     11  C   UNL     1      10.280  -1.133  22.756  0.00  0.00    +0.171 C 
BRANCH  11  12
ATOM     12  O   UNL     1      10.157  -1.560  21.385  0.00  0.00    -0.387 OA
ATOM     13  H   UNL     1       9.798  -2.470  21.408  0.00  0.00    +0.210 HD
ENDBRANCH  11  12
BRANCH  11  14
ATOM     14  C   UNL     1       9.838  -2.268  23.695  0.00  0.00    +0.189 C 
BRANCH  14  15
ATOM     15  O   UNL     1       8.623  -2.859  23.237  0.00  0.00    -0.392 OA
ATOM     16  H   UNL     1       8.217  -3.290  24.025  0.00  0.00    +0.210 HD
ENDBRANCH  14  15
ENDBRANCH  11  14
ENDBRANCH   1  11
TORSDOF 9
ENDMDL
MODEL 5
REMARK VINA RESULT:      -3.8      1.822      2.858
REMARK  Name = 
REMARK  10 active torsions:
REMARK  status: ('A' for Active; 'I' for Inactive)
REMARK    1  A    between atoms: C_1  and  C_2
REMARK    2  A    between atoms: C_2  and  O_4
REMARK    3  A    between atoms: C_2  and  C_5
REMARK    4  A    between atoms: C_5  and  O_7
REMARK    5  A    between atoms: C_5  and  C_8
REMARK    6  A    between atoms: C_8  and  O_10
REMARK    7  A    between atoms: C_8  and  C_11
REMARK    8  A    between atoms: C_11  and  O_13
REMARK    9  A    between atoms: C_11  and  C_14
REMARK   10  A    between atoms: C_14  and  O_15
REMARK                            x       y       z     vdW  Elec       q    Type
REMARK                         _______ _______ _______ _____ _____    ______ ____
ROOT
ATOM      1  C   UNL     1      10.023   3.039  23.650  0.00  0.00    +0.176 C 
ENDROOT
BRANCH   1   2
ATOM      2  O   UNL     1      11.187   3.692  23.106  0.00  0.00    -0.387 OA
ATOM      3  H   UNL     1      11.954   3.415  23.637  0.00  0.00    +0.210 HD
ENDBRANCH   1   2
BRANCH   1   4
ATOM      4  C   UNL     1       9.648   1.764  22.844  0.00  0.00    +0.174 C 
BRANCH   4   6
ATOM      5  C   UNL     1       9.454  -0.603  23.773  0.00  0.00    +0.040 C 
ATOM      6  C   UNL     1      10.404   0.508  23.329  0.00  0.00    +0.142 C 
BRANCH   6   7
ATOM      7  O   UNL     1      11.259   0.845  24.422  0.00  0.00    -0.389 OA
ATOM      8  H   UNL     1      11.486   0.018  24.882  0.00  0.00    +0.210 HD
ENDBRANCH   6   7
ENDBRANCH   4   6
BRANCH   4   9
ATOM      9  O   UNL     1       9.923   1.958  21.451  0.00  0.00    -0.387 OA
ATOM     10  H   UNL     1       9.057   1.872  20.994  0.00  0.00    +0.210 HD
ENDBRANCH   4   9
ENDBRANCH   1   4
BRANCH   1  11
ATOM     11  C   UNL     1       8.853   4.057  23.673  0.00  0.00    +0.171 C 
BRANCH  11  12
ATOM     12  O   UNL     1       8.225   4.119  22.378  0.00  0.00    -0.387 OA
ATOM     13  H   UNL     1       7.289   3.867  22.509  0.00  0.00    +0.210 HD
ENDBRANCH  11  12
BRANCH  11  14
ATOM     14  C   UNL     1       9.326   5.461  24.087  0.00  0.00    +0.189 C 
BRANCH  14  15
ATOM     15  O   UNL     1       9.754   6.207  22.949  0.00  0.00    -0.392 OA
ATOM     16  H   UNL     1      10.690   5.946  22.790  0.00  0.00    +0.210 HD
ENDBRANCH  14  15
ENDBRANCH  11  14
ENDBRANCH   1  11
TORSDOF 9
ENDMDL
MODEL 6
REMARK VINA RESULT:      -3.8      1.723      3.686
REMARK  Name = 
REMARK  10 active torsions:
REMARK  status: ('A' for Active; 'I' for Inactive)
REMARK    1  A    between atoms: C_1  and  C_2
REMARK    2  A    between atoms: C_2  and  O_4
REMARK    3  A    between atoms: C_2  and  C_5
REMARK    4  A    between atoms: C_5  and  O_7
REMARK    5  A    between atoms: C_5  and  C_8
REMARK    6  A    between atoms: C_8  and  O_10
REMARK    7  A    between atoms: C_8  and  C_11
REMARK    8  A    between atoms: C_11  and  O_13
REMARK    9  A    between atoms: C_11  and  C_14
REMARK   10  A    between atoms: C_14  and  O_15
REMARK                            x       y       z     vdW  Elec       q    Type
REMARK                         _______ _______ _______ _____ _____    ______ ____
ROOT
ATOM      1  C   UNL     1      10.055   0.554  23.937  0.00  0.00    +0.176 C 
ENDROOT
BRANCH   1   2
ATOM      2  O   UNL     1      10.642   0.487  25.251  0.00  0.00    -0.387 OA
ATOM      3  H   UNL     1       9.921   0.347  25.889  0.00  0.00    +0.210 HD
ENDBRANCH   1   2
BRANCH   1   4
ATOM      4  C   UNL     1       8.967   1.660  23.848  0.00  0.00    +0.174 C 
BRANCH   4   6
ATOM      5  C   UNL     1       7.759   1.980  21.625  0.00  0.00    +0.040 C 
ATOM      6  C   UNL     1       8.957   2.381  22.483  0.00  0.00    +0.142 C 
BRANCH   6   7
ATOM      7  O   UNL     1      10.156   2.083  21.766  0.00  0.00    -0.389 OA
ATOM      8  H   UNL     1      10.090   2.512  20.895  0.00  0.00    +0.210 HD
ENDBRANCH   6   7
ENDBRANCH   4   6
BRANCH   4   9
ATOM      9  O   UNL     1       9.162   2.634  24.882  0.00  0.00    -0.387 OA
ATOM     10  H   UNL     1       9.963   2.344  25.374  0.00  0.00    +0.210 HD
ENDBRANCH   4   9
ENDBRANCH   1   4
BRANCH   1  11
ATOM     11  C   UNL     1       9.473  -0.840  23.586  0.00  0.00    +0.171 C 
BRANCH  11  12
ATOM     12  O   UNL     1       9.530  -1.704  24.737  0.00  0.00    -0.387 OA
ATOM     13  H   UNL     1       9.430  -1.130  25.523  0.00  0.00    +0.210 HD
ENDBRANCH  11  12
BRANCH  11  14
ATOM     14  C   UNL     1      10.222  -1.491  22.411  0.00  0.00    +0.189 C 
BRANCH  14  15
ATOM     15  O   UNL     1       9.874  -0.863  21.178  0.00  0.00    -0.392 OA
ATOM     16  H   UNL     1      10.658  -0.968  20.590  0.00  0.00    +0.210 HD
ENDBRANCH  14  15
ENDBRANCH  11  14
ENDBRANCH   1  11
TORSDOF 9
ENDMDL
MODEL 7
REMARK VINA RESULT:      -3.8      2.257      5.093
REMARK  Name = 
REMARK  10 active torsions:
REMARK  status: ('A' for Active; 'I' for Inactive)
REMARK    1  A    between atoms: C_1  and  C_2
REMARK    2  A    between atoms: C_2  and  O_4
REMARK    3  A    between atoms: C_2  and  C_5
REMARK    4  A    between atoms: C_5  and  O_7
REMARK    5  A    between atoms: C_5  and  C_8
REMARK    6  A    between atoms: C_8  and  O_10
REMARK    7  A    between atoms: C_8  and  C_11
REMARK    8  A    between atoms: C_11  and  O_13
REMARK    9  A    between atoms: C_11  and  C_14
REMARK   10  A    between atoms: C_14  and  O_15
REMARK                            x       y       z     vdW  Elec       q    Type
REMARK                         _______ _______ _______ _____ _____    ______ ____
ROOT
ATOM      1  C   UNL     1       9.641  -2.399  23.582  0.00  0.00    +0.176 C 
ENDROOT
BRANCH   1   2
ATOM      2  O   UNL     1       9.246  -1.855  24.857  0.00  0.00    -0.387 OA
ATOM      3  H   UNL     1       9.082  -2.602  25.458  0.00  0.00    +0.210 HD
ENDBRANCH   1   2
BRANCH   1   4
ATOM      4  C   UNL     1      10.318  -1.326  22.684  0.00  0.00    +0.174 C 
BRANCH   4   6
ATOM      5  C   UNL     1       9.949   1.086  21.945  0.00  0.00    +0.040 C 
ATOM      6  C   UNL     1       9.990   0.117  23.124  0.00  0.00    +0.142 C 
BRANCH   6   7
ATOM      7  O   UNL     1      10.965   0.575  24.061  0.00  0.00    -0.389 OA
ATOM      8  H   UNL     1      10.541   0.602  24.936  0.00  0.00    +0.210 HD
ENDBRANCH   6   7
ENDBRANCH   4   6
BRANCH   4   9
ATOM      9  O   UNL     1       9.915  -1.495  21.319  0.00  0.00    -0.387 OA
ATOM     10  H   UNL     1      10.741  -1.440  20.788  0.00  0.00    +0.210 HD
ENDBRANCH   4   9
ENDBRANCH   1   4
BRANCH   1  11
ATOM     11  C   UNL     1       8.388  -3.002  22.895  0.00  0.00    +0.171 C 
BRANCH  11  12
ATOM     12  O   UNL     1       7.316  -2.039  22.887  0.00  0.00    -0.387 OA
ATOM     13  H   UNL     1       7.523  -1.396  22.179  0.00  0.00    +0.210 HD
ENDBRANCH  11  12
BRANCH  11  14
ATOM     14  C   UNL     1       7.921  -4.292  23.590  0.00  0.00    +0.189 C 
BRANCH  14  15
ATOM     15  O   UNL     1       8.997  -4.899  24.304  0.00  0.00    -0.392 OA
ATOM     16  H   UNL     1       9.493  -5.435  23.642  0.00  0.00    +0.210 HD
ENDBRANCH  14  15
ENDBRANCH  11  14
ENDBRANCH   1  11
TORSDOF 9
ENDMDL
MODEL 8
REMARK VINA RESULT:      -3.8      3.011      4.447
REMARK  Name = 
REMARK  10 active torsions:
REMARK  status: ('A' for Active; 'I' for Inactive)
REMARK    1  A    between atoms: C_1  and  C_2
REMARK    2  A    between atoms: C_2  and  O_4
REMARK    3  A    between atoms: C_2  and  C_5
REMARK    4  A    between atoms: C_5  and  O_7
REMARK    5  A    between atoms: C_5  and  C_8
REMARK    6  A    between atoms: C_8  and  O_10
REMARK    7  A    between atoms: C_8  and  C_11
REMARK    8  A    between atoms: C_11  and  O_13
REMARK    9  A    between atoms: C_11  and  C_14
REMARK   10  A    between atoms: C_14  and  O_15
REMARK                            x       y       z     vdW  Elec       q    Type
REMARK                         _______ _______ _______ _____ _____    ______ ____
ROOT
ATOM      1  C   UNL     1       9.006  -2.481  24.222  0.00  0.00    +0.176 C 
ENDROOT
BRANCH   1   2
ATOM      2  O   UNL     1      10.257  -3.109  23.884  0.00  0.00    -0.387 OA
ATOM      3  H   UNL     1      10.972  -2.555  24.245  0.00  0.00    +0.210 HD
ENDBRANCH   1   2
BRANCH   1   4
ATOM      4  C   UNL     1       7.791  -3.326  23.748  0.00  0.00    +0.174 C 
BRANCH   4   6
ATOM      5  C   UNL     1       7.623  -4.584  25.959  0.00  0.00    +0.040 C 
ATOM      6  C   UNL     1       7.715  -4.704  24.440  0.00  0.00    +0.142 C 
BRANCH   6   7
ATOM      7  O   UNL     1       8.868  -5.480  24.110  0.00  0.00    -0.389 OA
ATOM      8  H   UNL     1       8.573  -6.223  23.557  0.00  0.00    +0.210 HD
ENDBRANCH   6   7
ENDBRANCH   4   6
BRANCH   4   9
ATOM      9  O   UNL     1       7.847  -3.525  22.330  0.00  0.00    -0.387 OA
ATOM     10  H   UNL     1       8.146  -2.668  21.952  0.00  0.00    +0.210 HD
ENDBRANCH   4   9
ENDBRANCH   1   4
BRANCH   1  11
ATOM     11  C   UNL     1       8.983  -1.060  23.600  0.00  0.00    +0.171 C 
BRANCH  11  12
ATOM     12  O   UNL     1       7.734  -0.839  22.917  0.00  0.00    -0.387 OA
ATOM     13  H   UNL     1       7.264  -0.140  23.414  0.00  0.00    +0.210 HD
ENDBRANCH  11  12
BRANCH  11  14
ATOM     14  C   UNL     1      10.153  -0.847  22.624  0.00  0.00    +0.189 C 
BRANCH  14  15
ATOM     15  O   UNL     1       9.965  -1.611  21.434  0.00  0.00    -0.392 OA
ATOM     16  H   UNL     1       9.018  -1.495  21.184  0.00  0.00    +0.210 HD
ENDBRANCH  14  15
ENDBRANCH  11  14
ENDBRANCH   1  11
TORSDOF 9
ENDMDL
MODEL 9
REMARK VINA RESULT:      -3.8      1.772      3.645
REMARK  Name = 
REMARK  10 active torsions:
REMARK  status: ('A' for Active; 'I' for Inactive)
REMARK    1  A    between atoms: C_1  and  C_2
REMARK    2  A    between atoms: C_2  and  O_4
REMARK    3  A    between atoms: C_2  and  C_5
REMARK    4  A    between atoms: C_5  and  O_7
REMARK    5  A    between atoms: C_5  and  C_8
REMARK    6  A    between atoms: C_8  and  O_10
REMARK    7  A    between atoms: C_8  and  C_11
REMARK    8  A    between atoms: C_11  and  O_13
REMARK    9  A    between atoms: C_11  and  C_14
REMARK   10  A    between atoms: C_14  and  O_15
REMARK                            x       y       z     vdW  Elec       q    Type
REMARK                         _______ _______ _______ _____ _____    ______ ____
ROOT
ATOM      1  C   UNL     1       9.127  -0.074  22.173  0.00  0.00    +0.176 C 
ENDROOT
BRANCH   1   2
ATOM      2  O   UNL     1       9.376  -0.499  20.818  0.00  0.00    -0.387 OA
ATOM      3  H   UNL     1      10.316  -0.746  20.755  0.00  0.00    +0.210 HD
ENDBRANCH   1   2
BRANCH   1   4
ATOM      4  C   UNL     1       8.956   1.468  22.270  0.00  0.00    +0.174 C 
BRANCH   4   6
ATOM      5  C   UNL     1       7.300   3.404  22.161  0.00  0.00    +0.040 C 
ATOM      6  C   UNL     1       7.569   1.947  21.791  0.00  0.00    +0.142 C 
BRANCH   6   7
ATOM      7  O   UNL     1       6.546   1.131  22.366  0.00  0.00    -0.389 OA
ATOM      8  H   UNL     1       6.977   0.507  22.975  0.00  0.00    +0.210 HD
ENDBRANCH   6   7
ENDBRANCH   4   6
BRANCH   4   9
ATOM      9  O   UNL     1       9.965   2.130  21.496  0.00  0.00    -0.387 OA
ATOM     10  H   UNL     1       9.959   3.066  21.795  0.00  0.00    +0.210 HD
ENDBRANCH   4   9
ENDBRANCH   1   4
BRANCH   1  11
ATOM     11  C   UNL     1      10.292  -0.571  23.067  0.00  0.00    +0.171 C 
BRANCH  11  12
ATOM     12  O   UNL     1      10.697  -1.893  22.663  0.00  0.00    -0.387 OA
ATOM     13  H   UNL     1       9.903  -2.461  22.731  0.00  0.00    +0.210 HD
ENDBRANCH  11  12
BRANCH  11  14
ATOM     14  C   UNL     1       9.905  -0.579  24.556  0.00  0.00    +0.189 C 
BRANCH  14  15
ATOM     15  O   UNL     1      10.591   0.453  25.263  0.00  0.00    -0.392 OA
ATOM     16  H   UNL     1      11.094   0.002  25.980  0.00  0.00    +0.210 HD
ENDBRANCH  14  15
ENDBRANCH  11  14
ENDBRANCH   1  11
TORSDOF 9
ENDMDL
