MODEL 1
REMARK VINA RESULT:      -6.4      0.000      0.000
REMARK  Name = 
REMARK  8 active torsions:
REMARK  status: ('A' for Active; 'I' for Inactive)
REMARK    1  A    between atoms: C_1  and  C_2
REMARK    2  A    between atoms: C_2  and  C_4
REMARK    3  A    between atoms: C_2  and  O_15
REMARK    4  A    between atoms: C_4  and  N_5
REMARK    5  A    between atoms: O_15  and  C_16
REMARK    6  A    between atoms: C_16  and  P_17
REMARK    7  A    between atoms: P_17  and  O_18
REMARK    8  A    between atoms: P_17  and  O_19
REMARK                            x       y       z     vdW  Elec       q    Type
REMARK                         _______ _______ _______ _____ _____    ______ ____
ROOT
ATOM      1  N   UNL     1       9.503  -2.009  23.321  0.00  0.00    -0.312 N 
ATOM      2  C   UNL     1       9.803  -0.718  23.680  0.00  0.00    +0.165 A 
ATOM      3  N   UNL     1      10.192  -0.261  24.891  0.00  0.00    -0.216 NA
ATOM      4  C   UNL     1      10.437   1.059  24.840  0.00  0.00    +0.225 A 
ATOM      5  N   UNL     1      10.361   1.896  23.778  0.00  0.00    -0.219 NA
ATOM      6  C   UNL     1      10.002   1.384  22.587  0.00  0.00    +0.147 A 
ATOM      7  N   UNL     1       9.965   2.220  21.482  0.00  0.00    -0.341 N 
ATOM      8  H   UNL     1       9.408   1.872  20.716  0.00  0.00    +0.144 HD
ATOM      9  H   UNL     1       9.878   3.193  21.737  0.00  0.00    +0.144 HD
ATOM     10  C   UNL     1       9.668   0.019  22.513  0.00  0.00    +0.147 A 
ATOM     11  N   UNL     1       9.224  -0.780  21.486  0.00  0.00    -0.231 NA
ATOM     12  C   UNL     1       9.118  -1.979  22.014  0.00  0.00    +0.201 A 
ENDROOT
BRANCH   1  13
ATOM     13  C   UNL     1       9.728  -3.154  24.184  0.00  0.00    +0.156 C 
BRANCH  13  15
ATOM     14  C   UNL     1       7.274  -3.285  24.785  0.00  0.00    +0.040 C 
ATOM     15  C   UNL     1       8.538  -4.087  24.484  0.00  0.00    +0.136 C 
BRANCH  15  16
ATOM     16  O   UNL     1       8.232  -5.052  23.449  0.00  0.00    -0.363 OA
BRANCH  16  17
ATOM     17  C   UNL     1       6.817  -5.222  23.292  0.00  0.00    +0.286 C 
BRANCH  17  18
ATOM     18  P   UNL     1       6.347  -5.471  21.542  0.00  0.00    +0.353 P 
ATOM     19  O   UNL     1       5.949  -5.683  20.060  0.00  0.00    -0.256 OA
BRANCH  18  20
ATOM     20  O   UNL     1       5.608  -4.001  21.652  0.00  0.00    -0.323 OA
ATOM     21  H   UNL     1       6.203  -3.278  21.372  0.00  0.00    +0.220 HD
ENDBRANCH  18  20
BRANCH  18  22
ATOM     22  O   UNL     1       5.096  -6.388  22.089  0.00  0.00    -0.323 OA
ATOM     23  H   UNL     1       4.934  -6.109  23.015  0.00  0.00    +0.220 HD
ENDBRANCH  18  22
ENDBRANCH  17  18
ENDBRANCH  16  17
ENDBRANCH  15  16
ENDBRANCH  13  15
ENDBRANCH   1  13
TORSDOF 7
ENDMDL
MODEL 2
REMARK VINA RESULT:      -6.1      2.518      3.208
REMARK  Name = 
REMARK  8 active torsions:
REMARK  status: ('A' for Active; 'I' for Inactive)
REMARK    1  A    between atoms: C_1  and  C_2
REMARK    2  A    between atoms: C_2  and  C_4
REMARK    3  A    between atoms: C_2  and  O_15
REMARK    4  A    between atoms: C_4  and  N_5
REMARK    5  A    between atoms: O_15  and  C_16
REMARK    6  A    between atoms: C_16  and  P_17
REMARK    7  A    between atoms: P_17  and  O_18
REMARK    8  A    between atoms: P_17  and  O_19
REMARK                            x       y       z     vdW  Elec       q    Type
REMARK                         _______ _______ _______ _____ _____    ______ ____
ROOT
ATOM      1  N   UNL     1       9.298  -2.014  23.282  0.00  0.00    -0.312 N 
ATOM      2  C   UNL     1       9.677  -0.758  23.687  0.00  0.00    +0.165 A 
ATOM      3  N   UNL     1      10.028  -0.356  24.928  0.00  0.00    -0.216 NA
ATOM      4  C   UNL     1      10.380   0.942  24.922  0.00  0.00    +0.225 A 
ATOM      5  N   UNL     1      10.433   1.801  23.876  0.00  0.00    -0.219 NA
ATOM      6  C   UNL     1      10.107   1.340  22.655  0.00  0.00    +0.147 A 
ATOM      7  N   UNL     1      10.202   2.196  21.569  0.00  0.00    -0.341 N 
ATOM      8  H   UNL     1       9.666   1.907  20.764  0.00  0.00    +0.144 HD
ATOM      9  H   UNL     1      10.178   3.168  21.839  0.00  0.00    +0.144 HD
ATOM     10  C   UNL     1       9.671   0.008  22.530  0.00  0.00    +0.147 A 
ATOM     11  N   UNL     1       9.228  -0.735  21.462  0.00  0.00    -0.231 NA
ATOM     12  C   UNL     1       8.995  -1.930  21.956  0.00  0.00    +0.201 A 
ENDROOT
BRANCH   1  13
ATOM     13  C   UNL     1       9.380  -3.189  24.131  0.00  0.00    +0.156 C 
BRANCH  13  15
ATOM     14  C   UNL     1       6.859  -3.074  24.311  0.00  0.00    +0.040 C 
ATOM     15  C   UNL     1       8.143  -3.572  24.968  0.00  0.00    +0.136 C 
BRANCH  15  16
ATOM     16  O   UNL     1       7.997  -4.986  25.244  0.00  0.00    -0.363 OA
BRANCH  16  17
ATOM     17  C   UNL     1       6.654  -5.308  25.630  0.00  0.00    +0.286 C 
BRANCH  17  18
ATOM     18  P   UNL     1       6.461  -5.371  27.448  0.00  0.00    +0.353 P 
ATOM     19  O   UNL     1       6.297  -5.424  28.988  0.00  0.00    -0.256 OA
BRANCH  18  20
ATOM     20  O   UNL     1       8.001  -5.958  27.475  0.00  0.00    -0.323 OA
ATOM     21  H   UNL     1       8.661  -5.240  27.411  0.00  0.00    +0.220 HD
ENDBRANCH  18  20
BRANCH  18  22
ATOM     22  O   UNL     1       5.681  -6.804  27.238  0.00  0.00    -0.323 OA
ATOM     23  H   UNL     1       4.723  -6.597  27.225  0.00  0.00    +0.220 HD
ENDBRANCH  18  22
ENDBRANCH  17  18
ENDBRANCH  16  17
ENDBRANCH  15  16
ENDBRANCH  13  15
ENDBRANCH   1  13
TORSDOF 7
ENDMDL
MODEL 3
REMARK VINA RESULT:      -5.9      4.439      6.481
REMARK  Name = 
REMARK  8 active torsions:
REMARK  status: ('A' for Active; 'I' for Inactive)
REMARK    1  A    between atoms: C_1  and  C_2
REMARK    2  A    between atoms: C_2  and  C_4
REMARK    3  A    between atoms: C_2  and  O_15
REMARK    4  A    between atoms: C_4  and  N_5
REMARK    5  A    between atoms: O_15  and  C_16
REMARK    6  A    between atoms: C_16  and  P_17
REMARK    7  A    between atoms: P_17  and  O_18
REMARK    8  A    between atoms: P_17  and  O_19
REMARK                            x       y       z     vdW  Elec       q    Type
REMARK                         _______ _______ _______ _____ _____    ______ ____
ROOT
ATOM      1  N   UNL     1       8.571  -3.587  23.865  0.00  0.00    -0.312 N 
ATOM      2  C   UNL     1       8.114  -4.341  24.917  0.00  0.00    +0.165 A 
ATOM      3  N   UNL     1       8.689  -4.511  26.128  0.00  0.00    -0.216 NA
ATOM      4  C   UNL     1       7.919  -5.288  26.910  0.00  0.00    +0.225 A 
ATOM      5  N   UNL     1       6.717  -5.848  26.630  0.00  0.00    -0.219 NA
ATOM      6  C   UNL     1       6.173  -5.619  25.421  0.00  0.00    +0.147 A 
ATOM      7  N   UNL     1       4.923  -6.147  25.139  0.00  0.00    -0.341 N 
ATOM      8  H   UNL     1       4.713  -6.210  24.154  0.00  0.00    +0.144 HD
ATOM      9  H   UNL     1       4.691  -6.929  25.732  0.00  0.00    +0.144 HD
ATOM     10  C   UNL     1       6.902  -4.860  24.486  0.00  0.00    +0.147 A 
ATOM     11  N   UNL     1       6.657  -4.498  23.183  0.00  0.00    -0.231 NA
ATOM     12  C   UNL     1       7.687  -3.756  22.841  0.00  0.00    +0.201 A 
ENDROOT
BRANCH   1  13
ATOM     13  C   UNL     1       9.705  -2.685  23.957  0.00  0.00    +0.156 C 
BRANCH  13  15
ATOM     14  C   UNL     1       9.245  -0.659  25.401  0.00  0.00    +0.040 C 
ATOM     15  C   UNL     1       9.431  -1.167  23.973  0.00  0.00    +0.136 C 
BRANCH  15  16
ATOM     16  O   UNL     1      10.435  -0.351  23.323  0.00  0.00    -0.363 OA
BRANCH  16  17
ATOM     17  C   UNL     1       9.981   0.122  22.048  0.00  0.00    +0.286 C 
BRANCH  17  18
ATOM     18  P   UNL     1       9.054   1.693  22.193  0.00  0.00    +0.353 P 
ATOM     19  O   UNL     1       8.269   3.023  22.315  0.00  0.00    -0.256 OA
BRANCH  18  20
ATOM     20  O   UNL     1       8.449   1.338  20.700  0.00  0.00    -0.323 OA
ATOM     21  H   UNL     1       9.146   1.360  20.015  0.00  0.00    +0.220 HD
ENDBRANCH  18  20
BRANCH  18  22
ATOM     22  O   UNL     1      10.424   2.456  21.699  0.00  0.00    -0.323 OA
ATOM     23  H   UNL     1      10.136   3.288  21.267  0.00  0.00    +0.220 HD
ENDBRANCH  18  22
ENDBRANCH  17  18
ENDBRANCH  16  17
ENDBRANCH  15  16
ENDBRANCH  13  15
ENDBRANCH   1  13
TORSDOF 7
ENDMDL
MODEL 4
REMARK VINA RESULT:      -5.9      1.581      1.912
REMARK  Name = 
REMARK  8 active torsions:
REMARK  status: ('A' for Active; 'I' for Inactive)
REMARK    1  A    between atoms: C_1  and  C_2
REMARK    2  A    between atoms: C_2  and  C_4
REMARK    3  A    between atoms: C_2  and  O_15
REMARK    4  A    between atoms: C_4  and  N_5
REMARK    5  A    between atoms: O_15  and  C_16
REMARK    6  A    between atoms: C_16  and  P_17
REMARK    7  A    between atoms: P_17  and  O_18
REMARK    8  A    between atoms: P_17  and  O_19
REMARK                            x       y       z     vdW  Elec       q    Type
REMARK                         _______ _______ _______ _____ _____    ______ ____
ROOT
ATOM      1  N   UNL     1       8.974  -1.965  23.751  0.00  0.00    -0.312 N 
ATOM      2  C   UNL     1       8.293  -0.854  23.320  0.00  0.00    +0.165 A 
ATOM      3  N   UNL     1       7.010  -0.515  23.573  0.00  0.00    -0.216 NA
ATOM      4  C   UNL     1       6.716   0.671  23.013  0.00  0.00    +0.225 A 
ATOM      5  N   UNL     1       7.521   1.496  22.301  0.00  0.00    -0.219 NA
ATOM      6  C   UNL     1       8.800   1.127  22.106  0.00  0.00    +0.147 A 
ATOM      7  N   UNL     1       9.646   1.983  21.419  0.00  0.00    -0.341 N 
ATOM      8  H   UNL     1      10.469   1.538  21.041  0.00  0.00    +0.144 HD
ATOM      9  H   UNL     1       9.145   2.639  20.838  0.00  0.00    +0.144 HD
ATOM     10  C   UNL     1       9.225  -0.120  22.599  0.00  0.00    +0.147 A 
ATOM     11  N   UNL     1      10.420  -0.797  22.526  0.00  0.00    -0.231 NA
ATOM     12  C   UNL     1      10.223  -1.903  23.208  0.00  0.00    +0.201 A 
ENDROOT
BRANCH   1  13
ATOM     13  C   UNL     1       8.445  -2.902  24.726  0.00  0.00    +0.156 C 
BRANCH  13  15
ATOM     14  C   UNL     1       9.604  -5.043  25.412  0.00  0.00    +0.040 C 
ATOM     15  C   UNL     1       8.603  -4.411  24.449  0.00  0.00    +0.136 C 
BRANCH  15  16
ATOM     16  O   UNL     1       7.377  -5.180  24.492  0.00  0.00    -0.363 OA
BRANCH  16  17
ATOM     17  C   UNL     1       6.278  -4.444  23.939  0.00  0.00    +0.286 C 
BRANCH  17  18
ATOM     18  P   UNL     1       6.068  -4.769  22.151  0.00  0.00    +0.353 P 
ATOM     19  O   UNL     1       5.890  -5.044  20.637  0.00  0.00    -0.256 OA
BRANCH  18  20
ATOM     20  O   UNL     1       6.095  -3.130  21.969  0.00  0.00    -0.323 OA
ATOM     21  H   UNL     1       5.283  -2.716  22.321  0.00  0.00    +0.220 HD
ENDBRANCH  18  20
BRANCH  18  22
ATOM     22  O   UNL     1       4.458  -4.931  22.449  0.00  0.00    -0.323 OA
ATOM     23  H   UNL     1       3.997  -4.657  21.628  0.00  0.00    +0.220 HD
ENDBRANCH  18  22
ENDBRANCH  17  18
ENDBRANCH  16  17
ENDBRANCH  15  16
ENDBRANCH  13  15
ENDBRANCH   1  13
TORSDOF 7
ENDMDL
MODEL 5
REMARK VINA RESULT:      -5.9      1.006      1.533
REMARK  Name = 
REMARK  8 active torsions:
REMARK  status: ('A' for Active; 'I' for Inactive)
REMARK    1  A    between atoms: C_1  and  C_2
REMARK    2  A    between atoms: C_2  and  C_4
REMARK    3  A    between atoms: C_2  and  O_15
REMARK    4  A    between atoms: C_4  and  N_5
REMARK    5  A    between atoms: O_15  and  C_16
REMARK    6  A    between atoms: C_16  and  P_17
REMARK    7  A    between atoms: P_17  and  O_18
REMARK    8  A    between atoms: P_17  and  O_19
REMARK                            x       y       z     vdW  Elec       q    Type
REMARK                         _______ _______ _______ _____ _____    ______ ____
ROOT
ATOM      1  N   UNL     1       8.839  -1.671  23.611  0.00  0.00    -0.312 N 
ATOM      2  C   UNL     1       8.976  -0.326  23.847  0.00  0.00    +0.165 A 
ATOM      3  N   UNL     1       8.790   0.337  25.010  0.00  0.00    -0.216 NA
ATOM      4  C   UNL     1       9.062   1.644  24.856  0.00  0.00    +0.225 A 
ATOM      5  N   UNL     1       9.491   2.297  23.749  0.00  0.00    -0.219 NA
ATOM      6  C   UNL     1       9.695   1.584  22.627  0.00  0.00    +0.147 A 
ATOM      7  N   UNL     1      10.177   2.232  21.501  0.00  0.00    -0.341 N 
ATOM      8  H   UNL     1      10.016   1.737  20.636  0.00  0.00    +0.144 HD
ATOM      9  H   UNL     1      10.008   3.226  21.524  0.00  0.00    +0.144 HD
ATOM     10  C   UNL     1       9.397   0.208  22.638  0.00  0.00    +0.147 A 
ATOM     11  N   UNL     1       9.444  -0.766  21.669  0.00  0.00    -0.231 NA
ATOM     12  C   UNL     1       9.083  -1.870  22.285  0.00  0.00    +0.201 A 
ENDROOT
BRANCH   1  13
ATOM     13  C   UNL     1       8.625  -2.652  24.660  0.00  0.00    +0.156 C 
BRANCH  13  15
ATOM     14  C   UNL     1       9.727  -4.845  25.278  0.00  0.00    +0.040 C 
ATOM     15  C   UNL     1       8.780  -4.145  24.305  0.00  0.00    +0.136 C 
BRANCH  15  16
ATOM     16  O   UNL     1       7.545  -4.899  24.247  0.00  0.00    -0.363 OA
BRANCH  16  17
ATOM     17  C   UNL     1       7.147  -5.147  22.892  0.00  0.00    +0.286 C 
BRANCH  17  18
ATOM     18  P   UNL     1       5.338  -5.366  22.739  0.00  0.00    +0.353 P 
ATOM     19  O   UNL     1       3.805  -5.550  22.610  0.00  0.00    -0.256 OA
BRANCH  18  20
ATOM     20  O   UNL     1       5.683  -6.391  21.495  0.00  0.00    -0.323 OA
ATOM     21  H   UNL     1       6.113  -5.923  20.753  0.00  0.00    +0.220 HD
ENDBRANCH  18  20
BRANCH  18  22
ATOM     22  O   UNL     1       5.320  -3.967  21.874  0.00  0.00    -0.323 OA
ATOM     23  H   UNL     1       5.721  -3.282  22.450  0.00  0.00    +0.220 HD
ENDBRANCH  18  22
ENDBRANCH  17  18
ENDBRANCH  16  17
ENDBRANCH  15  16
ENDBRANCH  13  15
ENDBRANCH   1  13
TORSDOF 7
ENDMDL
MODEL 6
REMARK VINA RESULT:      -5.9      2.593      3.618
REMARK  Name = 
REMARK  8 active torsions:
REMARK  status: ('A' for Active; 'I' for Inactive)
REMARK    1  A    between atoms: C_1  and  C_2
REMARK    2  A    between atoms: C_2  and  C_4
REMARK    3  A    between atoms: C_2  and  O_15
REMARK    4  A    between atoms: C_4  and  N_5
REMARK    5  A    between atoms: O_15  and  C_16
REMARK    6  A    between atoms: C_16  and  P_17
REMARK    7  A    between atoms: P_17  and  O_18
REMARK    8  A    between atoms: P_17  and  O_19
REMARK                            x       y       z     vdW  Elec       q    Type
REMARK                         _______ _______ _______ _____ _____    ______ ____
ROOT
ATOM      1  N   UNL     1       8.101  -2.245  22.787  0.00  0.00    -0.312 N 
ATOM      2  C   UNL     1       8.119  -1.457  23.911  0.00  0.00    +0.165 A 
ATOM      3  N   UNL     1       7.233  -1.446  24.931  0.00  0.00    -0.216 NA
ATOM      4  C   UNL     1       7.612  -0.566  25.875  0.00  0.00    +0.225 A 
ATOM      5  N   UNL     1       8.713   0.222  25.906  0.00  0.00    -0.219 NA
ATOM      6  C   UNL     1       9.581   0.147  24.881  0.00  0.00    +0.147 A 
ATOM      7  N   UNL     1      10.735   0.914  24.923  0.00  0.00    -0.341 N 
ATOM      8  H   UNL     1      11.173   1.054  24.024  0.00  0.00    +0.144 HD
ATOM      9  H   UNL     1      10.652   1.704  25.546  0.00  0.00    +0.144 HD
ATOM     10  C   UNL     1       9.277  -0.701  23.800  0.00  0.00    +0.147 A 
ATOM     11  N   UNL     1       9.910  -0.961  22.608  0.00  0.00    -0.231 NA
ATOM     12  C   UNL     1       9.166  -1.872  22.022  0.00  0.00    +0.201 A 
ENDROOT
BRANCH   1  13
ATOM     13  C   UNL     1       7.178  -3.349  22.595  0.00  0.00    +0.156 C 
BRANCH  13  15
ATOM     14  C   UNL     1       7.390  -5.851  22.286  0.00  0.00    +0.040 C 
ATOM     15  C   UNL     1       7.498  -4.695  23.277  0.00  0.00    +0.136 C 
BRANCH  15  16
ATOM     16  O   UNL     1       8.791  -4.767  23.925  0.00  0.00    -0.363 OA
BRANCH  16  17
ATOM     17  C   UNL     1       8.723  -5.514  25.147  0.00  0.00    +0.286 C 
BRANCH  17  18
ATOM     18  P   UNL     1       7.561  -4.761  26.344  0.00  0.00    +0.353 P 
ATOM     19  O   UNL     1       6.577  -4.125  27.357  0.00  0.00    -0.256 OA
BRANCH  18  20
ATOM     20  O   UNL     1       8.757  -3.665  26.639  0.00  0.00    -0.323 OA
ATOM     21  H   UNL     1       9.486  -3.746  25.993  0.00  0.00    +0.220 HD
ENDBRANCH  18  20
BRANCH  18  22
ATOM     22  O   UNL     1       8.045  -5.910  27.417  0.00  0.00    -0.323 OA
ATOM     23  H   UNL     1       8.477  -5.431  28.156  0.00  0.00    +0.220 HD
ENDBRANCH  18  22
ENDBRANCH  17  18
ENDBRANCH  16  17
ENDBRANCH  15  16
ENDBRANCH  13  15
ENDBRANCH   1  13
TORSDOF 7
ENDMDL
MODEL 7
REMARK VINA RESULT:      -5.7      4.097      6.048
REMARK  Name = 
REMARK  8 active torsions:
REMARK  status: ('A' for Active; 'I' for Inactive)
REMARK    1  A    between atoms: C_1  and  C_2
REMARK    2  A    between atoms: C_2  and  C_4
REMARK    3  A    between atoms: C_2  and  O_15
REMARK    4  A    between atoms: C_4  and  N_5
REMARK    5  A    between atoms: O_15  and  C_16
REMARK    6  A    between atoms: C_16  and  P_17
REMARK    7  A    between atoms: P_17  and  O_18
REMARK    8  A    between atoms: P_17  and  O_19
REMARK                            x       y       z     vdW  Elec       q    Type
REMARK                         _______ _______ _______ _____ _____    ______ ____
ROOT
ATOM      1  N   UNL     1       8.336  -3.123  24.474  0.00  0.00    -0.312 N 
ATOM      2  C   UNL     1       7.314  -3.345  23.585  0.00  0.00    +0.165 A 
ATOM      3  N   UNL     1       6.418  -2.451  23.110  0.00  0.00    -0.216 NA
ATOM      4  C   UNL     1       5.595  -3.036  22.222  0.00  0.00    +0.225 A 
ATOM      5  N   UNL     1       5.595  -4.316  21.781  0.00  0.00    -0.219 NA
ATOM      6  C   UNL     1       6.529  -5.157  22.260  0.00  0.00    +0.147 A 
ATOM      7  N   UNL     1       6.569  -6.457  21.783  0.00  0.00    -0.341 N 
ATOM      8  H   UNL     1       7.062  -7.104  22.381  0.00  0.00    +0.144 HD
ATOM      9  H   UNL     1       5.691  -6.748  21.380  0.00  0.00    +0.144 HD
ATOM     10  C   UNL     1       7.425  -4.683  23.238  0.00  0.00    +0.147 A 
ATOM     11  N   UNL     1       8.436  -5.284  23.949  0.00  0.00    -0.231 NA
ATOM     12  C   UNL     1       8.942  -4.325  24.691  0.00  0.00    +0.201 A 
ENDROOT
BRANCH   1  13
ATOM     13  C   UNL     1       8.731  -1.803  24.931  0.00  0.00    +0.156 C 
BRANCH  13  15
ATOM     14  C   UNL     1      10.201  -1.750  22.872  0.00  0.00    +0.040 C 
ATOM     15  C   UNL     1       9.920  -1.114  24.231  0.00  0.00    +0.136 C 
BRANCH  15  16
ATOM     16  O   UNL     1       9.786   0.316  24.048  0.00  0.00    -0.363 OA
BRANCH  16  17
ATOM     17  C   UNL     1       9.732   0.664  22.658  0.00  0.00    +0.286 C 
BRANCH  17  18
ATOM     18  P   UNL     1       8.309   1.749  22.279  0.00  0.00    +0.353 P 
ATOM     19  O   UNL     1       7.104   2.669  21.959  0.00  0.00    -0.256 OA
BRANCH  18  20
ATOM     20  O   UNL     1       7.368   0.435  22.605  0.00  0.00    -0.323 OA
ATOM     21  H   UNL     1       7.188  -0.087  21.799  0.00  0.00    +0.220 HD
ENDBRANCH  18  20
BRANCH  18  22
ATOM     22  O   UNL     1       8.589   1.432  20.690  0.00  0.00    -0.323 OA
ATOM     23  H   UNL     1       9.361   1.978  20.432  0.00  0.00    +0.220 HD
ENDBRANCH  18  22
ENDBRANCH  17  18
ENDBRANCH  16  17
ENDBRANCH  15  16
ENDBRANCH  13  15
ENDBRANCH   1  13
TORSDOF 7
ENDMDL
MODEL 8
REMARK VINA RESULT:      -5.6      2.879      3.872
REMARK  Name = 
REMARK  8 active torsions:
REMARK  status: ('A' for Active; 'I' for Inactive)
REMARK    1  A    between atoms: C_1  and  C_2
REMARK    2  A    between atoms: C_2  and  C_4
REMARK    3  A    between atoms: C_2  and  O_15
REMARK    4  A    between atoms: C_4  and  N_5
REMARK    5  A    between atoms: O_15  and  C_16
REMARK    6  A    between atoms: C_16  and  P_17
REMARK    7  A    between atoms: P_17  and  O_18
REMARK    8  A    between atoms: P_17  and  O_19
REMARK                            x       y       z     vdW  Elec       q    Type
REMARK                         _______ _______ _______ _____ _____    ______ ____
ROOT
ATOM      1  N   UNL     1       7.324   0.033  24.669  0.00  0.00    -0.312 N 
ATOM      2  C   UNL     1       8.090  -0.252  23.567  0.00  0.00    +0.165 A 
ATOM      3  N   UNL     1       8.204  -1.431  22.916  0.00  0.00    -0.216 NA
ATOM      4  C   UNL     1       9.018  -1.306  21.854  0.00  0.00    +0.225 A 
ATOM      5  N   UNL     1       9.658  -0.202  21.400  0.00  0.00    -0.219 NA
ATOM      6  C   UNL     1       9.483   0.955  22.064  0.00  0.00    +0.147 A 
ATOM      7  N   UNL     1      10.095   2.102  21.584  0.00  0.00    -0.341 N 
ATOM      8  H   UNL     1      10.187   2.840  22.266  0.00  0.00    +0.144 HD
ATOM      9  H   UNL     1      10.882   1.899  20.986  0.00  0.00    +0.144 HD
ATOM     10  C   UNL     1       8.693   0.951  23.229  0.00  0.00    +0.147 A 
ATOM     11  N   UNL     1       8.367   1.927  24.140  0.00  0.00    -0.231 NA
ATOM     12  C   UNL     1       7.565   1.334  24.997  0.00  0.00    +0.201 A 
ENDROOT
BRANCH   1  13
ATOM     13  C   UNL     1       6.349  -0.886  25.228  0.00  0.00    +0.156 C 
BRANCH  13  15
ATOM     14  C   UNL     1       5.664  -2.711  26.841  0.00  0.00    +0.040 C 
ATOM     15  C   UNL     1       6.741  -1.690  26.485  0.00  0.00    +0.136 C 
BRANCH  15  16
ATOM     16  O   UNL     1       8.014  -2.375  26.409  0.00  0.00    -0.363 OA
BRANCH  16  17
ATOM     17  C   UNL     1       7.870  -3.778  26.665  0.00  0.00    +0.286 C 
BRANCH  17  18
ATOM     18  P   UNL     1       8.652  -4.796  25.361  0.00  0.00    +0.353 P 
ATOM     19  O   UNL     1       9.314  -5.657  24.256  0.00  0.00    -0.256 OA
BRANCH  18  20
ATOM     20  O   UNL     1       9.787  -5.171  26.497  0.00  0.00    -0.323 OA
ATOM     21  H   UNL     1       9.803  -4.514  27.219  0.00  0.00    +0.220 HD
ENDBRANCH  18  20
BRANCH  18  22
ATOM     22  O   UNL     1       9.345  -3.411  24.805  0.00  0.00    -0.323 OA
ATOM     23  H   UNL     1       9.466  -3.532  23.840  0.00  0.00    +0.220 HD
ENDBRANCH  18  22
ENDBRANCH  17  18
ENDBRANCH  16  17
ENDBRANCH  15  16
ENDBRANCH  13  15
ENDBRANCH   1  13
TORSDOF 7
ENDMDL
MODEL 9
REMARK VINA RESULT:      -5.6      2.491      3.663
REMARK  Name = 
REMARK  8 active torsions:
REMARK  status: ('A' for Active; 'I' for Inactive)
REMARK    1  A    between atoms: C_1  and  C_2
REMARK    2  A    between atoms: C_2  and  C_4
REMARK    3  A    between atoms: C_2  and  O_15
REMARK    4  A    between atoms: C_4  and  N_5
REMARK    5  A    between atoms: O_15  and  C_16
REMARK    6  A    between atoms: C_16  and  P_17
REMARK    7  A    between atoms: P_17  and  O_18
REMARK    8  A    between atoms: P_17  and  O_19
REMARK                            x       y       z     vdW  Elec       q    Type
REMARK                         _______ _______ _______ _____ _____    ______ ____
ROOT
ATOM      1  N   UNL     1       9.285  -1.684  24.361  0.00  0.00    -0.312 N 
ATOM      2  C   UNL     1       9.353  -0.764  23.345  0.00  0.00    +0.165 A 
ATOM      3  N   UNL     1       9.458  -0.998  22.018  0.00  0.00    -0.216 NA
ATOM      4  C   UNL     1       9.452   0.159  21.333  0.00  0.00    +0.225 A 
ATOM      5  N   UNL     1       9.338   1.423  21.805  0.00  0.00    -0.219 NA
ATOM      6  C   UNL     1       9.202   1.600  23.131  0.00  0.00    +0.147 A 
ATOM      7  N   UNL     1       9.037   2.885  23.623  0.00  0.00    -0.341 N 
ATOM      8  H   UNL     1       9.250   2.984  24.605  0.00  0.00    +0.144 HD
ATOM      9  H   UNL     1       9.375   3.589  22.984  0.00  0.00    +0.144 HD
ATOM     10  C   UNL     1       9.242   0.469  23.970  0.00  0.00    +0.147 A 
ATOM     11  N   UNL     1       9.185   0.316  25.335  0.00  0.00    -0.231 NA
ATOM     12  C   UNL     1       9.235  -0.983  25.529  0.00  0.00    +0.201 A 
ENDROOT
BRANCH   1  13
ATOM     13  C   UNL     1       9.142  -3.112  24.143  0.00  0.00    +0.156 C 
BRANCH  13  15
ATOM     14  C   UNL     1       7.560  -4.191  22.489  0.00  0.00    +0.040 C 
ATOM     15  C   UNL     1       7.725  -3.678  23.917  0.00  0.00    +0.136 C 
BRANCH  15  16
ATOM     16  O   UNL     1       7.326  -4.728  24.831  0.00  0.00    -0.363 OA
BRANCH  16  17
ATOM     17  C   UNL     1       6.724  -4.190  26.016  0.00  0.00    +0.286 C 
BRANCH  17  18
ATOM     18  P   UNL     1       6.823  -5.355  27.422  0.00  0.00    +0.353 P 
ATOM     19  O   UNL     1       6.907  -6.342  28.614  0.00  0.00    -0.256 OA
BRANCH  18  20
ATOM     20  O   UNL     1       8.324  -5.732  26.853  0.00  0.00    -0.323 OA
ATOM     21  H   UNL     1       8.839  -4.930  26.639  0.00  0.00    +0.220 HD
ENDBRANCH  18  20
BRANCH  18  22
ATOM     22  O   UNL     1       5.966  -6.417  26.503  0.00  0.00    -0.323 OA
ATOM     23  H   UNL     1       5.965  -6.054  25.592  0.00  0.00    +0.220 HD
ENDBRANCH  18  22
ENDBRANCH  17  18
ENDBRANCH  16  17
ENDBRANCH  15  16
ENDBRANCH  13  15
ENDBRANCH   1  13
TORSDOF 7
ENDMDL
