MODEL 1
REMARK VINA RESULT:      -7.2      0.000      0.000
REMARK  Name = 
REMARK  1 active torsions:
REMARK  status: ('A' for Active; 'I' for Inactive)
REMARK    1  A    between atoms: N_21  and  C_22
REMARK                            x       y       z     vdW  Elec       q    Type
REMARK                         _______ _______ _______ _____ _____    ______ ____
ROOT
ATOM      1  O   UNL     1       6.346   3.750  22.949  0.00  0.00    -0.275 OA
ATOM      2  C   UNL     1       5.971   2.836  23.674  0.00  0.00    +0.217 C 
ATOM      3  N   UNL     1       6.452   1.557  23.648  0.00  0.00    -0.285 N 
ATOM      4  H   UNL     1       6.187   1.046  24.476  0.00  0.00    +0.155 HD
ATOM      5  C   UNL     1       7.541   0.986  22.964  0.00  0.00    +0.035 A 
ATOM      6  C   UNL     1       8.139   1.263  21.746  0.00  0.00    +0.023 A 
ATOM      7  C   UNL     1       9.315   0.544  21.379  0.00  0.00    +0.004 A 
ATOM      8  C   UNL     1       9.919  -0.402  22.245  0.00  0.00    +0.023 A 
ATOM      9  C   UNL     1       9.271  -0.736  23.413  0.00  0.00    +0.035 A 
ATOM     10  N   UNL     1       9.758  -1.666  24.405  0.00  0.00    -0.283 N 
ATOM     11  H   UNL     1      10.163  -1.059  25.121  0.00  0.00    +0.155 HD
ATOM     12  C   UNL     1       8.703  -2.351  25.021  0.00  0.00    +0.224 A 
ATOM     13  N   UNL     1       8.145  -3.392  24.299  0.00  0.00    -0.181 NA
ATOM     14  C   UNL     1       6.905  -3.696  24.491  0.00  0.00    +0.221 A 
ATOM     15  N   UNL     1       6.190  -3.022  25.496  0.00  0.00    -0.183 N 
ATOM     16  N   UNL     1       4.853  -3.125  25.658  0.00  0.00    -0.170 NA
ATOM     17  C   UNL     1       4.564  -2.037  26.377  0.00  0.00    +0.140 A 
ATOM     18  C   UNL     1       5.709  -1.227  26.642  0.00  0.00    +0.017 A 
ATOM     19  C   UNL     1       5.708   0.196  27.143  0.00  0.00    +0.040 C 
ATOM     20  C   UNL     1       4.609   1.072  26.472  0.00  0.00    +0.005 C 
ATOM     21  C   UNL     1       5.013   2.541  26.181  0.00  0.00    +0.009 C 
ATOM     22  C   UNL     1       6.783  -2.015  26.206  0.00  0.00    +0.166 A 
ATOM     23  N   UNL     1       6.189  -4.585  23.696  0.00  0.00    -0.310 N 
ATOM     24  H   UNL     1       5.183  -4.538  23.856  0.00  0.00    +0.149 HD
ATOM     25  N   UNL     1       8.128  -1.791  26.072  0.00  0.00    -0.195 NA
ATOM     26  C   UNL     1       8.087  -0.048  23.692  0.00  0.00    +0.046 A 
ATOM     27  C   UNL     1       4.827   3.011  24.708  0.00  0.00    +0.096 C 
ENDROOT
BRANCH  23  28
ATOM     28  C   UNL     1       6.652  -4.779  22.313  0.00  0.00    +0.073 C 
ATOM     29  C   UNL     1       5.986  -5.754  21.377  0.00  0.00    +0.024 C 
ATOM     30  C   UNL     1       7.358  -6.046  21.916  0.00  0.00    +0.024 C 
ENDBRANCH  23  28
TORSDOF 1
ENDMDL
MODEL 2
REMARK VINA RESULT:      -7.0      2.628      6.835
REMARK  Name = 
REMARK  1 active torsions:
REMARK  status: ('A' for Active; 'I' for Inactive)
REMARK    1  A    between atoms: N_21  and  C_22
REMARK                            x       y       z     vdW  Elec       q    Type
REMARK                         _______ _______ _______ _____ _____    ______ ____
ROOT
ATOM      1  O   UNL     1       7.293  -3.712  26.369  0.00  0.00    -0.275 OA
ATOM      2  C   UNL     1       7.729  -2.999  25.472  0.00  0.00    +0.217 C 
ATOM      3  N   UNL     1       7.432  -1.678  25.296  0.00  0.00    -0.285 N 
ATOM      4  H   UNL     1       8.078  -1.235  24.659  0.00  0.00    +0.155 HD
ATOM      5  C   UNL     1       6.736  -0.764  26.109  0.00  0.00    +0.035 A 
ATOM      6  C   UNL     1       5.689  -0.906  27.005  0.00  0.00    +0.023 A 
ATOM      7  C   UNL     1       5.271   0.230  27.758  0.00  0.00    +0.004 A 
ATOM      8  C   UNL     1       5.928   1.482  27.659  0.00  0.00    +0.023 A 
ATOM      9  C   UNL     1       6.908   1.640  26.705  0.00  0.00    +0.035 A 
ATOM     10  N   UNL     1       7.680   2.841  26.488  0.00  0.00    -0.283 N 
ATOM     11  H   UNL     1       8.559   2.648  26.970  0.00  0.00    +0.155 HD
ATOM     12  C   UNL     1       8.002   3.000  25.133  0.00  0.00    +0.224 A 
ATOM     13  N   UNL     1       6.993   3.483  24.318  0.00  0.00    -0.181 NA
ATOM     14  C   UNL     1       6.983   3.155  23.069  0.00  0.00    +0.221 A 
ATOM     15  N   UNL     1       8.050   2.395  22.560  0.00  0.00    -0.183 N 
ATOM     16  N   UNL     1       8.051   1.842  21.328  0.00  0.00    -0.170 NA
ATOM     17  C   UNL     1       8.987   0.895  21.437  0.00  0.00    +0.140 A 
ATOM     18  C   UNL     1       9.554   0.824  22.744  0.00  0.00    +0.017 A 
ATOM     19  C   UNL     1      10.391  -0.302  23.301  0.00  0.00    +0.040 C 
ATOM     20  C   UNL     1       9.855  -1.708  22.902  0.00  0.00    +0.005 C 
ATOM     21  C   UNL     1       9.979  -2.803  23.992  0.00  0.00    +0.009 C 
ATOM     22  C   UNL     1       9.041   1.955  23.392  0.00  0.00    +0.166 A 
ATOM     23  N   UNL     1       5.927   3.418  22.204  0.00  0.00    -0.310 N 
ATOM     24  H   UNL     1       5.995   2.903  21.326  0.00  0.00    +0.149 HD
ATOM     25  N   UNL     1       9.098   2.415  24.682  0.00  0.00    -0.195 NA
ATOM     26  C   UNL     1       7.233   0.511  25.949  0.00  0.00    +0.046 A 
ATOM     27  C   UNL     1       8.658  -3.545  24.355  0.00  0.00    +0.096 C 
ENDROOT
BRANCH  23  28
ATOM     28  C   UNL     1       4.589   3.580  22.797  0.00  0.00    +0.073 C 
ATOM     29  C   UNL     1       3.334   3.502  21.970  0.00  0.00    +0.024 C 
ATOM     30  C   UNL     1       3.783   4.821  22.531  0.00  0.00    +0.024 C 
ENDBRANCH  23  28
TORSDOF 1
ENDMDL
MODEL 3
REMARK VINA RESULT:      -6.9      2.460      6.307
REMARK  Name = 
REMARK  1 active torsions:
REMARK  status: ('A' for Active; 'I' for Inactive)
REMARK    1  A    between atoms: N_21  and  C_22
REMARK                            x       y       z     vdW  Elec       q    Type
REMARK                         _______ _______ _______ _____ _____    ______ ____
ROOT
ATOM      1  O   UNL     1       3.153  -3.498  25.367  0.00  0.00    -0.275 OA
ATOM      2  C   UNL     1       4.161  -3.356  24.684  0.00  0.00    +0.217 C 
ATOM      3  N   UNL     1       5.078  -2.354  24.826  0.00  0.00    -0.285 N 
ATOM      4  H   UNL     1       5.935  -2.565  24.336  0.00  0.00    +0.155 HD
ATOM      5  C   UNL     1       5.229  -1.364  25.814  0.00  0.00    +0.035 A 
ATOM      6  C   UNL     1       4.326  -0.685  26.615  0.00  0.00    +0.023 A 
ATOM      7  C   UNL     1       4.825   0.208  27.608  0.00  0.00    +0.004 A 
ATOM      8  C   UNL     1       6.214   0.378  27.838  0.00  0.00    +0.023 A 
ATOM      9  C   UNL     1       7.104  -0.230  26.982  0.00  0.00    +0.035 A 
ATOM     10  N   UNL     1       8.543  -0.168  27.087  0.00  0.00    -0.283 N 
ATOM     11  H   UNL     1       8.786  -1.053  27.535  0.00  0.00    +0.155 HD
ATOM     12  C   UNL     1       9.147  -0.190  25.822  0.00  0.00    +0.224 A 
ATOM     13  N   UNL     1       9.133   1.001  25.118  0.00  0.00    -0.181 NA
ATOM     14  C   UNL     1       9.138   0.968  23.827  0.00  0.00    +0.221 A 
ATOM     15  N   UNL     1       9.254  -0.275  23.182  0.00  0.00    -0.183 N 
ATOM     16  N   UNL     1       9.083  -0.445  21.853  0.00  0.00    -0.170 NA
ATOM     17  C   UNL     1       8.841  -1.756  21.758  0.00  0.00    +0.140 A 
ATOM     18  C   UNL     1       8.824  -2.410  23.025  0.00  0.00    +0.017 A 
ATOM     19  C   UNL     1       8.287  -3.789  23.319  0.00  0.00    +0.040 C 
ATOM     20  C   UNL     1       6.954  -4.090  22.573  0.00  0.00    +0.005 C 
ATOM     21  C   UNL     1       5.919  -4.927  23.367  0.00  0.00    +0.009 C 
ATOM     22  C   UNL     1       9.288  -1.430  23.913  0.00  0.00    +0.166 A 
ATOM     23  N   UNL     1       8.933   2.082  23.019  0.00  0.00    -0.310 N 
ATOM     24  H   UNL     1       8.754   1.837  22.045  0.00  0.00    +0.149 HD
ATOM     25  N   UNL     1       9.405  -1.366  25.277  0.00  0.00    -0.195 NA
ATOM     26  C   UNL     1       6.559  -1.042  25.984  0.00  0.00    +0.046 A 
ATOM     27  C   UNL     1       4.500  -4.298  23.497  0.00  0.00    +0.096 C 
ENDROOT
BRANCH  23  28
ATOM     28  C   UNL     1       8.171   3.203  23.592  0.00  0.00    +0.073 C 
ATOM     29  C   UNL     1       7.596   4.299  22.734  0.00  0.00    +0.024 C 
ATOM     30  C   UNL     1       8.764   4.584  23.633  0.00  0.00    +0.024 C 
ENDBRANCH  23  28
TORSDOF 1
ENDMDL
MODEL 4
REMARK VINA RESULT:      -6.9      2.631      5.748
REMARK  Name = 
REMARK  1 active torsions:
REMARK  status: ('A' for Active; 'I' for Inactive)
REMARK    1  A    between atoms: N_21  and  C_22
REMARK                            x       y       z     vdW  Elec       q    Type
REMARK                         _______ _______ _______ _____ _____    ______ ____
ROOT
ATOM      1  O   UNL     1       1.512  -2.800  26.411  0.00  0.00    -0.275 OA
ATOM      2  C   UNL     1       2.235  -3.378  25.607  0.00  0.00    +0.217 C 
ATOM      3  N   UNL     1       3.546  -3.081  25.365  0.00  0.00    -0.285 N 
ATOM      4  H   UNL     1       4.006  -3.823  24.859  0.00  0.00    +0.155 HD
ATOM      5  C   UNL     1       4.440  -2.215  26.021  0.00  0.00    +0.035 A 
ATOM      6  C   UNL     1       4.269  -1.021  26.701  0.00  0.00    +0.023 A 
ATOM      7  C   UNL     1       5.394  -0.432  27.349  0.00  0.00    +0.004 A 
ATOM      8  C   UNL     1       6.666  -1.058  27.366  0.00  0.00    +0.023 A 
ATOM      9  C   UNL     1       6.850  -2.197  26.615  0.00  0.00    +0.035 A 
ATOM     10  N   UNL     1       8.074  -2.961  26.538  0.00  0.00    -0.283 N 
ATOM     11  H   UNL     1       7.911  -3.737  27.181  0.00  0.00    +0.155 HD
ATOM     12  C   UNL     1       8.238  -3.531  25.268  0.00  0.00    +0.224 A 
ATOM     13  N   UNL     1       8.687  -2.683  24.271  0.00  0.00    -0.181 NA
ATOM     14  C   UNL     1       8.354  -2.922  23.046  0.00  0.00    +0.221 A 
ATOM     15  N   UNL     1       7.626  -4.089  22.757  0.00  0.00    -0.183 N 
ATOM     16  N   UNL     1       7.068  -4.342  21.554  0.00  0.00    -0.170 NA
ATOM     17  C   UNL     1       6.151  -5.268  21.849  0.00  0.00    +0.140 A 
ATOM     18  C   UNL     1       6.102  -5.577  23.241  0.00  0.00    +0.017 A 
ATOM     19  C   UNL     1       5.006  -6.324  23.960  0.00  0.00    +0.040 C 
ATOM     20  C   UNL     1       3.582  -5.918  23.479  0.00  0.00    +0.005 C 
ATOM     21  C   UNL     1       2.495  -5.863  24.583  0.00  0.00    +0.009 C 
ATOM     22  C   UNL     1       7.220  -4.915  23.769  0.00  0.00    +0.166 A 
ATOM     23  N   UNL     1       8.580  -2.043  21.992  0.00  0.00    -0.310 N 
ATOM     24  H   UNL     1       8.064  -2.294  21.149  0.00  0.00    +0.149 HD
ATOM     25  N   UNL     1       7.686  -4.711  25.041  0.00  0.00    -0.195 NA
ATOM     26  C   UNL     1       5.730  -2.696  25.946  0.00  0.00    +0.046 A 
ATOM     27  C   UNL     1       1.714  -4.520  24.694  0.00  0.00    +0.096 C 
ENDROOT
BRANCH  23  28
ATOM     28  C   UNL     1       8.703  -0.613  22.317  0.00  0.00    +0.073 C 
ATOM     29  C   UNL     1       9.088   0.411  21.282  0.00  0.00    +0.024 C 
ATOM     30  C   UNL     1      10.054   0.043  22.372  0.00  0.00    +0.024 C 
ENDBRANCH  23  28
TORSDOF 1
ENDMDL
MODEL 5
REMARK VINA RESULT:      -6.8      2.096      4.751
REMARK  Name = 
REMARK  1 active torsions:
REMARK  status: ('A' for Active; 'I' for Inactive)
REMARK    1  A    between atoms: N_21  and  C_22
REMARK                            x       y       z     vdW  Elec       q    Type
REMARK                         _______ _______ _______ _____ _____    ______ ____
ROOT
ATOM      1  O   UNL     1       7.886   4.111  25.641  0.00  0.00    -0.275 OA
ATOM      2  C   UNL     1       8.393   3.233  24.951  0.00  0.00    +0.217 C 
ATOM      3  N   UNL     1       8.089   1.903  25.014  0.00  0.00    -0.285 N 
ATOM      4  H   UNL     1       8.434   1.407  24.206  0.00  0.00    +0.155 HD
ATOM      5  C   UNL     1       7.076   1.212  25.703  0.00  0.00    +0.035 A 
ATOM      6  C   UNL     1       6.425   1.443  26.903  0.00  0.00    +0.023 A 
ATOM      7  C   UNL     1       5.351   0.583  27.278  0.00  0.00    +0.004 A 
ATOM      8  C   UNL     1       4.895  -0.463  26.437  0.00  0.00    +0.023 A 
ATOM      9  C   UNL     1       5.602  -0.743  25.290  0.00  0.00    +0.035 A 
ATOM     10  N   UNL     1       5.261  -1.760  24.323  0.00  0.00    -0.283 N 
ATOM     11  H   UNL     1       4.791  -1.237  23.582  0.00  0.00    +0.155 HD
ATOM     12  C   UNL     1       6.410  -2.315  23.743  0.00  0.00    +0.224 A 
ATOM     13  N   UNL     1       7.090  -3.247  24.506  0.00  0.00    -0.181 NA
ATOM     14  C   UNL     1       8.364  -3.387  24.339  0.00  0.00    +0.221 A 
ATOM     15  N   UNL     1       8.998  -2.654  23.321  0.00  0.00    -0.183 N 
ATOM     16  N   UNL     1      10.338  -2.579  23.180  0.00  0.00    -0.170 NA
ATOM     17  C   UNL     1      10.490  -1.485  22.429  0.00  0.00    +0.140 A 
ATOM     18  C   UNL     1       9.251  -0.847  22.123  0.00  0.00    +0.017 A 
ATOM     19  C   UNL     1       9.069   0.547  21.575  0.00  0.00    +0.040 C 
ATOM     20  C   UNL     1      10.027   1.584  22.230  0.00  0.00    +0.005 C 
ATOM     21  C   UNL     1       9.424   2.993  22.467  0.00  0.00    +0.009 C 
ATOM     22  C   UNL     1       8.286  -1.759  22.572  0.00  0.00    +0.166 A 
ATOM     23  N   UNL     1       9.179  -4.145  25.172  0.00  0.00    -0.310 N 
ATOM     24  H   UNL     1      10.172  -3.968  25.023  0.00  0.00    +0.149 HD
ATOM     25  N   UNL     1       6.921  -1.715  22.681  0.00  0.00    -0.195 NA
ATOM     26  C   UNL     1       6.686   0.090  25.003  0.00  0.00    +0.046 A 
ATOM     27  C   UNL     1       9.520   3.530  23.926  0.00  0.00    +0.096 C 
ENDROOT
BRANCH  23  28
ATOM     28  C   UNL     1       8.724  -4.357  26.556  0.00  0.00    +0.073 C 
ATOM     29  C   UNL     1       7.854  -5.525  26.941  0.00  0.00    +0.024 C 
ATOM     30  C   UNL     1       7.285  -4.135  26.927  0.00  0.00    +0.024 C 
ENDBRANCH  23  28
TORSDOF 1
ENDMDL
MODEL 6
REMARK VINA RESULT:      -6.8      2.459      5.531
REMARK  Name = 
REMARK  1 active torsions:
REMARK  status: ('A' for Active; 'I' for Inactive)
REMARK    1  A    between atoms: N_21  and  C_22
REMARK                            x       y       z     vdW  Elec       q    Type
REMARK                         _______ _______ _______ _____ _____    ______ ____
ROOT
ATOM      1  O   UNL     1       2.179  -2.105  26.879  0.00  0.00    -0.275 OA
ATOM      2  C   UNL     1       3.143  -2.634  26.337  0.00  0.00    +0.217 C 
ATOM      3  N   UNL     1       4.345  -2.031  26.096  0.00  0.00    -0.285 N 
ATOM      4  H   UNL     1       5.059  -2.707  25.872  0.00  0.00    +0.155 HD
ATOM      5  C   UNL     1       4.862  -0.789  26.508  0.00  0.00    +0.035 A 
ATOM      6  C   UNL     1       4.273   0.436  26.777  0.00  0.00    +0.023 A 
ATOM      7  C   UNL     1       5.087   1.493  27.281  0.00  0.00    +0.004 A 
ATOM      8  C   UNL     1       6.463   1.312  27.567  0.00  0.00    +0.023 A 
ATOM      9  C   UNL     1       7.060   0.123  27.215  0.00  0.00    +0.035 A 
ATOM     10  N   UNL     1       8.443  -0.223  27.451  0.00  0.00    -0.283 N 
ATOM     11  H   UNL     1       8.403  -0.803  28.290  0.00  0.00    +0.155 HD
ATOM     12  C   UNL     1       8.943  -1.043  26.430  0.00  0.00    +0.224 A 
ATOM     13  N   UNL     1       9.287  -0.408  25.250  0.00  0.00    -0.181 NA
ATOM     14  C   UNL     1       9.218  -1.064  24.139  0.00  0.00    +0.221 A 
ATOM     15  N   UNL     1       8.886  -2.429  24.179  0.00  0.00    -0.183 N 
ATOM     16  N   UNL     1       8.604  -3.160  23.080  0.00  0.00    -0.170 NA
ATOM     17  C   UNL     1       7.940  -4.202  23.588  0.00  0.00    +0.140 A 
ATOM     18  C   UNL     1       7.770  -4.115  25.002  0.00  0.00    +0.017 A 
ATOM     19  C   UNL     1       6.823  -4.932  25.846  0.00  0.00    +0.040 C 
ATOM     20  C   UNL     1       5.431  -5.126  25.178  0.00  0.00    +0.005 C 
ATOM     21  C   UNL     1       4.218  -5.103  26.143  0.00  0.00    +0.009 C 
ATOM     22  C   UNL     1       8.574  -3.027  25.368  0.00  0.00    +0.166 A 
ATOM     23  N   UNL     1       9.352  -0.483  22.883  0.00  0.00    -0.310 N 
ATOM     24  H   UNL     1       9.055  -1.101  22.127  0.00  0.00    +0.149 HD
ATOM     25  N   UNL     1       8.772  -2.349  26.542  0.00  0.00    -0.195 NA
ATOM     26  C   UNL     1       6.230  -0.856  26.664  0.00  0.00    +0.046 A 
ATOM     27  C   UNL     1       3.094  -4.085  25.788  0.00  0.00    +0.096 C 
ENDROOT
BRANCH  23  28
ATOM     28  C   UNL     1       9.032   0.948  22.760  0.00  0.00    +0.073 C 
ATOM     29  C   UNL     1       8.734   1.589  21.430  0.00  0.00    +0.024 C 
ATOM     30  C   UNL     1      10.019   1.899  22.143  0.00  0.00    +0.024 C 
ENDBRANCH  23  28
TORSDOF 1
ENDMDL
MODEL 7
REMARK VINA RESULT:      -6.6      2.636      5.502
REMARK  Name = 
REMARK  1 active torsions:
REMARK  status: ('A' for Active; 'I' for Inactive)
REMARK    1  A    between atoms: N_21  and  C_22
REMARK                            x       y       z     vdW  Elec       q    Type
REMARK                         _______ _______ _______ _____ _____    ______ ____
ROOT
ATOM      1  O   UNL     1       7.961   1.830  25.705  0.00  0.00    -0.275 OA
ATOM      2  C   UNL     1       8.278   0.669  25.470  0.00  0.00    +0.217 C 
ATOM      3  N   UNL     1       7.547  -0.434  25.808  0.00  0.00    -0.285 N 
ATOM      4  H   UNL     1       7.864  -1.254  25.312  0.00  0.00    +0.155 HD
ATOM      5  C   UNL     1       6.247  -0.566  26.330  0.00  0.00    +0.035 A 
ATOM      6  C   UNL     1       5.483   0.229  27.169  0.00  0.00    +0.023 A 
ATOM      7  C   UNL     1       4.134  -0.151  27.433  0.00  0.00    +0.004 A 
ATOM      8  C   UNL     1       3.537  -1.281  26.821  0.00  0.00    +0.023 A 
ATOM      9  C   UNL     1       4.326  -2.115  26.061  0.00  0.00    +0.035 A 
ATOM     10  N   UNL     1       3.869  -3.293  25.361  0.00  0.00    -0.283 N 
ATOM     11  H   UNL     1       3.755  -2.969  24.399  0.00  0.00    +0.155 HD
ATOM     12  C   UNL     1       4.863  -4.281  25.327  0.00  0.00    +0.224 A 
ATOM     13  N   UNL     1       5.032  -5.017  26.486  0.00  0.00    -0.181 NA
ATOM     14  C   UNL     1       6.195  -5.514  26.751  0.00  0.00    +0.221 A 
ATOM     15  N   UNL     1       7.224  -5.370  25.805  0.00  0.00    -0.183 N 
ATOM     16  N   UNL     1       8.514  -5.681  26.053  0.00  0.00    -0.170 NA
ATOM     17  C   UNL     1       9.164  -4.998  25.106  0.00  0.00    +0.140 A 
ATOM     18  C   UNL     1       8.292  -4.228  24.281  0.00  0.00    +0.017 A 
ATOM     19  C   UNL     1       8.691  -3.120  23.337  0.00  0.00    +0.040 C 
ATOM     20  C   UNL     1       9.786  -2.186  23.931  0.00  0.00    +0.005 C 
ATOM     21  C   UNL     1       9.646  -0.683  23.575  0.00  0.00    +0.009 C 
ATOM     22  C   UNL     1       7.011  -4.654  24.659  0.00  0.00    +0.166 A 
ATOM     23  N   UNL     1       6.532  -6.101  27.965  0.00  0.00    -0.310 N 
ATOM     24  H   UNL     1       7.536  -6.237  28.075  0.00  0.00    +0.149 HD
ATOM     25  N   UNL     1       5.744  -4.242  24.342  0.00  0.00    -0.195 NA
ATOM     26  C   UNL     1       5.658  -1.730  25.888  0.00  0.00    +0.046 A 
ATOM     27  C   UNL     1       9.620   0.296  24.785  0.00  0.00    +0.096 C 
ENDROOT
BRANCH  23  28
ATOM     28  C   UNL     1       5.766  -5.690  29.153  0.00  0.00    +0.073 C 
ATOM     29  C   UNL     1       5.927  -6.374  30.484  0.00  0.00    +0.024 C 
ATOM     30  C   UNL     1       4.666  -6.562  29.690  0.00  0.00    +0.024 C 
ENDBRANCH  23  28
TORSDOF 1
ENDMDL
MODEL 8
REMARK VINA RESULT:      -6.5      3.410      6.944
REMARK  Name = 
REMARK  1 active torsions:
REMARK  status: ('A' for Active; 'I' for Inactive)
REMARK    1  A    between atoms: N_21  and  C_22
REMARK                            x       y       z     vdW  Elec       q    Type
REMARK                         _______ _______ _______ _____ _____    ______ ____
ROOT
ATOM      1  O   UNL     1       8.585  -2.043  25.501  0.00  0.00    -0.275 OA
ATOM      2  C   UNL     1       8.262  -0.939  25.926  0.00  0.00    +0.217 C 
ATOM      3  N   UNL     1       8.387   0.238  25.246  0.00  0.00    -0.285 N 
ATOM      4  H   UNL     1       7.844   0.973  25.675  0.00  0.00    +0.155 HD
ATOM      5  C   UNL     1       8.734   0.509  23.910  0.00  0.00    +0.035 A 
ATOM      6  C   UNL     1       9.560  -0.132  23.001  0.00  0.00    +0.023 A 
ATOM      7  C   UNL     1       9.619   0.357  21.663  0.00  0.00    +0.004 A 
ATOM      8  C   UNL     1       8.820   1.441  21.222  0.00  0.00    +0.023 A 
ATOM      9  C   UNL     1       8.070   2.129  22.149  0.00  0.00    +0.035 A 
ATOM     10  N   UNL     1       7.195   3.241  21.861  0.00  0.00    -0.283 N 
ATOM     11  H   UNL     1       6.268   2.813  21.830  0.00  0.00    +0.155 HD
ATOM     12  C   UNL     1       7.169   4.156  22.922  0.00  0.00    +0.224 A 
ATOM     13  N   UNL     1       8.251   5.013  23.017  0.00  0.00    -0.181 NA
ATOM     14  C   UNL     1       8.595   5.466  24.177  0.00  0.00    +0.221 A 
ATOM     15  N   UNL     1       7.799   5.149  25.290  0.00  0.00    -0.183 N 
ATOM     16  N   UNL     1       8.161   5.408  26.565  0.00  0.00    -0.170 NA
ATOM     17  C   UNL     1       7.379   4.580  27.263  0.00  0.00    +0.140 A 
ATOM     18  C   UNL     1       6.547   3.771  26.432  0.00  0.00    +0.017 A 
ATOM     19  C   UNL     1       5.786   2.537  26.850  0.00  0.00    +0.040 C 
ATOM     20  C   UNL     1       6.604   1.616  27.801  0.00  0.00    +0.005 C 
ATOM     21  C   UNL     1       6.403   0.093  27.591  0.00  0.00    +0.009 C 
ATOM     22  C   UNL     1       6.722   4.317  25.153  0.00  0.00    +0.166 A 
ATOM     23  N   UNL     1       9.767   6.172  24.420  0.00  0.00    -0.310 N 
ATOM     24  H   UNL     1       9.979   6.259  25.414  0.00  0.00    +0.149 HD
ATOM     25  N   UNL     1       6.305   3.947  23.901  0.00  0.00    -0.195 NA
ATOM     26  C   UNL     1       8.099   1.647  23.460  0.00  0.00    +0.046 A 
ATOM     27  C   UNL     1       7.704  -0.733  27.360  0.00  0.00    +0.096 C 
ENDROOT
BRANCH  23  28
ATOM     28  C   UNL     1      10.895   5.952  23.500  0.00  0.00    +0.073 C 
ATOM     29  C   UNL     1      11.741   4.707  23.557  0.00  0.00    +0.024 C 
ATOM     30  C   UNL     1      12.311   6.025  23.998  0.00  0.00    +0.024 C 
ENDBRANCH  23  28
TORSDOF 1
ENDMDL
MODEL 9
REMARK VINA RESULT:      -6.4      1.426      1.747
REMARK  Name = 
REMARK  1 active torsions:
REMARK  status: ('A' for Active; 'I' for Inactive)
REMARK    1  A    between atoms: N_21  and  C_22
REMARK                            x       y       z     vdW  Elec       q    Type
REMARK                         _______ _______ _______ _____ _____    ______ ____
ROOT
ATOM      1  O   UNL     1       6.895   2.321  23.874  0.00  0.00    -0.275 OA
ATOM      2  C   UNL     1       6.311   1.389  24.413  0.00  0.00    +0.217 C 
ATOM      3  N   UNL     1       6.674   0.075  24.333  0.00  0.00    -0.285 N 
ATOM      4  H   UNL     1       6.211  -0.481  25.038  0.00  0.00    +0.155 HD
ATOM      5  C   UNL     1       7.820  -0.543  23.800  0.00  0.00    +0.035 A 
ATOM      6  C   UNL     1       8.663  -0.220  22.749  0.00  0.00    +0.023 A 
ATOM      7  C   UNL     1       9.820  -1.023  22.526  0.00  0.00    +0.004 A 
ATOM      8  C   UNL     1      10.162  -2.104  23.376  0.00  0.00    +0.023 A 
ATOM      9  C   UNL     1       9.275  -2.474  24.362  0.00  0.00    +0.035 A 
ATOM     10  N   UNL     1       9.480  -3.539  25.317  0.00  0.00    -0.283 N 
ATOM     11  H   UNL     1       9.791  -3.047  26.157  0.00  0.00    +0.155 HD
ATOM     12  C   UNL     1       8.271  -4.162  25.651  0.00  0.00    +0.224 A 
ATOM     13  N   UNL     1       7.774  -5.065  24.728  0.00  0.00    -0.181 NA
ATOM     14  C   UNL     1       6.498  -5.253  24.656  0.00  0.00    +0.221 A 
ATOM     15  N   UNL     1       5.665  -4.603  25.583  0.00  0.00    -0.183 N 
ATOM     16  N   UNL     1       4.318  -4.577  25.486  0.00  0.00    -0.170 NA
ATOM     17  C   UNL     1       3.992  -3.536  26.257  0.00  0.00    +0.140 A 
ATOM     18  C   UNL     1       5.130  -2.881  26.814  0.00  0.00    +0.017 A 
ATOM     19  C   UNL     1       5.157  -1.518  27.462  0.00  0.00    +0.040 C 
ATOM     20  C   UNL     1       4.289  -0.472  26.703  0.00  0.00    +0.005 C 
ATOM     21  C   UNL     1       4.867   0.966  26.656  0.00  0.00    +0.009 C 
ATOM     22  C   UNL     1       6.196  -3.734  26.496  0.00  0.00    +0.166 A 
ATOM     23  N   UNL     1       5.874  -5.983  23.651  0.00  0.00    -0.310 N 
ATOM     24  H   UNL     1       4.864  -5.845  23.629  0.00  0.00    +0.149 HD
ATOM     25  N   UNL     1       7.556  -3.644  26.635  0.00  0.00    -0.195 NA
ATOM     26  C   UNL     1       8.125  -1.693  24.496  0.00  0.00    +0.046 A 
ATOM     27  C   UNL     1       5.008   1.588  25.235  0.00  0.00    +0.096 C 
ENDROOT
BRANCH  23  28
ATOM     28  C   UNL     1       6.574  -6.096  22.361  0.00  0.00    +0.073 C 
ATOM     29  C   UNL     1       6.772  -4.912  21.452  0.00  0.00    +0.024 C 
ATOM     30  C   UNL     1       5.813  -6.003  21.069  0.00  0.00    +0.024 C 
ENDBRANCH  23  28
TORSDOF 1
ENDMDL
