MODEL 1
REMARK VINA RESULT:      -7.5      0.000      0.000
REMARK  Name = 
REMARK  7 active torsions:
REMARK  status: ('A' for Active; 'I' for Inactive)
REMARK    1  A    between atoms: C_1  and  C_2
REMARK    2  A    between atoms: C_2  and  C_3
REMARK    3  A    between atoms: C_2  and  C_4
REMARK    4  A    between atoms: C_2  and  N_5
REMARK    5  A    between atoms: C_8  and  C_23
REMARK    6  A    between atoms: C_13  and  C_16
REMARK    7  A    between atoms: C_20  and  N_21
REMARK                            x       y       z     vdW  Elec       q    Type
REMARK                         _______ _______ _______ _____ _____    ______ ____
ROOT
ATOM      1  N   UNL     1       6.698  -0.161  25.490  0.00  0.00    -0.324 N 
ATOM      2  H   UNL     1       7.365   0.449  25.950  0.00  0.00    +0.148 HD
ATOM      3  C   UNL     1       7.291  -0.739  24.353  0.00  0.00    +0.131 A 
ATOM      4  C   UNL     1       8.241  -0.025  23.598  0.00  0.00    +0.041 A 
ATOM      5  C   UNL     1       8.826   1.219  23.967  0.00  0.00    +0.022 A 
ATOM      6  C   UNL     1       9.689   1.945  23.127  0.00  0.00    -0.017 A 
ATOM      7  C   UNL     1      10.020   1.335  21.911  0.00  0.00    +0.010 A 
ATOM      8  C   UNL     1       9.504   0.076  21.566  0.00  0.00    +0.029 A 
ATOM      9  C   UNL     1       8.620  -0.609  22.385  0.00  0.00    +0.077 A 
ATOM     10  N   UNL     1       8.156  -1.788  21.971  0.00  0.00    -0.224 NA
ATOM     11  C   UNL     1       7.269  -2.427  22.763  0.00  0.00    +0.236 A 
ATOM     12  N   UNL     1       6.834  -1.925  23.937  0.00  0.00    -0.209 NA
ENDROOT
BRANCH   6  13
ATOM     13  C   UNL     1      10.151   3.311  23.487  0.00  0.00    -0.016 A 
ATOM     14  C   UNL     1      11.474   3.747  23.269  0.00  0.00    +0.031 A 
ATOM     15  C   UNL     1      11.866   5.075  23.497  0.00  0.00    +0.025 A 
ATOM     16  C   UNL     1      10.964   5.958  24.091  0.00  0.00    +0.023 A 
ATOM     17  C   UNL     1       9.660   5.552  24.349  0.00  0.00    +0.002 A 
ATOM     18  C   UNL     1       9.257   4.252  24.033  0.00  0.00    +0.008 A 
BRANCH  15  19
ATOM     19  N   UNL     1      13.207   5.456  23.333  0.00  0.00    -0.358 N 
ATOM     20  H   UNL     1      13.532   5.393  22.374  0.00  0.00    +0.142 HD
ATOM     21  H   UNL     1      13.418   6.358  23.749  0.00  0.00    +0.142 HD
ENDBRANCH  15  19
ENDBRANCH   6  13
BRANCH   1  23
ATOM     22  C   UNL     1       6.958  -2.199  26.844  0.00  0.00    +0.031 C 
ATOM     23  C   UNL     1       6.045  -1.008  26.516  0.00  0.00    +0.025 C 
ATOM     24  C   UNL     1       5.913  -0.137  27.787  0.00  0.00    +0.031 C 
ATOM     25  C   UNL     1       4.625  -1.457  26.143  0.00  0.00    +0.031 C 
ENDBRANCH   1  23
BRANCH  11  26
ATOM     26  C   UNL     1       6.726  -3.787  22.312  0.00  0.00    +0.452 C 
ATOM     27  F   UNL     1       5.913  -4.373  23.243  0.00  0.00    -0.163 F 
ATOM     28  F   UNL     1       7.706  -4.701  22.050  0.00  0.00    -0.163 F 
ATOM     29  F   UNL     1       5.974  -3.732  21.166  0.00  0.00    -0.163 F 
ENDBRANCH  11  26
TORSDOF 4
ENDMDL
MODEL 2
REMARK VINA RESULT:      -7.3      1.947      2.397
REMARK  Name = 
REMARK  7 active torsions:
REMARK  status: ('A' for Active; 'I' for Inactive)
REMARK    1  A    between atoms: C_1  and  C_2
REMARK    2  A    between atoms: C_2  and  C_3
REMARK    3  A    between atoms: C_2  and  C_4
REMARK    4  A    between atoms: C_2  and  N_5
REMARK    5  A    between atoms: C_8  and  C_23
REMARK    6  A    between atoms: C_13  and  C_16
REMARK    7  A    between atoms: C_20  and  N_21
REMARK                            x       y       z     vdW  Elec       q    Type
REMARK                         _______ _______ _______ _____ _____    ______ ____
ROOT
ATOM      1  N   UNL     1       5.605  -1.452  24.863  0.00  0.00    -0.324 N 
ATOM      2  H   UNL     1       5.980  -0.629  25.322  0.00  0.00    +0.148 HD
ATOM      3  C   UNL     1       6.576  -2.000  24.004  0.00  0.00    +0.131 A 
ATOM      4  C   UNL     1       7.493  -1.167  23.337  0.00  0.00    +0.041 A 
ATOM      5  C   UNL     1       7.669   0.226  23.569  0.00  0.00    +0.022 A 
ATOM      6  C   UNL     1       8.523   1.036  22.798  0.00  0.00    -0.017 A 
ATOM      7  C   UNL     1       9.274   0.377  21.818  0.00  0.00    +0.010 A 
ATOM      8  C   UNL     1       9.162  -1.009  21.625  0.00  0.00    +0.029 A 
ATOM      9  C   UNL     1       8.283  -1.788  22.363  0.00  0.00    +0.077 A 
ATOM     10  N   UNL     1       8.218  -3.093  22.099  0.00  0.00    -0.224 NA
ATOM     11  C   UNL     1       7.333  -3.832  22.802  0.00  0.00    +0.236 A 
ATOM     12  N   UNL     1       6.520  -3.309  23.742  0.00  0.00    -0.209 NA
ENDROOT
BRANCH   6  13
ATOM     13  C   UNL     1       8.557   2.511  22.973  0.00  0.00    -0.016 A 
ATOM     14  C   UNL     1       7.669   3.376  22.302  0.00  0.00    +0.031 A 
ATOM     15  C   UNL     1       7.628   4.753  22.570  0.00  0.00    +0.025 A 
ATOM     16  C   UNL     1       8.586   5.310  23.417  0.00  0.00    +0.023 A 
ATOM     17  C   UNL     1       9.498   4.490  24.072  0.00  0.00    +0.002 A 
ATOM     18  C   UNL     1       9.469   3.108  23.865  0.00  0.00    +0.008 A 
BRANCH  15  19
ATOM     19  N   UNL     1       6.778   5.592  21.834  0.00  0.00    -0.358 N 
ATOM     20  H   UNL     1       6.892   6.576  22.052  0.00  0.00    +0.142 HD
ATOM     21  H   UNL     1       6.814   5.418  20.834  0.00  0.00    +0.142 HD
ENDBRANCH  15  19
ENDBRANCH   6  13
BRANCH   1  23
ATOM     22  C   UNL     1       5.991  -2.964  26.766  0.00  0.00    +0.031 C 
ATOM     23  C   UNL     1       4.930  -2.296  25.877  0.00  0.00    +0.025 C 
ATOM     24  C   UNL     1       4.096  -1.339  26.760  0.00  0.00    +0.031 C 
ATOM     25  C   UNL     1       3.948  -3.317  25.287  0.00  0.00    +0.031 C 
ENDBRANCH   1  23
BRANCH  11  26
ATOM     26  C   UNL     1       7.245  -5.336  22.521  0.00  0.00    +0.452 C 
ATOM     27  F   UNL     1       8.281  -6.042  23.066  0.00  0.00    -0.163 F 
ATOM     28  F   UNL     1       7.251  -5.639  21.190  0.00  0.00    -0.163 F 
ATOM     29  F   UNL     1       6.111  -5.927  23.017  0.00  0.00    -0.163 F 
ENDBRANCH  11  26
TORSDOF 4
ENDMDL
MODEL 3
REMARK VINA RESULT:      -7.2      1.370      1.875
REMARK  Name = 
REMARK  7 active torsions:
REMARK  status: ('A' for Active; 'I' for Inactive)
REMARK    1  A    between atoms: C_1  and  C_2
REMARK    2  A    between atoms: C_2  and  C_3
REMARK    3  A    between atoms: C_2  and  C_4
REMARK    4  A    between atoms: C_2  and  N_5
REMARK    5  A    between atoms: C_8  and  C_23
REMARK    6  A    between atoms: C_13  and  C_16
REMARK    7  A    between atoms: C_20  and  N_21
REMARK                            x       y       z     vdW  Elec       q    Type
REMARK                         _______ _______ _______ _____ _____    ______ ____
ROOT
ATOM      1  N   UNL     1       5.669  -1.627  25.010  0.00  0.00    -0.324 N 
ATOM      2  H   UNL     1       6.177  -0.957  25.576  0.00  0.00    +0.148 HD
ATOM      3  C   UNL     1       6.540  -2.210  24.070  0.00  0.00    +0.131 A 
ATOM      4  C   UNL     1       7.597  -1.465  23.516  0.00  0.00    +0.041 A 
ATOM      5  C   UNL     1       8.011  -0.171  23.942  0.00  0.00    +0.022 A 
ATOM      6  C   UNL     1       9.004   0.577  23.283  0.00  0.00    -0.017 A 
ATOM      7  C   UNL     1       9.640  -0.057  22.210  0.00  0.00    +0.010 A 
ATOM      8  C   UNL     1       9.289  -1.360  21.824  0.00  0.00    +0.029 A 
ATOM      9  C   UNL     1       8.278  -2.070  22.454  0.00  0.00    +0.077 A 
ATOM     10  N   UNL     1       7.989  -3.292  22.009  0.00  0.00    -0.224 NA
ATOM     11  C   UNL     1       6.980  -3.957  22.611  0.00  0.00    +0.236 A 
ATOM     12  N   UNL     1       6.258  -3.438  23.625  0.00  0.00    -0.209 NA
ENDROOT
BRANCH   6  13
ATOM     13  C   UNL     1       9.294   1.984  23.665  0.00  0.00    -0.016 A 
ATOM     14  C   UNL     1      10.434   2.675  23.209  0.00  0.00    +0.031 A 
ATOM     15  C   UNL     1      10.633   4.039  23.474  0.00  0.00    +0.025 A 
ATOM     16  C   UNL     1       9.755   4.699  24.333  0.00  0.00    +0.023 A 
ATOM     17  C   UNL     1       8.636   4.039  24.828  0.00  0.00    +0.002 A 
ATOM     18  C   UNL     1       8.401   2.706  24.481  0.00  0.00    +0.008 A 
BRANCH  15  19
ATOM     19  N   UNL     1      11.813   4.676  23.061  0.00  0.00    -0.358 N 
ATOM     20  H   UNL     1      11.951   4.662  22.056  0.00  0.00    +0.142 HD
ATOM     21  H   UNL     1      11.917   5.611  23.446  0.00  0.00    +0.142 HD
ENDBRANCH  15  19
ENDBRANCH   6  13
BRANCH   1  23
ATOM     22  C   UNL     1       5.767  -3.357  26.757  0.00  0.00    +0.031 C 
ATOM     23  C   UNL     1       4.844  -2.475  25.902  0.00  0.00    +0.025 C 
ATOM     24  C   UNL     1       4.087  -1.512  26.847  0.00  0.00    +0.031 C 
ATOM     25  C   UNL     1       3.776  -3.300  25.170  0.00  0.00    +0.031 C 
ENDBRANCH   1  23
BRANCH  11  26
ATOM     26  C   UNL     1       6.632  -5.367  22.121  0.00  0.00    +0.452 C 
ATOM     27  F   UNL     1       6.125  -5.379  20.851  0.00  0.00    -0.163 F 
ATOM     28  F   UNL     1       5.701  -5.995  22.896  0.00  0.00    -0.163 F 
ATOM     29  F   UNL     1       7.704  -6.221  22.084  0.00  0.00    -0.163 F 
ENDBRANCH  11  26
TORSDOF 4
ENDMDL
MODEL 4
REMARK VINA RESULT:      -7.0      4.645      7.405
REMARK  Name = 
REMARK  7 active torsions:
REMARK  status: ('A' for Active; 'I' for Inactive)
REMARK    1  A    between atoms: C_1  and  C_2
REMARK    2  A    between atoms: C_2  and  C_3
REMARK    3  A    between atoms: C_2  and  C_4
REMARK    4  A    between atoms: C_2  and  N_5
REMARK    5  A    between atoms: C_8  and  C_23
REMARK    6  A    between atoms: C_13  and  C_16
REMARK    7  A    between atoms: C_20  and  N_21
REMARK                            x       y       z     vdW  Elec       q    Type
REMARK                         _______ _______ _______ _____ _____    ______ ____
ROOT
ATOM      1  N   UNL     1       6.490   2.556  24.356  0.00  0.00    -0.324 N 
ATOM      2  H   UNL     1       6.146   1.688  23.962  0.00  0.00    +0.148 HD
ATOM      3  C   UNL     1       7.857   2.702  24.058  0.00  0.00    +0.131 A 
ATOM      4  C   UNL     1       8.697   1.576  23.975  0.00  0.00    +0.041 A 
ATOM      5  C   UNL     1       8.266   0.219  23.996  0.00  0.00    +0.022 A 
ATOM      6  C   UNL     1       9.155  -0.872  24.020  0.00  0.00    -0.017 A 
ATOM      7  C   UNL     1      10.516  -0.558  23.939  0.00  0.00    +0.010 A 
ATOM      8  C   UNL     1      10.950   0.774  23.848  0.00  0.00    +0.029 A 
ATOM      9  C   UNL     1      10.066   1.842  23.869  0.00  0.00    +0.077 A 
ATOM     10  N   UNL     1      10.562   3.077  23.805  0.00  0.00    -0.224 NA
ATOM     11  C   UNL     1       9.691   4.107  23.861  0.00  0.00    +0.236 A 
ATOM     12  N   UNL     1       8.359   3.939  23.985  0.00  0.00    -0.209 NA
ENDROOT
BRANCH   6  13
ATOM     13  C   UNL     1       8.665  -2.264  24.199  0.00  0.00    -0.016 A 
ATOM     14  C   UNL     1       9.485  -3.299  24.692  0.00  0.00    +0.031 A 
ATOM     15  C   UNL     1       8.979  -4.577  24.975  0.00  0.00    +0.025 A 
ATOM     16  C   UNL     1       7.662  -4.880  24.626  0.00  0.00    +0.023 A 
ATOM     17  C   UNL     1       6.834  -3.892  24.108  0.00  0.00    +0.002 A 
ATOM     18  C   UNL     1       7.326  -2.597  23.916  0.00  0.00    +0.008 A 
BRANCH  15  19
ATOM     19  N   UNL     1       9.839  -5.601  25.400  0.00  0.00    -0.358 N 
ATOM     20  H   UNL     1      10.773  -5.534  25.012  0.00  0.00    +0.142 HD
ATOM     21  H   UNL     1       9.854  -5.716  26.410  0.00  0.00    +0.142 HD
ENDBRANCH  15  19
ENDBRANCH   6  13
BRANCH   1  23
ATOM     22  C   UNL     1       5.700   4.049  22.566  0.00  0.00    +0.031 C 
ATOM     23  C   UNL     1       5.527   3.637  24.036  0.00  0.00    +0.025 C 
ATOM     24  C   UNL     1       4.115   3.030  24.204  0.00  0.00    +0.031 C 
ATOM     25  C   UNL     1       5.602   4.842  24.985  0.00  0.00    +0.031 C 
ENDBRANCH   1  23
BRANCH  11  26
ATOM     26  C   UNL     1      10.237   5.537  23.783  0.00  0.00    +0.452 C 
ATOM     27  F   UNL     1      10.333   6.139  25.008  0.00  0.00    -0.163 F 
ATOM     28  F   UNL     1       9.468   6.369  23.022  0.00  0.00    -0.163 F 
ATOM     29  F   UNL     1      11.496   5.622  23.246  0.00  0.00    -0.163 F 
ENDBRANCH  11  26
TORSDOF 4
ENDMDL
MODEL 5
REMARK VINA RESULT:      -6.9      3.882      7.892
REMARK  Name = 
REMARK  7 active torsions:
REMARK  status: ('A' for Active; 'I' for Inactive)
REMARK    1  A    between atoms: C_1  and  C_2
REMARK    2  A    between atoms: C_2  and  C_3
REMARK    3  A    between atoms: C_2  and  C_4
REMARK    4  A    between atoms: C_2  and  N_5
REMARK    5  A    between atoms: C_8  and  C_23
REMARK    6  A    between atoms: C_13  and  C_16
REMARK    7  A    between atoms: C_20  and  N_21
REMARK                            x       y       z     vdW  Elec       q    Type
REMARK                         _______ _______ _______ _____ _____    ______ ____
ROOT
ATOM      1  N   UNL     1       6.149   0.081  25.710  0.00  0.00    -0.324 N 
ATOM      2  H   UNL     1       5.388  -0.543  25.467  0.00  0.00    +0.148 HD
ATOM      3  C   UNL     1       7.299  -0.264  24.976  0.00  0.00    +0.131 A 
ATOM      4  C   UNL     1       7.557  -1.606  24.641  0.00  0.00    +0.041 A 
ATOM      5  C   UNL     1       6.658  -2.695  24.826  0.00  0.00    +0.022 A 
ATOM      6  C   UNL     1       7.006  -4.035  24.574  0.00  0.00    -0.017 A 
ATOM      7  C   UNL     1       8.283  -4.248  24.044  0.00  0.00    +0.010 A 
ATOM      8  C   UNL     1       9.154  -3.177  23.792  0.00  0.00    +0.029 A 
ATOM      9  C   UNL     1       8.814  -1.864  24.085  0.00  0.00    +0.077 A 
ATOM     10  N   UNL     1       9.710  -0.908  23.839  0.00  0.00    -0.224 NA
ATOM     11  C   UNL     1       9.378   0.360  24.162  0.00  0.00    +0.236 A 
ATOM     12  N   UNL     1       8.197   0.693  24.721  0.00  0.00    -0.209 NA
ENDROOT
BRANCH   6  13
ATOM     13  C   UNL     1       6.091  -5.150  24.929  0.00  0.00    -0.016 A 
ATOM     14  C   UNL     1       6.036  -5.704  26.224  0.00  0.00    +0.031 A 
ATOM     15  C   UNL     1       5.082  -6.670  26.580  0.00  0.00    +0.025 A 
ATOM     16  C   UNL     1       4.257  -7.207  25.592  0.00  0.00    +0.023 A 
ATOM     17  C   UNL     1       4.306  -6.707  24.296  0.00  0.00    +0.002 A 
ATOM     18  C   UNL     1       5.199  -5.680  23.976  0.00  0.00    +0.008 A 
BRANCH  15  19
ATOM     19  N   UNL     1       5.101  -7.247  27.859  0.00  0.00    -0.358 N 
ATOM     20  H   UNL     1       4.286  -7.817  28.059  0.00  0.00    +0.142 HD
ATOM     21  H   UNL     1       5.967  -7.737  28.063  0.00  0.00    +0.142 HD
ENDBRANCH  15  19
ENDBRANCH   6  13
BRANCH   1  23
ATOM     22  C   UNL     1       5.392   1.918  24.258  0.00  0.00    +0.031 C 
ATOM     23  C   UNL     1       5.641   1.474  25.708  0.00  0.00    +0.025 C 
ATOM     24  C   UNL     1       4.281   1.447  26.444  0.00  0.00    +0.031 C 
ATOM     25  C   UNL     1       6.532   2.466  26.469  0.00  0.00    +0.031 C 
ENDBRANCH   1  23
BRANCH  11  26
ATOM     26  C   UNL     1      10.388   1.478  23.883  0.00  0.00    +0.452 C 
ATOM     27  F   UNL     1      10.563   1.718  22.548  0.00  0.00    -0.163 F 
ATOM     28  F   UNL     1      11.633   1.218  24.378  0.00  0.00    -0.163 F 
ATOM     29  F   UNL     1      10.036   2.691  24.419  0.00  0.00    -0.163 F 
ENDBRANCH  11  26
TORSDOF 4
ENDMDL
MODEL 6
REMARK VINA RESULT:      -6.6      2.294      2.652
REMARK  Name = 
REMARK  7 active torsions:
REMARK  status: ('A' for Active; 'I' for Inactive)
REMARK    1  A    between atoms: C_1  and  C_2
REMARK    2  A    between atoms: C_2  and  C_3
REMARK    3  A    between atoms: C_2  and  C_4
REMARK    4  A    between atoms: C_2  and  N_5
REMARK    5  A    between atoms: C_8  and  C_23
REMARK    6  A    between atoms: C_13  and  C_16
REMARK    7  A    between atoms: C_20  and  N_21
REMARK                            x       y       z     vdW  Elec       q    Type
REMARK                         _______ _______ _______ _____ _____    ______ ____
ROOT
ATOM      1  N   UNL     1       6.078  -0.388  25.290  0.00  0.00    -0.324 N 
ATOM      2  H   UNL     1       6.137   0.578  25.589  0.00  0.00    +0.148 HD
ATOM      3  C   UNL     1       7.367  -0.874  25.001  0.00  0.00    +0.131 A 
ATOM      4  C   UNL     1       8.350  -0.022  24.466  0.00  0.00    +0.041 A 
ATOM      5  C   UNL     1       8.237   1.391  24.330  0.00  0.00    +0.022 A 
ATOM      6  C   UNL     1       9.205   2.185  23.688  0.00  0.00    -0.017 A 
ATOM      7  C   UNL     1      10.354   1.517  23.248  0.00  0.00    +0.010 A 
ATOM      8  C   UNL     1      10.508   0.135  23.438  0.00  0.00    +0.029 A 
ATOM      9  C   UNL     1       9.526  -0.643  24.034  0.00  0.00    +0.077 A 
ATOM     10  N   UNL     1       9.741  -1.953  24.152  0.00  0.00    -0.224 NA
ATOM     11  C   UNL     1       8.762  -2.702  24.702  0.00  0.00    +0.236 A 
ATOM     12  N   UNL     1       7.589  -2.187  25.125  0.00  0.00    -0.209 NA
ENDROOT
BRANCH   6  13
ATOM     13  C   UNL     1       8.974   3.630  23.431  0.00  0.00    -0.016 A 
ATOM     14  C   UNL     1       7.834   4.107  22.752  0.00  0.00    +0.031 A 
ATOM     15  C   UNL     1       7.564   5.478  22.625  0.00  0.00    +0.025 A 
ATOM     16  C   UNL     1       8.517   6.402  23.054  0.00  0.00    +0.023 A 
ATOM     17  C   UNL     1       9.668   5.966  23.700  0.00  0.00    +0.002 A 
ATOM     18  C   UNL     1       9.882   4.599  23.901  0.00  0.00    +0.008 A 
BRANCH  15  19
ATOM     19  N   UNL     1       6.456   5.916  21.884  0.00  0.00    -0.358 N 
ATOM     20  H   UNL     1       5.679   6.224  22.460  0.00  0.00    +0.142 HD
ATOM     21  H   UNL     1       6.697   6.601  21.174  0.00  0.00    +0.142 HD
ENDBRANCH  15  19
ENDBRANCH   6  13
BRANCH   1  23
ATOM     22  C   UNL     1       5.985  -1.534  27.466  0.00  0.00    +0.031 C 
ATOM     23  C   UNL     1       5.186  -1.120  26.220  0.00  0.00    +0.025 C 
ATOM     24  C   UNL     1       4.093  -0.118  26.659  0.00  0.00    +0.031 C 
ATOM     25  C   UNL     1       4.458  -2.312  25.581  0.00  0.00    +0.031 C 
ENDBRANCH   1  23
BRANCH  11  26
ATOM     26  C   UNL     1       8.987  -4.210  24.855  0.00  0.00    +0.452 C 
ATOM     27  F   UNL     1       8.364  -4.734  25.954  0.00  0.00    -0.163 F 
ATOM     28  F   UNL     1      10.303  -4.550  24.981  0.00  0.00    -0.163 F 
ATOM     29  F   UNL     1       8.526  -4.951  23.797  0.00  0.00    -0.163 F 
ENDBRANCH  11  26
TORSDOF 4
ENDMDL
MODEL 7
REMARK VINA RESULT:      -6.5      4.631      7.439
REMARK  Name = 
REMARK  7 active torsions:
REMARK  status: ('A' for Active; 'I' for Inactive)
REMARK    1  A    between atoms: C_1  and  C_2
REMARK    2  A    between atoms: C_2  and  C_3
REMARK    3  A    between atoms: C_2  and  C_4
REMARK    4  A    between atoms: C_2  and  N_5
REMARK    5  A    between atoms: C_8  and  C_23
REMARK    6  A    between atoms: C_13  and  C_16
REMARK    7  A    between atoms: C_20  and  N_21
REMARK                            x       y       z     vdW  Elec       q    Type
REMARK                         _______ _______ _______ _____ _____    ______ ____
ROOT
ATOM      1  N   UNL     1       7.275   2.967  26.239  0.00  0.00    -0.324 N 
ATOM      2  H   UNL     1       6.751   2.111  26.097  0.00  0.00    +0.148 HD
ATOM      3  C   UNL     1       8.267   3.084  25.248  0.00  0.00    +0.131 A 
ATOM      4  C   UNL     1       8.899   1.939  24.728  0.00  0.00    +0.041 A 
ATOM      5  C   UNL     1       8.514   0.592  24.983  0.00  0.00    +0.022 A 
ATOM      6  C   UNL     1       9.245  -0.519  24.527  0.00  0.00    -0.017 A 
ATOM      7  C   UNL     1      10.354  -0.236  23.721  0.00  0.00    +0.010 A 
ATOM      8  C   UNL     1      10.704   1.086  23.405  0.00  0.00    +0.029 A 
ATOM      9  C   UNL     1       9.999   2.174  23.897  0.00  0.00    +0.077 A 
ATOM     10  N   UNL     1      10.414   3.398  23.570  0.00  0.00    -0.224 NA
ATOM     11  C   UNL     1       9.739   4.448  24.085  0.00  0.00    +0.236 A 
ATOM     12  N   UNL     1       8.682   4.310  24.911  0.00  0.00    -0.209 NA
ENDROOT
BRANCH   6  13
ATOM     13  C   UNL     1       8.895  -1.901  24.947  0.00  0.00    -0.016 A 
ATOM     14  C   UNL     1       7.905  -2.172  25.913  0.00  0.00    +0.031 A 
ATOM     15  C   UNL     1       7.496  -3.481  26.212  0.00  0.00    +0.025 A 
ATOM     16  C   UNL     1       8.184  -4.554  25.645  0.00  0.00    +0.023 A 
ATOM     17  C   UNL     1       9.188  -4.323  24.711  0.00  0.00    +0.002 A 
ATOM     18  C   UNL     1       9.524  -3.014  24.356  0.00  0.00    +0.008 A 
BRANCH  15  19
ATOM     19  N   UNL     1       6.556  -3.716  27.227  0.00  0.00    -0.358 N 
ATOM     20  H   UNL     1       5.961  -4.518  27.050  0.00  0.00    +0.142 HD
ATOM     21  H   UNL     1       6.970  -3.746  28.154  0.00  0.00    +0.142 HD
ENDBRANCH  15  19
ENDBRANCH   6  13
BRANCH   1  23
ATOM     22  C   UNL     1       5.181   3.566  27.385  0.00  0.00    +0.031 C 
ATOM     23  C   UNL     1       6.321   4.074  26.488  0.00  0.00    +0.025 C 
ATOM     24  C   UNL     1       7.101   5.159  27.266  0.00  0.00    +0.031 C 
ATOM     25  C   UNL     1       5.794   4.743  25.211  0.00  0.00    +0.031 C 
ENDBRANCH   1  23
BRANCH  11  26
ATOM     26  C   UNL     1      10.192   5.865  23.719  0.00  0.00    +0.452 C 
ATOM     27  F   UNL     1      10.378   6.665  24.813  0.00  0.00    -0.163 F 
ATOM     28  F   UNL     1       9.303   6.529  22.923  0.00  0.00    -0.163 F 
ATOM     29  F   UNL     1      11.383   5.909  23.040  0.00  0.00    -0.163 F 
ENDBRANCH  11  26
TORSDOF 4
ENDMDL
MODEL 8
REMARK VINA RESULT:      -6.4      3.839      7.722
REMARK  Name = 
REMARK  7 active torsions:
REMARK  status: ('A' for Active; 'I' for Inactive)
REMARK    1  A    between atoms: C_1  and  C_2
REMARK    2  A    between atoms: C_2  and  C_3
REMARK    3  A    between atoms: C_2  and  C_4
REMARK    4  A    between atoms: C_2  and  N_5
REMARK    5  A    between atoms: C_8  and  C_23
REMARK    6  A    between atoms: C_13  and  C_16
REMARK    7  A    between atoms: C_20  and  N_21
REMARK                            x       y       z     vdW  Elec       q    Type
REMARK                         _______ _______ _______ _____ _____    ______ ____
ROOT
ATOM      1  N   UNL     1       5.965   0.711  25.060  0.00  0.00    -0.324 N 
ATOM      2  H   UNL     1       5.236   0.036  24.859  0.00  0.00    +0.148 HD
ATOM      3  C   UNL     1       7.131   0.375  24.347  0.00  0.00    +0.131 A 
ATOM      4  C   UNL     1       7.455  -0.972  24.098  0.00  0.00    +0.041 A 
ATOM      5  C   UNL     1       6.610  -2.089  24.355  0.00  0.00    +0.022 A 
ATOM      6  C   UNL     1       7.024  -3.423  24.190  0.00  0.00    -0.017 A 
ATOM      7  C   UNL     1       8.310  -3.608  23.671  0.00  0.00    +0.010 A 
ATOM      8  C   UNL     1       9.128  -2.514  23.349  0.00  0.00    +0.029 A 
ATOM      9  C   UNL     1       8.724  -1.204  23.557  0.00  0.00    +0.077 A 
ATOM     10  N   UNL     1       9.572  -0.222  23.249  0.00  0.00    -0.224 NA
ATOM     11  C   UNL     1       9.178   1.046  23.489  0.00  0.00    +0.236 A 
ATOM     12  N   UNL     1       7.982   1.356  24.028  0.00  0.00    -0.209 NA
ENDROOT
BRANCH   6  13
ATOM     13  C   UNL     1       6.164  -4.557  24.618  0.00  0.00    -0.016 A 
ATOM     14  C   UNL     1       5.230  -5.169  23.757  0.00  0.00    +0.031 A 
ATOM     15  C   UNL     1       4.514  -6.316  24.131  0.00  0.00    +0.025 A 
ATOM     16  C   UNL     1       4.619  -6.786  25.441  0.00  0.00    +0.023 A 
ATOM     17  C   UNL     1       5.507  -6.188  26.326  0.00  0.00    +0.002 A 
ATOM     18  C   UNL     1       6.282  -5.100  25.912  0.00  0.00    +0.008 A 
BRANCH  15  19
ATOM     19  N   UNL     1       3.544  -6.857  23.274  0.00  0.00    -0.358 N 
ATOM     20  H   UNL     1       2.598  -6.563  23.495  0.00  0.00    +0.142 HD
ATOM     21  H   UNL     1       3.763  -6.726  22.291  0.00  0.00    +0.142 HD
ENDBRANCH  15  19
ENDBRANCH   6  13
BRANCH   1  23
ATOM     22  C   UNL     1       4.076   2.122  25.763  0.00  0.00    +0.031 C 
ATOM     23  C   UNL     1       5.390   2.074  24.968  0.00  0.00    +0.025 C 
ATOM     24  C   UNL     1       6.402   3.024  25.650  0.00  0.00    +0.031 C 
ATOM     25  C   UNL     1       5.212   2.582  23.530  0.00  0.00    +0.031 C 
ENDBRANCH   1  23
BRANCH  11  26
ATOM     26  C   UNL     1      10.133   2.192  23.137  0.00  0.00    +0.452 C 
ATOM     27  F   UNL     1      10.557   2.152  21.837  0.00  0.00    -0.163 F 
ATOM     28  F   UNL     1      11.268   2.203  23.895  0.00  0.00    -0.163 F 
ATOM     29  F   UNL     1       9.585   3.439  23.295  0.00  0.00    -0.163 F 
ENDBRANCH  11  26
TORSDOF 4
ENDMDL
MODEL 9
REMARK VINA RESULT:      -6.3      2.660      4.781
REMARK  Name = 
REMARK  7 active torsions:
REMARK  status: ('A' for Active; 'I' for Inactive)
REMARK    1  A    between atoms: C_1  and  C_2
REMARK    2  A    between atoms: C_2  and  C_3
REMARK    3  A    between atoms: C_2  and  C_4
REMARK    4  A    between atoms: C_2  and  N_5
REMARK    5  A    between atoms: C_8  and  C_23
REMARK    6  A    between atoms: C_13  and  C_16
REMARK    7  A    between atoms: C_20  and  N_21
REMARK                            x       y       z     vdW  Elec       q    Type
REMARK                         _______ _______ _______ _____ _____    ______ ____
ROOT
ATOM      1  N   UNL     1       7.055  -4.006  22.925  0.00  0.00    -0.324 N 
ATOM      2  H   UNL     1       6.976  -3.142  22.401  0.00  0.00    +0.148 HD
ATOM      3  C   UNL     1       6.908  -3.742  24.299  0.00  0.00    +0.131 A 
ATOM      4  C   UNL     1       7.368  -2.531  24.849  0.00  0.00    +0.041 A 
ATOM      5  C   UNL     1       7.842  -1.412  24.107  0.00  0.00    +0.022 A 
ATOM      6  C   UNL     1       8.393  -0.265  24.708  0.00  0.00    -0.017 A 
ATOM      7  C   UNL     1       8.381  -0.239  26.107  0.00  0.00    +0.010 A 
ATOM      8  C   UNL     1       7.854  -1.307  26.849  0.00  0.00    +0.029 A 
ATOM      9  C   UNL     1       7.353  -2.450  26.245  0.00  0.00    +0.077 A 
ATOM     10  N   UNL     1       6.894  -3.430  27.024  0.00  0.00    -0.224 NA
ATOM     11  C   UNL     1       6.441  -4.550  26.422  0.00  0.00    +0.236 A 
ATOM     12  N   UNL     1       6.442  -4.719  25.084  0.00  0.00    -0.209 NA
ENDROOT
BRANCH   6  13
ATOM     13  C   UNL     1       9.018   0.809  23.894  0.00  0.00    -0.016 A 
ATOM     14  C   UNL     1       9.127   2.139  24.348  0.00  0.00    +0.031 A 
ATOM     15  C   UNL     1       9.828   3.117  23.625  0.00  0.00    +0.025 A 
ATOM     16  C   UNL     1      10.311   2.807  22.353  0.00  0.00    +0.023 A 
ATOM     17  C   UNL     1      10.193   1.513  21.860  0.00  0.00    +0.002 A 
ATOM     18  C   UNL     1       9.571   0.525  22.630  0.00  0.00    +0.008 A 
BRANCH  15  19
ATOM     19  N   UNL     1       9.858   4.446  24.075  0.00  0.00    -0.358 N 
ATOM     20  H   UNL     1       9.140   5.030  23.661  0.00  0.00    +0.142 HD
ATOM     21  H   UNL     1       9.874   4.523  25.088  0.00  0.00    +0.142 HD
ENDBRANCH  15  19
ENDBRANCH   6  13
BRANCH   1  23
ATOM     22  C   UNL     1       4.833  -5.064  22.908  0.00  0.00    +0.031 C 
ATOM     23  C   UNL     1       6.227  -5.042  22.262  0.00  0.00    +0.025 C 
ATOM     24  C   UNL     1       6.068  -4.600  20.789  0.00  0.00    +0.031 C 
ATOM     25  C   UNL     1       6.871  -6.435  22.235  0.00  0.00    +0.031 C 
ENDBRANCH   1  23
BRANCH  11  26
ATOM     26  C   UNL     1       5.903  -5.688  27.296  0.00  0.00    +0.452 C 
ATOM     27  F   UNL     1       6.833  -6.171  28.174  0.00  0.00    -0.163 F 
ATOM     28  F   UNL     1       5.478  -6.768  26.577  0.00  0.00    -0.163 F 
ATOM     29  F   UNL     1       4.830  -5.332  28.073  0.00  0.00    -0.163 F 
ENDBRANCH  11  26
TORSDOF 4
ENDMDL
