MODEL 1
REMARK VINA RESULT:      -7.2      0.000      0.000
REMARK  Name = 
REMARK  17 active torsions:
REMARK  status: ('A' for Active; 'I' for Inactive)
REMARK    1  A    between atoms: O_1  and  C_2
REMARK    2  A    between atoms: C_2  and  C_4
REMARK    3  A    between atoms: C_4  and  C_5
REMARK    4  A    between atoms: C_5  and  C_6
REMARK    5  A    between atoms: C_6  and  C_8
REMARK    6  A    between atoms: C_6  and  N_23
REMARK    7  A    between atoms: C_8  and  C_9
REMARK    8  A    between atoms: C_12  and  O_13
REMARK    9  A    between atoms: O_13  and  C_14
REMARK   10  A    between atoms: C_14  and  C_15
REMARK   11  A    between atoms: C_24  and  C_26
REMARK   12  A    between atoms: C_26  and  C_27
REMARK   13  A    between atoms: C_27  and  C_28
REMARK   14  A    between atoms: C_28  and  C_29
REMARK   15  A    between atoms: C_29  and  C_30
REMARK   16  A    between atoms: C_30  and  C_31
REMARK   17  A    between atoms: C_31  and  C_32
REMARK                            x       y       z     vdW  Elec       q    Type
REMARK                         _______ _______ _______ _____ _____    ______ ____
ROOT
ATOM      1  C   UNL     1      10.087   4.296  23.751  0.00  0.00    +0.078 C 
ENDROOT
BRANCH   1   2
ATOM      2  N   UNL     1       8.828   4.165  23.024  0.00  0.00    -0.312 N 
ATOM      3  H   UNL     1       8.860   4.121  22.014  0.00  0.00    +0.149 HD
ATOM      4  C   UNL     1       7.617   3.990  23.661  0.00  0.00    +0.213 C 
ATOM      5  O   UNL     1       7.471   4.050  24.878  0.00  0.00    -0.276 OA
BRANCH   4   6
ATOM      6  C   UNL     1       6.463   3.731  22.730  0.00  0.00    +0.096 C 
BRANCH   6   7
ATOM      7  C   UNL     1       5.696   2.506  23.204  0.00  0.00    +0.009 C 
BRANCH   7   8
ATOM      8  C   UNL     1       6.539   1.245  23.122  0.00  0.00    +0.000 C 
BRANCH   8   9
ATOM      9  C   UNL     1       6.552   0.549  24.481  0.00  0.00    +0.000 C 
BRANCH   9  10
ATOM     10  C   UNL     1       6.077  -0.889  24.350  0.00  0.00    +0.005 C 
BRANCH  10  11
ATOM     11  C   UNL     1       6.256  -1.405  22.923  0.00  0.00    +0.035 C 
BRANCH  11  12
ATOM     12  C   UNL     1       5.908  -2.868  22.871  0.00  0.00    -0.047 A 
ATOM     13  C   UNL     1       4.858  -3.372  23.650  0.00  0.00    +0.003 A 
ATOM     14  C   UNL     1       4.468  -4.704  23.527  0.00  0.00    +0.000 A 
ATOM     15  C   UNL     1       5.122  -5.541  22.624  0.00  0.00    +0.000 A 
ATOM     16  C   UNL     1       6.172  -5.050  21.850  0.00  0.00    +0.000 A 
ATOM     17  C   UNL     1       6.564  -3.718  21.971  0.00  0.00    +0.003 A 
ENDBRANCH  11  12
ENDBRANCH  10  11
ENDBRANCH   9  10
ENDBRANCH   8   9
ENDBRANCH   7   8
ENDBRANCH   6   7
ENDBRANCH   4   6
ENDBRANCH   1   2
BRANCH   1  18
ATOM     18  C   UNL     1      10.732   5.676  23.507  0.00  0.00    +0.034 C 
BRANCH  18  19
ATOM     19  C   UNL     1      12.193   5.768  23.948  0.00  0.00    +0.122 C 
BRANCH  19  20
ATOM     20  C   UNL     1      13.151   5.503  22.815  0.00  0.00    +0.305 C 
ATOM     21  O   UNL     1      12.933   5.732  21.637  0.00  0.00    -0.251 OA
BRANCH  20  22
ATOM     22  O   UNL     1      14.321   4.980  23.252  0.00  0.00    -0.481 OA
ATOM     23  H   UNL     1      14.511   4.098  22.877  0.00  0.00    +0.295 HD
ENDBRANCH  20  22
ENDBRANCH  19  20
ENDBRANCH  18  19
ENDBRANCH   1  18
BRANCH   1  24
ATOM     24  C   UNL     1      11.084   3.194  23.324  0.00  0.00    +0.057 C 
BRANCH  24  25
ATOM     25  C   UNL     1      10.538   1.782  23.294  0.00  0.00    -0.045 A 
ATOM     26  C   UNL     1      10.526   0.978  24.441  0.00  0.00    +0.007 A 
ATOM     27  C   UNL     1      10.123  -0.360  24.363  0.00  0.00    +0.046 A 
ATOM     28  C   UNL     1       9.737  -0.914  23.141  0.00  0.00    +0.121 A 
ATOM     29  C   UNL     1       9.691  -0.102  22.009  0.00  0.00    +0.046 A 
ATOM     30  C   UNL     1      10.103   1.231  22.082  0.00  0.00    +0.007 A 
BRANCH  28  31
ATOM     31  O   UNL     1       9.436  -2.250  23.158  0.00  0.00    -0.487 OA
BRANCH  31  32
ATOM     32  C   UNL     1       9.993  -2.984  24.254  0.00  0.00    +0.264 C 
BRANCH  32  33
ATOM     33  C   UNL     1       8.888  -3.619  25.060  0.00  0.00    -0.010 A 
ATOM     34  C   UNL     1       8.492  -4.938  24.794  0.00  0.00    +0.007 A 
ATOM     35  C   UNL     1       7.445  -5.522  25.508  0.00  0.00    +0.000 A 
ATOM     36  C   UNL     1       6.779  -4.791  26.488  0.00  0.00    +0.000 A 
ATOM     37  C   UNL     1       7.154  -3.474  26.752  0.00  0.00    +0.000 A 
ATOM     38  C   UNL     1       8.201  -2.888  26.038  0.00  0.00    +0.007 A 
ENDBRANCH  32  33
ENDBRANCH  31  32
ENDBRANCH  28  31
ENDBRANCH  24  25
ENDBRANCH   1  24
TORSDOF 17
ENDMDL
MODEL 2
REMARK VINA RESULT:      -7.1      0.911      2.405
REMARK  Name = 
REMARK  17 active torsions:
REMARK  status: ('A' for Active; 'I' for Inactive)
REMARK    1  A    between atoms: O_1  and  C_2
REMARK    2  A    between atoms: C_2  and  C_4
REMARK    3  A    between atoms: C_4  and  C_5
REMARK    4  A    between atoms: C_5  and  C_6
REMARK    5  A    between atoms: C_6  and  C_8
REMARK    6  A    between atoms: C_6  and  N_23
REMARK    7  A    between atoms: C_8  and  C_9
REMARK    8  A    between atoms: C_12  and  O_13
REMARK    9  A    between atoms: O_13  and  C_14
REMARK   10  A    between atoms: C_14  and  C_15
REMARK   11  A    between atoms: C_24  and  C_26
REMARK   12  A    between atoms: C_26  and  C_27
REMARK   13  A    between atoms: C_27  and  C_28
REMARK   14  A    between atoms: C_28  and  C_29
REMARK   15  A    between atoms: C_29  and  C_30
REMARK   16  A    between atoms: C_30  and  C_31
REMARK   17  A    between atoms: C_31  and  C_32
REMARK                            x       y       z     vdW  Elec       q    Type
REMARK                         _______ _______ _______ _____ _____    ______ ____
ROOT
ATOM      1  C   UNL     1      10.139   4.313  23.813  0.00  0.00    +0.078 C 
ENDROOT
BRANCH   1   2
ATOM      2  N   UNL     1       8.808   4.147  23.239  0.00  0.00    -0.312 N 
ATOM      3  H   UNL     1       8.733   3.949  22.250  0.00  0.00    +0.149 HD
ATOM      4  C   UNL     1       7.663   4.141  24.008  0.00  0.00    +0.213 C 
ATOM      5  O   UNL     1       7.646   4.392  25.209  0.00  0.00    -0.276 OA
BRANCH   4   6
ATOM      6  C   UNL     1       6.409   3.812  23.245  0.00  0.00    +0.096 C 
BRANCH   6   7
ATOM      7  C   UNL     1       6.317   2.307  23.044  0.00  0.00    +0.009 C 
BRANCH   7   8
ATOM      8  C   UNL     1       5.841   1.598  24.301  0.00  0.00    +0.000 C 
BRANCH   8   9
ATOM      9  C   UNL     1       6.237   0.125  24.237  0.00  0.00    +0.000 C 
BRANCH   9  10
ATOM     10  C   UNL     1       6.666  -0.373  25.608  0.00  0.00    +0.005 C 
BRANCH  10  11
ATOM     11  C   UNL     1       5.725  -1.461  26.123  0.00  0.00    +0.035 C 
BRANCH  11  12
ATOM     12  C   UNL     1       6.519  -2.693  26.461  0.00  0.00    -0.047 A 
ATOM     13  C   UNL     1       5.873  -3.840  26.942  0.00  0.00    +0.003 A 
ATOM     14  C   UNL     1       6.592  -5.014  27.158  0.00  0.00    +0.000 A 
ATOM     15  C   UNL     1       7.961  -5.051  26.895  0.00  0.00    +0.000 A 
ATOM     16  C   UNL     1       8.613  -3.913  26.424  0.00  0.00    +0.000 A 
ATOM     17  C   UNL     1       7.897  -2.738  26.206  0.00  0.00    +0.003 A 
ENDBRANCH  11  12
ENDBRANCH  10  11
ENDBRANCH   9  10
ENDBRANCH   8   9
ENDBRANCH   7   8
ENDBRANCH   6   7
ENDBRANCH   4   6
ENDBRANCH   1   2
BRANCH   1  18
ATOM     18  C   UNL     1      10.766   5.659  23.393  0.00  0.00    +0.034 C 
BRANCH  18  19
ATOM     19  C   UNL     1      12.205   5.852  23.869  0.00  0.00    +0.122 C 
BRANCH  19  20
ATOM     20  C   UNL     1      13.212   5.533  22.794  0.00  0.00    +0.305 C 
ATOM     21  O   UNL     1      13.053   5.721  21.599  0.00  0.00    -0.251 OA
BRANCH  20  22
ATOM     22  O   UNL     1      14.353   5.014  23.305  0.00  0.00    -0.481 OA
ATOM     23  H   UNL     1      14.195   4.270  23.920  0.00  0.00    +0.295 HD
ENDBRANCH  20  22
ENDBRANCH  19  20
ENDBRANCH  18  19
ENDBRANCH   1  18
BRANCH   1  24
ATOM     24  C   UNL     1      11.075   3.164  23.368  0.00  0.00    +0.057 C 
BRANCH  24  25
ATOM     25  C   UNL     1      10.449   1.787  23.307  0.00  0.00    -0.045 A 
ATOM     26  C   UNL     1      10.515   0.905  24.393  0.00  0.00    +0.007 A 
ATOM     27  C   UNL     1      10.030  -0.403  24.274  0.00  0.00    +0.046 A 
ATOM     28  C   UNL     1       9.484  -0.849  23.069  0.00  0.00    +0.121 A 
ATOM     29  C   UNL     1       9.362   0.043  22.005  0.00  0.00    +0.046 A 
ATOM     30  C   UNL     1       9.855   1.345  22.118  0.00  0.00    +0.007 A 
BRANCH  28  31
ATOM     31  O   UNL     1       9.111  -2.166  23.031  0.00  0.00    -0.487 OA
BRANCH  31  32
ATOM     32  C   UNL     1       8.130  -2.492  22.041  0.00  0.00    +0.264 C 
BRANCH  32  33
ATOM     33  C   UNL     1       7.091  -3.413  22.630  0.00  0.00    -0.010 A 
ATOM     34  C   UNL     1       7.454  -4.699  23.057  0.00  0.00    +0.007 A 
ATOM     35  C   UNL     1       6.494  -5.573  23.567  0.00  0.00    +0.000 A 
ATOM     36  C   UNL     1       5.162  -5.174  23.648  0.00  0.00    +0.000 A 
ATOM     37  C   UNL     1       4.787  -3.903  23.213  0.00  0.00    +0.000 A 
ATOM     38  C   UNL     1       5.746  -3.028  22.701  0.00  0.00    +0.007 A 
ENDBRANCH  32  33
ENDBRANCH  31  32
ENDBRANCH  28  31
ENDBRANCH  24  25
ENDBRANCH   1  24
TORSDOF 17
ENDMDL
MODEL 3
REMARK VINA RESULT:      -6.9      1.262      2.386
REMARK  Name = 
REMARK  17 active torsions:
REMARK  status: ('A' for Active; 'I' for Inactive)
REMARK    1  A    between atoms: O_1  and  C_2
REMARK    2  A    between atoms: C_2  and  C_4
REMARK    3  A    between atoms: C_4  and  C_5
REMARK    4  A    between atoms: C_5  and  C_6
REMARK    5  A    between atoms: C_6  and  C_8
REMARK    6  A    between atoms: C_6  and  N_23
REMARK    7  A    between atoms: C_8  and  C_9
REMARK    8  A    between atoms: C_12  and  O_13
REMARK    9  A    between atoms: O_13  and  C_14
REMARK   10  A    between atoms: C_14  and  C_15
REMARK   11  A    between atoms: C_24  and  C_26
REMARK   12  A    between atoms: C_26  and  C_27
REMARK   13  A    between atoms: C_27  and  C_28
REMARK   14  A    between atoms: C_28  and  C_29
REMARK   15  A    between atoms: C_29  and  C_30
REMARK   16  A    between atoms: C_30  and  C_31
REMARK   17  A    between atoms: C_31  and  C_32
REMARK                            x       y       z     vdW  Elec       q    Type
REMARK                         _______ _______ _______ _____ _____    ______ ____
ROOT
ATOM      1  C   UNL     1       9.662   3.889  24.145  0.00  0.00    +0.078 C 
ENDROOT
BRANCH   1   2
ATOM      2  N   UNL     1       8.248   3.707  23.833  0.00  0.00    -0.312 N 
ATOM      3  H   UNL     1       7.946   3.843  22.877  0.00  0.00    +0.149 HD
ATOM      4  C   UNL     1       7.334   3.256  24.762  0.00  0.00    +0.213 C 
ATOM      5  O   UNL     1       7.595   3.086  25.949  0.00  0.00    -0.276 OA
BRANCH   4   6
ATOM      6  C   UNL     1       5.961   3.000  24.203  0.00  0.00    +0.096 C 
BRANCH   6   7
ATOM      7  C   UNL     1       5.512   1.598  24.584  0.00  0.00    +0.009 C 
BRANCH   7   8
ATOM      8  C   UNL     1       6.453   0.537  24.040  0.00  0.00    +0.000 C 
BRANCH   8   9
ATOM      9  C   UNL     1       6.601  -0.588  25.061  0.00  0.00    +0.000 C 
BRANCH   9  10
ATOM     10  C   UNL     1       5.336  -1.428  25.119  0.00  0.00    +0.005 C 
BRANCH  10  11
ATOM     11  C   UNL     1       5.470  -2.566  26.129  0.00  0.00    +0.035 C 
BRANCH  11  12
ATOM     12  C   UNL     1       5.006  -3.853  25.502  0.00  0.00    -0.047 A 
ATOM     13  C   UNL     1       5.543  -5.076  25.923  0.00  0.00    +0.003 A 
ATOM     14  C   UNL     1       5.043  -6.275  25.417  0.00  0.00    +0.000 A 
ATOM     15  C   UNL     1       4.003  -6.259  24.488  0.00  0.00    +0.000 A 
ATOM     16  C   UNL     1       3.469  -5.045  24.058  0.00  0.00    +0.000 A 
ATOM     17  C   UNL     1       3.967  -3.846  24.563  0.00  0.00    +0.003 A 
ENDBRANCH  11  12
ENDBRANCH  10  11
ENDBRANCH   9  10
ENDBRANCH   8   9
ENDBRANCH   7   8
ENDBRANCH   6   7
ENDBRANCH   4   6
ENDBRANCH   1   2
BRANCH   1  18
ATOM     18  C   UNL     1      10.091   5.359  23.960  0.00  0.00    +0.034 C 
BRANCH  18  19
ATOM     19  C   UNL     1      11.375   5.537  23.150  0.00  0.00    +0.122 C 
BRANCH  19  20
ATOM     20  C   UNL     1      12.568   5.829  24.023  0.00  0.00    +0.305 C 
ATOM     21  O   UNL     1      12.540   6.448  25.075  0.00  0.00    -0.251 OA
BRANCH  20  22
ATOM     22  O   UNL     1      13.709   5.306  23.515  0.00  0.00    -0.481 OA
ATOM     23  H   UNL     1      14.468   5.920  23.566  0.00  0.00    +0.295 HD
ENDBRANCH  20  22
ENDBRANCH  19  20
ENDBRANCH  18  19
ENDBRANCH   1  18
BRANCH   1  24
ATOM     24  C   UNL     1      10.541   2.993  23.241  0.00  0.00    +0.057 C 
BRANCH  24  25
ATOM     25  C   UNL     1      10.266   1.506  23.314  0.00  0.00    -0.045 A 
ATOM     26  C   UNL     1      10.366   0.802  24.520  0.00  0.00    +0.007 A 
ATOM     27  C   UNL     1      10.219  -0.591  24.541  0.00  0.00    +0.046 A 
ATOM     28  C   UNL     1       9.980  -1.296  23.361  0.00  0.00    +0.121 A 
ATOM     29  C   UNL     1       9.821  -0.593  22.168  0.00  0.00    +0.046 A 
ATOM     30  C   UNL     1       9.978   0.795  22.142  0.00  0.00    +0.007 A 
BRANCH  28  31
ATOM     31  O   UNL     1       9.930  -2.660  23.477  0.00  0.00    -0.487 OA
BRANCH  31  32
ATOM     32  C   UNL     1       8.790  -3.168  24.177  0.00  0.00    +0.264 C 
BRANCH  32  33
ATOM     33  C   UNL     1       7.869  -3.875  23.215  0.00  0.00    -0.010 A 
ATOM     34  C   UNL     1       6.984  -3.136  22.417  0.00  0.00    +0.007 A 
ATOM     35  C   UNL     1       6.101  -3.782  21.552  0.00  0.00    +0.000 A 
ATOM     36  C   UNL     1       6.089  -5.173  21.482  0.00  0.00    +0.000 A 
ATOM     37  C   UNL     1       6.954  -5.920  22.281  0.00  0.00    +0.000 A 
ATOM     38  C   UNL     1       7.838  -5.275  23.148  0.00  0.00    +0.007 A 
ENDBRANCH  32  33
ENDBRANCH  31  32
ENDBRANCH  28  31
ENDBRANCH  24  25
ENDBRANCH   1  24
TORSDOF 17
ENDMDL
MODEL 4
REMARK VINA RESULT:      -6.9      1.455      3.450
REMARK  Name = 
REMARK  17 active torsions:
REMARK  status: ('A' for Active; 'I' for Inactive)
REMARK    1  A    between atoms: O_1  and  C_2
REMARK    2  A    between atoms: C_2  and  C_4
REMARK    3  A    between atoms: C_4  and  C_5
REMARK    4  A    between atoms: C_5  and  C_6
REMARK    5  A    between atoms: C_6  and  C_8
REMARK    6  A    between atoms: C_6  and  N_23
REMARK    7  A    between atoms: C_8  and  C_9
REMARK    8  A    between atoms: C_12  and  O_13
REMARK    9  A    between atoms: O_13  and  C_14
REMARK   10  A    between atoms: C_14  and  C_15
REMARK   11  A    between atoms: C_24  and  C_26
REMARK   12  A    between atoms: C_26  and  C_27
REMARK   13  A    between atoms: C_27  and  C_28
REMARK   14  A    between atoms: C_28  and  C_29
REMARK   15  A    between atoms: C_29  and  C_30
REMARK   16  A    between atoms: C_30  and  C_31
REMARK   17  A    between atoms: C_31  and  C_32
REMARK                            x       y       z     vdW  Elec       q    Type
REMARK                         _______ _______ _______ _____ _____    ______ ____
ROOT
ATOM      1  C   UNL     1      10.378   3.514  23.428  0.00  0.00    +0.078 C 
ENDROOT
BRANCH   1   2
ATOM      2  N   UNL     1       9.399   4.573  23.203  0.00  0.00    -0.312 N 
ATOM      3  H   UNL     1       9.104   4.759  22.253  0.00  0.00    +0.149 HD
ATOM      4  C   UNL     1       8.786   5.250  24.236  0.00  0.00    +0.213 C 
ATOM      5  O   UNL     1       9.090   5.113  25.417  0.00  0.00    -0.276 OA
BRANCH   4   6
ATOM      6  C   UNL     1       7.706   6.201  23.794  0.00  0.00    +0.096 C 
BRANCH   6   7
ATOM      7  C   UNL     1       6.502   6.060  24.713  0.00  0.00    +0.009 C 
BRANCH   7   8
ATOM      8  C   UNL     1       5.278   5.558  23.965  0.00  0.00    +0.000 C 
BRANCH   8   9
ATOM      9  C   UNL     1       5.712   4.901  22.658  0.00  0.00    +0.000 C 
BRANCH   9  10
ATOM     10  C   UNL     1       5.323   3.432  22.642  0.00  0.00    +0.005 C 
BRANCH  10  11
ATOM     11  C   UNL     1       6.542   2.537  22.427  0.00  0.00    +0.035 C 
BRANCH  11  12
ATOM     12  C   UNL     1       6.747   1.666  23.637  0.00  0.00    -0.047 A 
ATOM     13  C   UNL     1       7.131   2.235  24.859  0.00  0.00    +0.003 A 
ATOM     14  C   UNL     1       7.222   1.446  26.004  0.00  0.00    +0.000 A 
ATOM     15  C   UNL     1       6.928   0.084  25.937  0.00  0.00    +0.000 A 
ATOM     16  C   UNL     1       6.553  -0.491  24.724  0.00  0.00    +0.000 A 
ATOM     17  C   UNL     1       6.461   0.296  23.578  0.00  0.00    +0.003 A 
ENDBRANCH  11  12
ENDBRANCH  10  11
ENDBRANCH   9  10
ENDBRANCH   8   9
ENDBRANCH   7   8
ENDBRANCH   6   7
ENDBRANCH   4   6
ENDBRANCH   1   2
BRANCH   1  18
ATOM     18  C   UNL     1      11.803   4.089  23.570  0.00  0.00    +0.034 C 
BRANCH  18  19
ATOM     19  C   UNL     1      12.046   5.360  22.757  0.00  0.00    +0.122 C 
BRANCH  19  20
ATOM     20  C   UNL     1      13.500   5.547  22.408  0.00  0.00    +0.305 C 
ATOM     21  O   UNL     1      13.922   6.155  21.439  0.00  0.00    -0.251 OA
BRANCH  20  22
ATOM     22  O   UNL     1      14.318   4.965  23.317  0.00  0.00    -0.481 OA
ATOM     23  H   UNL     1      14.486   4.020  23.133  0.00  0.00    +0.295 HD
ENDBRANCH  20  22
ENDBRANCH  19  20
ENDBRANCH  18  19
ENDBRANCH   1  18
BRANCH   1  24
ATOM     24  C   UNL     1      10.362   2.496  22.264  0.00  0.00    +0.057 C 
BRANCH  24  25
ATOM     25  C   UNL     1      10.102   1.055  22.647  0.00  0.00    -0.045 A 
ATOM     26  C   UNL     1      10.328   0.591  23.949  0.00  0.00    +0.007 A 
ATOM     27  C   UNL     1      10.189  -0.769  24.251  0.00  0.00    +0.046 A 
ATOM     28  C   UNL     1       9.833  -1.682  23.257  0.00  0.00    +0.121 A 
ATOM     29  C   UNL     1       9.550  -1.217  21.974  0.00  0.00    +0.046 A 
ATOM     30  C   UNL     1       9.698   0.138  21.668  0.00  0.00    +0.007 A 
BRANCH  28  31
ATOM     31  O   UNL     1       9.801  -2.998  23.637  0.00  0.00    -0.487 OA
BRANCH  31  32
ATOM     32  C   UNL     1       8.588  -3.417  24.272  0.00  0.00    +0.264 C 
BRANCH  32  33
ATOM     33  C   UNL     1       7.698  -4.112  23.273  0.00  0.00    -0.010 A 
ATOM     34  C   UNL     1       7.829  -5.491  23.055  0.00  0.00    +0.007 A 
ATOM     35  C   UNL     1       7.037  -6.137  22.106  0.00  0.00    +0.000 A 
ATOM     36  C   UNL     1       6.113  -5.409  21.360  0.00  0.00    +0.000 A 
ATOM     37  C   UNL     1       5.984  -4.035  21.557  0.00  0.00    +0.000 A 
ATOM     38  C   UNL     1       6.776  -3.387  22.506  0.00  0.00    +0.007 A 
ENDBRANCH  32  33
ENDBRANCH  31  32
ENDBRANCH  28  31
ENDBRANCH  24  25
ENDBRANCH   1  24
TORSDOF 17
ENDMDL
MODEL 5
REMARK VINA RESULT:      -6.7      2.087      3.032
REMARK  Name = 
REMARK  17 active torsions:
REMARK  status: ('A' for Active; 'I' for Inactive)
REMARK    1  A    between atoms: O_1  and  C_2
REMARK    2  A    between atoms: C_2  and  C_4
REMARK    3  A    between atoms: C_4  and  C_5
REMARK    4  A    between atoms: C_5  and  C_6
REMARK    5  A    between atoms: C_6  and  C_8
REMARK    6  A    between atoms: C_6  and  N_23
REMARK    7  A    between atoms: C_8  and  C_9
REMARK    8  A    between atoms: C_12  and  O_13
REMARK    9  A    between atoms: O_13  and  C_14
REMARK   10  A    between atoms: C_14  and  C_15
REMARK   11  A    between atoms: C_24  and  C_26
REMARK   12  A    between atoms: C_26  and  C_27
REMARK   13  A    between atoms: C_27  and  C_28
REMARK   14  A    between atoms: C_28  and  C_29
REMARK   15  A    between atoms: C_29  and  C_30
REMARK   16  A    between atoms: C_30  and  C_31
REMARK   17  A    between atoms: C_31  and  C_32
REMARK                            x       y       z     vdW  Elec       q    Type
REMARK                         _______ _______ _______ _____ _____    ______ ____
ROOT
ATOM      1  C   UNL     1       9.377   4.191  24.280  0.00  0.00    +0.078 C 
ENDROOT
BRANCH   1   2
ATOM      2  N   UNL     1       8.100   3.487  24.235  0.00  0.00    -0.312 N 
ATOM      3  H   UNL     1       7.784   3.122  23.346  0.00  0.00    +0.149 HD
ATOM      4  C   UNL     1       7.366   3.207  25.369  0.00  0.00    +0.213 C 
ATOM      5  O   UNL     1       7.653   3.623  26.487  0.00  0.00    -0.276 OA
BRANCH   4   6
ATOM      6  C   UNL     1       6.155   2.349  25.122  0.00  0.00    +0.096 C 
BRANCH   6   7
ATOM      7  C   UNL     1       6.410   1.442  23.929  0.00  0.00    +0.009 C 
BRANCH   7   8
ATOM      8  C   UNL     1       6.151  -0.018  24.263  0.00  0.00    +0.000 C 
BRANCH   8   9
ATOM      9  C   UNL     1       6.888  -0.386  25.548  0.00  0.00    +0.000 C 
BRANCH   9  10
ATOM     10  C   UNL     1       6.216  -1.566  26.231  0.00  0.00    +0.005 C 
BRANCH  10  11
ATOM     11  C   UNL     1       5.042  -2.091  25.405  0.00  0.00    +0.035 C 
BRANCH  11  12
ATOM     12  C   UNL     1       5.038  -3.595  25.437  0.00  0.00    -0.047 A 
ATOM     13  C   UNL     1       5.950  -4.287  26.245  0.00  0.00    +0.003 A 
ATOM     14  C   UNL     1       5.882  -5.675  26.354  0.00  0.00    +0.000 A 
ATOM     15  C   UNL     1       4.902  -6.380  25.657  0.00  0.00    +0.000 A 
ATOM     16  C   UNL     1       3.996  -5.701  24.844  0.00  0.00    +0.000 A 
ATOM     17  C   UNL     1       4.062  -4.314  24.734  0.00  0.00    +0.003 A 
ENDBRANCH  11  12
ENDBRANCH  10  11
ENDBRANCH   9  10
ENDBRANCH   8   9
ENDBRANCH   7   8
ENDBRANCH   6   7
ENDBRANCH   4   6
ENDBRANCH   1   2
BRANCH   1  18
ATOM     18  C   UNL     1       9.269   5.588  23.634  0.00  0.00    +0.034 C 
BRANCH  18  19
ATOM     19  C   UNL     1       7.844   6.136  23.567  0.00  0.00    +0.122 C 
BRANCH  19  20
ATOM     20  C   UNL     1       7.292   6.128  22.165  0.00  0.00    +0.305 C 
ATOM     21  O   UNL     1       6.872   7.103  21.565  0.00  0.00    -0.251 OA
BRANCH  20  22
ATOM     22  O   UNL     1       7.322   4.891  21.616  0.00  0.00    -0.481 OA
ATOM     23  H   UNL     1       6.433   4.542  21.406  0.00  0.00    +0.295 HD
ENDBRANCH  20  22
ENDBRANCH  19  20
ENDBRANCH  18  19
ENDBRANCH   1  18
BRANCH   1  24
ATOM     24  C   UNL     1      10.474   3.384  23.546  0.00  0.00    +0.057 C 
BRANCH  24  25
ATOM     25  C   UNL     1      10.235   1.893  23.433  0.00  0.00    -0.045 A 
ATOM     26  C   UNL     1      10.381   1.043  24.537  0.00  0.00    +0.007 A 
ATOM     27  C   UNL     1      10.266  -0.344  24.383  0.00  0.00    +0.046 A 
ATOM     28  C   UNL     1      10.016  -0.899  23.127  0.00  0.00    +0.121 A 
ATOM     29  C   UNL     1       9.812  -0.054  22.037  0.00  0.00    +0.046 A 
ATOM     30  C   UNL     1       9.936   1.329  22.187  0.00  0.00    +0.007 A 
BRANCH  28  31
ATOM     31  O   UNL     1      10.000  -2.267  23.069  0.00  0.00    -0.487 OA
BRANCH  31  32
ATOM     32  C   UNL     1       9.107  -2.904  23.988  0.00  0.00    +0.264 C 
BRANCH  32  33
ATOM     33  C   UNL     1       8.017  -3.622  23.233  0.00  0.00    -0.010 A 
ATOM     34  C   UNL     1       7.922  -5.020  23.296  0.00  0.00    +0.007 A 
ATOM     35  C   UNL     1       6.942  -5.696  22.570  0.00  0.00    +0.000 A 
ATOM     36  C   UNL     1       6.054  -4.984  21.768  0.00  0.00    +0.000 A 
ATOM     37  C   UNL     1       6.148  -3.595  21.685  0.00  0.00    +0.000 A 
ATOM     38  C   UNL     1       7.128  -2.916  22.410  0.00  0.00    +0.007 A 
ENDBRANCH  32  33
ENDBRANCH  31  32
ENDBRANCH  28  31
ENDBRANCH  24  25
ENDBRANCH   1  24
TORSDOF 17
ENDMDL
MODEL 6
REMARK VINA RESULT:      -6.5      3.261      8.549
REMARK  Name = 
REMARK  17 active torsions:
REMARK  status: ('A' for Active; 'I' for Inactive)
REMARK    1  A    between atoms: O_1  and  C_2
REMARK    2  A    between atoms: C_2  and  C_4
REMARK    3  A    between atoms: C_4  and  C_5
REMARK    4  A    between atoms: C_5  and  C_6
REMARK    5  A    between atoms: C_6  and  C_8
REMARK    6  A    between atoms: C_6  and  N_23
REMARK    7  A    between atoms: C_8  and  C_9
REMARK    8  A    between atoms: C_12  and  O_13
REMARK    9  A    between atoms: O_13  and  C_14
REMARK   10  A    between atoms: C_14  and  C_15
REMARK   11  A    between atoms: C_24  and  C_26
REMARK   12  A    between atoms: C_26  and  C_27
REMARK   13  A    between atoms: C_27  and  C_28
REMARK   14  A    between atoms: C_28  and  C_29
REMARK   15  A    between atoms: C_29  and  C_30
REMARK   16  A    between atoms: C_30  and  C_31
REMARK   17  A    between atoms: C_31  and  C_32
REMARK                            x       y       z     vdW  Elec       q    Type
REMARK                         _______ _______ _______ _____ _____    ______ ____
ROOT
ATOM      1  C   UNL     1       4.233  -4.819  25.882  0.00  0.00    +0.078 C 
ENDROOT
BRANCH   1   2
ATOM      2  N   UNL     1       4.846  -3.532  26.200  0.00  0.00    -0.312 N 
ATOM      3  H   UNL     1       5.835  -3.511  26.409  0.00  0.00    +0.149 HD
ATOM      4  C   UNL     1       4.155  -2.341  26.121  0.00  0.00    +0.213 C 
ATOM      5  O   UNL     1       2.951  -2.264  25.898  0.00  0.00    -0.276 OA
BRANCH   4   6
ATOM      6  C   UNL     1       5.004  -1.120  26.349  0.00  0.00    +0.096 C 
BRANCH   6   7
ATOM      7  C   UNL     1       6.470  -1.480  26.161  0.00  0.00    +0.009 C 
BRANCH   7   8
ATOM      8  C   UNL     1       7.199  -0.452  25.312  0.00  0.00    +0.000 C 
BRANCH   8   9
ATOM      9  C   UNL     1       6.386  -0.159  24.054  0.00  0.00    +0.000 C 
BRANCH   9  10
ATOM     10  C   UNL     1       6.624   1.267  23.583  0.00  0.00    +0.005 C 
BRANCH  10  11
ATOM     11  C   UNL     1       6.380   2.271  24.707  0.00  0.00    +0.035 C 
BRANCH  11  12
ATOM     12  C   UNL     1       7.178   3.520  24.448  0.00  0.00    -0.047 A 
ATOM     13  C   UNL     1       8.077   3.996  25.412  0.00  0.00    +0.003 A 
ATOM     14  C   UNL     1       8.891   5.093  25.134  0.00  0.00    +0.000 A 
ATOM     15  C   UNL     1       8.813   5.720  23.891  0.00  0.00    +0.000 A 
ATOM     16  C   UNL     1       7.916   5.257  22.929  0.00  0.00    +0.000 A 
ATOM     17  C   UNL     1       7.102   4.161  23.205  0.00  0.00    +0.003 A 
ENDBRANCH  11  12
ENDBRANCH  10  11
ENDBRANCH   9  10
ENDBRANCH   8   9
ENDBRANCH   7   8
ENDBRANCH   6   7
ENDBRANCH   4   6
ENDBRANCH   1   2
BRANCH   1  18
ATOM     18  C   UNL     1       4.008  -5.661  27.155  0.00  0.00    +0.034 C 
BRANCH  18  19
ATOM     19  C   UNL     1       5.093  -6.707  27.411  0.00  0.00    +0.122 C 
BRANCH  19  20
ATOM     20  C   UNL     1       6.168  -6.201  28.338  0.00  0.00    +0.305 C 
ATOM     21  O   UNL     1       6.660  -5.085  28.309  0.00  0.00    -0.251 OA
BRANCH  20  22
ATOM     22  O   UNL     1       6.535  -7.136  29.246  0.00  0.00    -0.481 OA
ATOM     23  H   UNL     1       6.245  -8.039  29.007  0.00  0.00    +0.295 HD
ENDBRANCH  20  22
ENDBRANCH  19  20
ENDBRANCH  18  19
ENDBRANCH   1  18
BRANCH   1  24
ATOM     24  C   UNL     1       5.121  -5.620  24.902  0.00  0.00    +0.057 C 
BRANCH  24  25
ATOM     25  C   UNL     1       6.106  -4.810  24.086  0.00  0.00    -0.045 A 
ATOM     26  C   UNL     1       7.443  -4.673  24.479  0.00  0.00    +0.007 A 
ATOM     27  C   UNL     1       8.306  -3.826  23.773  0.00  0.00    +0.046 A 
ATOM     28  C   UNL     1       7.844  -3.100  22.674  0.00  0.00    +0.121 A 
ATOM     29  C   UNL     1       6.530  -3.278  22.244  0.00  0.00    +0.046 A 
ATOM     30  C   UNL     1       5.665  -4.114  22.954  0.00  0.00    +0.007 A 
BRANCH  28  31
ATOM     31  O   UNL     1       8.744  -2.242  22.101  0.00  0.00    -0.487 OA
BRANCH  31  32
ATOM     32  C   UNL     1       9.863  -1.897  22.925  0.00  0.00    +0.264 C 
BRANCH  32  33
ATOM     33  C   UNL     1      10.061  -0.402  22.922  0.00  0.00    -0.010 A 
ATOM     34  C   UNL     1      10.551   0.245  24.066  0.00  0.00    +0.007 A 
ATOM     35  C   UNL     1      10.702   1.631  24.087  0.00  0.00    +0.000 A 
ATOM     36  C   UNL     1      10.356   2.385  22.969  0.00  0.00    +0.000 A 
ATOM     37  C   UNL     1       9.853   1.756  21.831  0.00  0.00    +0.000 A 
ATOM     38  C   UNL     1       9.701   0.369  21.808  0.00  0.00    +0.007 A 
ENDBRANCH  32  33
ENDBRANCH  31  32
ENDBRANCH  28  31
ENDBRANCH  24  25
ENDBRANCH   1  24
TORSDOF 17
ENDMDL
MODEL 7
REMARK VINA RESULT:      -6.5      3.741      9.412
REMARK  Name = 
REMARK  17 active torsions:
REMARK  status: ('A' for Active; 'I' for Inactive)
REMARK    1  A    between atoms: O_1  and  C_2
REMARK    2  A    between atoms: C_2  and  C_4
REMARK    3  A    between atoms: C_4  and  C_5
REMARK    4  A    between atoms: C_5  and  C_6
REMARK    5  A    between atoms: C_6  and  C_8
REMARK    6  A    between atoms: C_6  and  N_23
REMARK    7  A    between atoms: C_8  and  C_9
REMARK    8  A    between atoms: C_12  and  O_13
REMARK    9  A    between atoms: O_13  and  C_14
REMARK   10  A    between atoms: C_14  and  C_15
REMARK   11  A    between atoms: C_24  and  C_26
REMARK   12  A    between atoms: C_26  and  C_27
REMARK   13  A    between atoms: C_27  and  C_28
REMARK   14  A    between atoms: C_28  and  C_29
REMARK   15  A    between atoms: C_29  and  C_30
REMARK   16  A    between atoms: C_30  and  C_31
REMARK   17  A    between atoms: C_31  and  C_32
REMARK                            x       y       z     vdW  Elec       q    Type
REMARK                         _______ _______ _______ _____ _____    ______ ____
ROOT
ATOM      1  C   UNL     1       3.830  -5.967  25.090  0.00  0.00    +0.078 C 
ENDROOT
BRANCH   1   2
ATOM      2  N   UNL     1       4.888  -5.930  26.094  0.00  0.00    -0.312 N 
ATOM      3  H   UNL     1       5.497  -6.733  26.180  0.00  0.00    +0.149 HD
ATOM      4  C   UNL     1       5.154  -4.808  26.852  0.00  0.00    +0.213 C 
ATOM      5  O   UNL     1       4.461  -3.796  26.838  0.00  0.00    -0.276 OA
BRANCH   4   6
ATOM      6  C   UNL     1       6.373  -4.929  27.725  0.00  0.00    +0.096 C 
BRANCH   6   7
ATOM      7  C   UNL     1       7.611  -5.061  26.852  0.00  0.00    +0.009 C 
BRANCH   7   8
ATOM      8  C   UNL     1       7.729  -3.912  25.864  0.00  0.00    +0.000 C 
BRANCH   8   9
ATOM      9  C   UNL     1       8.774  -2.916  26.360  0.00  0.00    +0.000 C 
BRANCH   9  10
ATOM     10  C   UNL     1       8.144  -1.554  26.599  0.00  0.00    +0.005 C 
BRANCH  10  11
ATOM     11  C   UNL     1       6.949  -1.325  25.676  0.00  0.00    +0.035 C 
BRANCH  11  12
ATOM     12  C   UNL     1       6.940   0.105  25.210  0.00  0.00    -0.047 A 
ATOM     13  C   UNL     1       7.546   1.103  25.983  0.00  0.00    +0.003 A 
ATOM     14  C   UNL     1       7.628   2.411  25.506  0.00  0.00    +0.000 A 
ATOM     15  C   UNL     1       7.106   2.728  24.253  0.00  0.00    +0.000 A 
ATOM     16  C   UNL     1       6.494   1.743  23.480  0.00  0.00    +0.000 A 
ATOM     17  C   UNL     1       6.411   0.435  23.955  0.00  0.00    +0.003 A 
ENDBRANCH  11  12
ENDBRANCH  10  11
ENDBRANCH   9  10
ENDBRANCH   8   9
ENDBRANCH   7   8
ENDBRANCH   6   7
ENDBRANCH   4   6
ENDBRANCH   1   2
BRANCH   1  18
ATOM     18  C   UNL     1       2.753  -7.011  25.449  0.00  0.00    +0.034 C 
BRANCH  18  19
ATOM     19  C   UNL     1       1.916  -7.478  24.258  0.00  0.00    +0.122 C 
BRANCH  19  20
ATOM     20  C   UNL     1       1.528  -8.930  24.366  0.00  0.00    +0.305 C 
ATOM     21  O   UNL     1       0.624  -9.469  23.748  0.00  0.00    -0.251 OA
BRANCH  20  22
ATOM     22  O   UNL     1       2.318  -9.603  25.236  0.00  0.00    -0.481 OA
ATOM     23  H   UNL     1       2.225  -9.293  26.158  0.00  0.00    +0.295 HD
ENDBRANCH  20  22
ENDBRANCH  19  20
ENDBRANCH  18  19
ENDBRANCH   1  18
BRANCH   1  24
ATOM     24  C   UNL     1       4.411  -6.305  23.696  0.00  0.00    +0.057 C 
BRANCH  24  25
ATOM     25  C   UNL     1       5.351  -5.278  23.103  0.00  0.00    -0.045 A 
ATOM     26  C   UNL     1       6.656  -5.614  22.721  0.00  0.00    +0.007 A 
ATOM     27  C   UNL     1       7.543  -4.624  22.282  0.00  0.00    +0.046 A 
ATOM     28  C   UNL     1       7.144  -3.287  22.229  0.00  0.00    +0.121 A 
ATOM     29  C   UNL     1       5.829  -2.956  22.552  0.00  0.00    +0.046 A 
ATOM     30  C   UNL     1       4.945  -3.941  23.000  0.00  0.00    +0.007 A 
BRANCH  28  31
ATOM     31  O   UNL     1       8.109  -2.388  21.863  0.00  0.00    -0.487 OA
BRANCH  31  32
ATOM     32  C   UNL     1       9.203  -2.264  22.777  0.00  0.00    +0.264 C 
BRANCH  32  33
ATOM     33  C   UNL     1       9.632  -0.822  22.874  0.00  0.00    -0.010 A 
ATOM     34  C   UNL     1       9.393   0.056  21.806  0.00  0.00    +0.007 A 
ATOM     35  C   UNL     1       9.820   1.382  21.870  0.00  0.00    +0.000 A 
ATOM     36  C   UNL     1      10.498   1.841  22.997  0.00  0.00    +0.000 A 
ATOM     37  C   UNL     1      10.755   0.974  24.058  0.00  0.00    +0.000 A 
ATOM     38  C   UNL     1      10.329  -0.353  23.996  0.00  0.00    +0.007 A 
ENDBRANCH  32  33
ENDBRANCH  31  32
ENDBRANCH  28  31
ENDBRANCH  24  25
ENDBRANCH   1  24
TORSDOF 17
ENDMDL
MODEL 8
REMARK VINA RESULT:      -6.5      1.636      3.182
REMARK  Name = 
REMARK  17 active torsions:
REMARK  status: ('A' for Active; 'I' for Inactive)
REMARK    1  A    between atoms: O_1  and  C_2
REMARK    2  A    between atoms: C_2  and  C_4
REMARK    3  A    between atoms: C_4  and  C_5
REMARK    4  A    between atoms: C_5  and  C_6
REMARK    5  A    between atoms: C_6  and  C_8
REMARK    6  A    between atoms: C_6  and  N_23
REMARK    7  A    between atoms: C_8  and  C_9
REMARK    8  A    between atoms: C_12  and  O_13
REMARK    9  A    between atoms: O_13  and  C_14
REMARK   10  A    between atoms: C_14  and  C_15
REMARK   11  A    between atoms: C_24  and  C_26
REMARK   12  A    between atoms: C_26  and  C_27
REMARK   13  A    between atoms: C_27  and  C_28
REMARK   14  A    between atoms: C_28  and  C_29
REMARK   15  A    between atoms: C_29  and  C_30
REMARK   16  A    between atoms: C_30  and  C_31
REMARK   17  A    between atoms: C_31  and  C_32
REMARK                            x       y       z     vdW  Elec       q    Type
REMARK                         _______ _______ _______ _____ _____    ______ ____
ROOT
ATOM      1  C   UNL     1       8.741   4.466  23.712  0.00  0.00    +0.078 C 
ENDROOT
BRANCH   1   2
ATOM      2  N   UNL     1       9.719   3.387  23.620  0.00  0.00    -0.312 N 
ATOM      3  H   UNL     1      10.480   3.370  24.286  0.00  0.00    +0.149 HD
ATOM      4  C   UNL     1       9.587   2.338  22.734  0.00  0.00    +0.213 C 
ATOM      5  O   UNL     1       8.715   2.278  21.873  0.00  0.00    -0.276 OA
BRANCH   4   6
ATOM      6  C   UNL     1      10.624   1.260  22.896  0.00  0.00    +0.096 C 
BRANCH   6   7
ATOM      7  C   UNL     1      10.482   0.623  24.270  0.00  0.00    +0.009 C 
BRANCH   7   8
ATOM      8  C   UNL     1       9.561  -0.585  24.241  0.00  0.00    +0.000 C 
BRANCH   8   9
ATOM      9  C   UNL     1      10.062  -1.584  23.201  0.00  0.00    +0.000 C 
BRANCH   9  10
ATOM     10  C   UNL     1       8.949  -1.955  22.235  0.00  0.00    +0.005 C 
BRANCH  10  11
ATOM     11  C   UNL     1       7.578  -1.839  22.898  0.00  0.00    +0.035 C 
BRANCH  11  12
ATOM     12  C   UNL     1       6.852  -3.153  22.786  0.00  0.00    -0.047 A 
ATOM     13  C   UNL     1       7.568  -4.338  22.570  0.00  0.00    +0.003 A 
ATOM     14  C   UNL     1       6.910  -5.567  22.567  0.00  0.00    +0.000 A 
ATOM     15  C   UNL     1       5.533  -5.619  22.782  0.00  0.00    +0.000 A 
ATOM     16  C   UNL     1       4.812  -4.444  22.990  0.00  0.00    +0.000 A 
ATOM     17  C   UNL     1       5.468  -3.215  22.993  0.00  0.00    +0.003 A 
ENDBRANCH  11  12
ENDBRANCH  10  11
ENDBRANCH   9  10
ENDBRANCH   8   9
ENDBRANCH   7   8
ENDBRANCH   6   7
ENDBRANCH   4   6
ENDBRANCH   1   2
BRANCH   1  18
ATOM     18  C   UNL     1       9.427   5.847  23.689  0.00  0.00    +0.034 C 
BRANCH  18  19
ATOM     19  C   UNL     1      10.539   6.009  24.726  0.00  0.00    +0.122 C 
BRANCH  19  20
ATOM     20  C   UNL     1      11.911   5.922  24.110  0.00  0.00    +0.305 C 
ATOM     21  O   UNL     1      12.202   5.274  23.118  0.00  0.00    -0.251 OA
BRANCH  20  22
ATOM     22  O   UNL     1      12.818   6.669  24.784  0.00  0.00    -0.481 OA
ATOM     23  H   UNL     1      12.817   6.498  25.746  0.00  0.00    +0.295 HD
ENDBRANCH  20  22
ENDBRANCH  19  20
ENDBRANCH  18  19
ENDBRANCH   1  18
BRANCH   1  24
ATOM     24  C   UNL     1       7.909   4.341  25.011  0.00  0.00    +0.057 C 
BRANCH  24  25
ATOM     25  C   UNL     1       7.221   3.010  25.230  0.00  0.00    -0.045 A 
ATOM     26  C   UNL     1       7.568   2.174  26.299  0.00  0.00    +0.007 A 
ATOM     27  C   UNL     1       6.998   0.901  26.416  0.00  0.00    +0.046 A 
ATOM     28  C   UNL     1       6.085   0.443  25.464  0.00  0.00    +0.121 A 
ATOM     29  C   UNL     1       5.692   1.293  24.432  0.00  0.00    +0.046 A 
ATOM     30  C   UNL     1       6.267   2.561  24.308  0.00  0.00    +0.007 A 
BRANCH  28  31
ATOM     31  O   UNL     1       5.646  -0.845  25.625  0.00  0.00    -0.487 OA
BRANCH  31  32
ATOM     32  C   UNL     1       6.036  -1.470  26.853  0.00  0.00    +0.264 C 
BRANCH  32  33
ATOM     33  C   UNL     1       6.705  -2.791  26.567  0.00  0.00    -0.010 A 
ATOM     34  C   UNL     1       5.953  -3.975  26.570  0.00  0.00    +0.007 A 
ATOM     35  C   UNL     1       6.568  -5.206  26.345  0.00  0.00    +0.000 A 
ATOM     36  C   UNL     1       7.942  -5.267  26.124  0.00  0.00    +0.000 A 
ATOM     37  C   UNL     1       8.703  -4.098  26.133  0.00  0.00    +0.000 A 
ATOM     38  C   UNL     1       8.089  -2.866  26.358  0.00  0.00    +0.007 A 
ENDBRANCH  32  33
ENDBRANCH  31  32
ENDBRANCH  28  31
ENDBRANCH  24  25
ENDBRANCH   1  24
TORSDOF 17
ENDMDL
MODEL 9
REMARK VINA RESULT:      -6.4      3.355      8.501
REMARK  Name = 
REMARK  17 active torsions:
REMARK  status: ('A' for Active; 'I' for Inactive)
REMARK    1  A    between atoms: O_1  and  C_2
REMARK    2  A    between atoms: C_2  and  C_4
REMARK    3  A    between atoms: C_4  and  C_5
REMARK    4  A    between atoms: C_5  and  C_6
REMARK    5  A    between atoms: C_6  and  C_8
REMARK    6  A    between atoms: C_6  and  N_23
REMARK    7  A    between atoms: C_8  and  C_9
REMARK    8  A    between atoms: C_12  and  O_13
REMARK    9  A    between atoms: O_13  and  C_14
REMARK   10  A    between atoms: C_14  and  C_15
REMARK   11  A    between atoms: C_24  and  C_26
REMARK   12  A    between atoms: C_26  and  C_27
REMARK   13  A    between atoms: C_27  and  C_28
REMARK   14  A    between atoms: C_28  and  C_29
REMARK   15  A    between atoms: C_29  and  C_30
REMARK   16  A    between atoms: C_30  and  C_31
REMARK   17  A    between atoms: C_31  and  C_32
REMARK                            x       y       z     vdW  Elec       q    Type
REMARK                         _______ _______ _______ _____ _____    ______ ____
ROOT
ATOM      1  C   UNL     1       4.543  -5.585  25.687  0.00  0.00    +0.078 C 
ENDROOT
BRANCH   1   2
ATOM      2  N   UNL     1       4.949  -4.297  26.239  0.00  0.00    -0.312 N 
ATOM      3  H   UNL     1       5.762  -4.267  26.840  0.00  0.00    +0.149 HD
ATOM      4  C   UNL     1       4.334  -3.112  25.890  0.00  0.00    +0.213 C 
ATOM      5  O   UNL     1       3.329  -3.045  25.190  0.00  0.00    -0.276 OA
BRANCH   4   6
ATOM      6  C   UNL     1       4.994  -1.885  26.459  0.00  0.00    +0.096 C 
BRANCH   6   7
ATOM      7  C   UNL     1       6.437  -2.205  26.816  0.00  0.00    +0.009 C 
BRANCH   7   8
ATOM      8  C   UNL     1       7.405  -1.203  26.207  0.00  0.00    +0.000 C 
BRANCH   8   9
ATOM      9  C   UNL     1       7.491   0.032  27.101  0.00  0.00    +0.000 C 
BRANCH   9  10
ATOM     10  C   UNL     1       7.451   1.301  26.265  0.00  0.00    +0.005 C 
BRANCH  10  11
ATOM     11  C   UNL     1       6.798   1.051  24.907  0.00  0.00    +0.035 C 
BRANCH  11  12
ATOM     12  C   UNL     1       6.911   2.289  24.060  0.00  0.00    -0.047 A 
ATOM     13  C   UNL     1       7.477   3.456  24.588  0.00  0.00    +0.003 A 
ATOM     14  C   UNL     1       7.676   4.572  23.776  0.00  0.00    +0.000 A 
ATOM     15  C   UNL     1       7.311   4.527  22.431  0.00  0.00    +0.000 A 
ATOM     16  C   UNL     1       6.740   3.372  21.899  0.00  0.00    +0.000 A 
ATOM     17  C   UNL     1       6.541   2.256  22.709  0.00  0.00    +0.003 A 
ENDBRANCH  11  12
ENDBRANCH  10  11
ENDBRANCH   9  10
ENDBRANCH   8   9
ENDBRANCH   7   8
ENDBRANCH   6   7
ENDBRANCH   4   6
ENDBRANCH   1   2
BRANCH   1  18
ATOM     18  C   UNL     1       4.645  -6.705  26.743  0.00  0.00    +0.034 C 
BRANCH  18  19
ATOM     19  C   UNL     1       4.727  -6.198  28.183  0.00  0.00    +0.122 C 
BRANCH  19  20
ATOM     20  C   UNL     1       6.075  -6.455  28.805  0.00  0.00    +0.305 C 
ATOM     21  O   UNL     1       6.272  -7.080  29.834  0.00  0.00    -0.251 OA
BRANCH  20  22
ATOM     22  O   UNL     1       7.081  -5.916  28.075  0.00  0.00    -0.481 OA
ATOM     23  H   UNL     1       7.951  -5.977  28.517  0.00  0.00    +0.295 HD
ENDBRANCH  20  22
ENDBRANCH  19  20
ENDBRANCH  18  19
ENDBRANCH   1  18
BRANCH   1  24
ATOM     24  C   UNL     1       5.422  -5.961  24.472  0.00  0.00    +0.057 C 
BRANCH  24  25
ATOM     25  C   UNL     1       6.541  -4.996  24.140  0.00  0.00    -0.045 A 
ATOM     26  C   UNL     1       6.422  -4.070  23.096  0.00  0.00    +0.007 A 
ATOM     27  C   UNL     1       7.511  -3.267  22.735  0.00  0.00    +0.046 A 
ATOM     28  C   UNL     1       8.731  -3.385  23.402  0.00  0.00    +0.121 A 
ATOM     29  C   UNL     1       8.836  -4.263  24.479  0.00  0.00    +0.046 A 
ATOM     30  C   UNL     1       7.754  -5.073  24.835  0.00  0.00    +0.007 A 
BRANCH  28  31
ATOM     31  O   UNL     1       9.754  -2.612  22.921  0.00  0.00    -0.487 OA
BRANCH  31  32
ATOM     32  C   UNL     1       9.354  -1.548  22.051  0.00  0.00    +0.264 C 
BRANCH  32  33
ATOM     33  C   UNL     1       9.787  -0.223  22.628  0.00  0.00    -0.010 A 
ATOM     34  C   UNL     1       9.820   0.920  21.816  0.00  0.00    +0.007 A 
ATOM     35  C   UNL     1      10.255   2.141  22.329  0.00  0.00    +0.000 A 
ATOM     36  C   UNL     1      10.670   2.231  23.655  0.00  0.00    +0.000 A 
ATOM     37  C   UNL     1      10.656   1.098  24.469  0.00  0.00    +0.000 A 
ATOM     38  C   UNL     1      10.221  -0.125  23.957  0.00  0.00    +0.007 A 
ENDBRANCH  32  33
ENDBRANCH  31  32
ENDBRANCH  28  31
ENDBRANCH  24  25
ENDBRANCH   1  24
TORSDOF 17
ENDMDL
