MODEL 1
REMARK VINA RESULT:      -6.2      0.000      0.000
REMARK  Name = 
REMARK  9 active torsions:
REMARK  status: ('A' for Active; 'I' for Inactive)
REMARK    1  A    between atoms: O_1  and  C_2
REMARK    2  A    between atoms: C_4  and  O_6
REMARK    3  A    between atoms: C_7  and  N_18
REMARK    4  A    between atoms: C_10  and  C_12
REMARK    5  A    between atoms: C_12  and  O_13
REMARK    6  A    between atoms: O_13  and  P_14
REMARK    7  A    between atoms: P_14  and  O_15
REMARK    8  A    between atoms: P_14  and  O_16
REMARK    9  A    between atoms: C_25  and  O_26
REMARK                            x       y       z     vdW  Elec       q    Type
REMARK                         _______ _______ _______ _____ _____    ______ ____
ROOT
ATOM      1  C   UNL     1       8.123  -2.884  26.393  0.00  0.00    +0.178 C 
ATOM      2  C   UNL     1       6.652  -2.816  25.972  0.00  0.00    +0.178 C 
ATOM      3  O   UNL     1       6.572  -3.104  24.564  0.00  0.00    -0.345 OA
ATOM      4  C   UNL     1       7.913  -3.214  24.044  0.00  0.00    +0.258 C 
ATOM      5  C   UNL     1       8.756  -3.670  25.261  0.00  0.00    +0.195 C 
ENDROOT
BRANCH   4   6
ATOM      6  N   UNL     1       8.397  -1.963  23.414  0.00  0.00    -0.235 N 
ATOM      7  C   UNL     1       7.595  -0.918  22.982  0.00  0.00    +0.204 A 
ATOM      8  C   UNL     1       8.106   0.197  22.449  0.00  0.00    +0.135 A 
ATOM      9  C   UNL     1       9.560   0.324  22.314  0.00  0.00    +0.258 A 
ATOM     10  O   UNL     1      10.066   1.366  21.923  0.00  0.00    -0.268 OA
ATOM     11  N   UNL     1      10.275  -0.780  22.651  0.00  0.00    -0.275 N 
ATOM     12  H   UNL     1      11.276  -0.735  22.536  0.00  0.00    +0.173 HD
ATOM     13  C   UNL     1       9.763  -1.936  23.159  0.00  0.00    +0.334 A 
ATOM     14  O   UNL     1      10.527  -2.879  23.385  0.00  0.00    -0.246 OA
BRANCH   7  15
ATOM     15  O   UNL     1       6.232  -1.030  23.140  0.00  0.00    -0.493 OA
ATOM     16  H   UNL     1       5.822  -1.294  22.298  0.00  0.00    +0.294 HD
ENDBRANCH   7  15
ENDBRANCH   4   6
BRANCH   1  17
ATOM     17  O   UNL     1       8.704  -1.576  26.474  0.00  0.00    -0.386 OA
ATOM     18  H   UNL     1       8.658  -1.281  27.401  0.00  0.00    +0.210 HD
ENDBRANCH   1  17
BRANCH   5  19
ATOM     19  O   UNL     1       8.581  -5.076  25.492  0.00  0.00    -0.385 OA
ATOM     20  H   UNL     1       9.407  -5.516  25.219  0.00  0.00    +0.210 HD
ENDBRANCH   5  19
BRANCH   2  21
ATOM     21  C   UNL     1       5.779  -3.796  26.739  0.00  0.00    +0.206 C 
BRANCH  21  22
ATOM     22  O   UNL     1       6.570  -4.398  27.754  0.00  0.00    -0.284 OA
BRANCH  22  23
ATOM     23  P   UNL     1       6.061  -6.012  28.113  0.00  0.00    +0.472 P 
ATOM     24  O   UNL     1       5.606  -7.457  28.435  0.00  0.00    -0.228 OA
BRANCH  23  25
ATOM     25  O   UNL     1       7.668  -6.329  28.096  0.00  0.00    -0.303 OA
ATOM     26  H   UNL     1       8.012  -6.345  29.008  0.00  0.00    +0.222 HD
ENDBRANCH  23  25
BRANCH  23  27
ATOM     27  O   UNL     1       5.921  -6.123  26.486  0.00  0.00    -0.303 OA
ATOM     28  H   UNL     1       5.954  -7.076  26.281  0.00  0.00    +0.222 HD
ENDBRANCH  23  27
ENDBRANCH  22  23
ENDBRANCH  21  22
ENDBRANCH   2  21
TORSDOF 9
ENDMDL
MODEL 2
REMARK VINA RESULT:      -6.1      2.847      6.549
REMARK  Name = 
REMARK  9 active torsions:
REMARK  status: ('A' for Active; 'I' for Inactive)
REMARK    1  A    between atoms: O_1  and  C_2
REMARK    2  A    between atoms: C_4  and  O_6
REMARK    3  A    between atoms: C_7  and  N_18
REMARK    4  A    between atoms: C_10  and  C_12
REMARK    5  A    between atoms: C_12  and  O_13
REMARK    6  A    between atoms: O_13  and  P_14
REMARK    7  A    between atoms: P_14  and  O_15
REMARK    8  A    between atoms: P_14  and  O_16
REMARK    9  A    between atoms: C_25  and  O_26
REMARK                            x       y       z     vdW  Elec       q    Type
REMARK                         _______ _______ _______ _____ _____    ______ ____
ROOT
ATOM      1  C   UNL     1       8.212  -2.073  22.526  0.00  0.00    +0.178 C 
ATOM      2  C   UNL     1       7.902  -0.828  23.363  0.00  0.00    +0.178 C 
ATOM      3  O   UNL     1       8.688  -0.888  24.567  0.00  0.00    -0.345 OA
ATOM      4  C   UNL     1       9.367  -2.159  24.606  0.00  0.00    +0.258 C 
ATOM      5  C   UNL     1       9.524  -2.551  23.116  0.00  0.00    +0.195 C 
ENDROOT
BRANCH   4   6
ATOM      6  N   UNL     1       8.659  -3.173  25.422  0.00  0.00    -0.235 N 
ATOM      7  C   UNL     1       7.589  -2.920  26.268  0.00  0.00    +0.204 A 
ATOM      8  C   UNL     1       6.977  -3.893  26.952  0.00  0.00    +0.135 A 
ATOM      9  C   UNL     1       7.448  -5.274  26.806  0.00  0.00    +0.258 A 
ATOM     10  O   UNL     1       6.853  -6.200  27.338  0.00  0.00    -0.268 OA
ATOM     11  N   UNL     1       8.567  -5.432  26.054  0.00  0.00    -0.275 N 
ATOM     12  H   UNL     1       8.935  -6.366  25.963  0.00  0.00    +0.173 HD
ATOM     13  C   UNL     1       9.222  -4.443  25.383  0.00  0.00    +0.334 A 
ATOM     14  O   UNL     1      10.254  -4.721  24.766  0.00  0.00    -0.246 OA
BRANCH   7  15
ATOM     15  O   UNL     1       7.132  -1.626  26.376  0.00  0.00    -0.493 OA
ATOM     16  H   UNL     1       7.445  -1.100  25.619  0.00  0.00    +0.294 HD
ENDBRANCH   7  15
ENDBRANCH   4   6
BRANCH   1  17
ATOM     17  O   UNL     1       7.200  -3.075  22.689  0.00  0.00    -0.386 OA
ATOM     18  H   UNL     1       6.457  -2.854  22.100  0.00  0.00    +0.210 HD
ENDBRANCH   1  17
BRANCH   5  19
ATOM     19  O   UNL     1      10.613  -1.830  22.521  0.00  0.00    -0.385 OA
ATOM     20  H   UNL     1      11.040  -1.318  23.232  0.00  0.00    +0.210 HD
ENDBRANCH   5  19
BRANCH   2  21
ATOM     21  C   UNL     1       8.210   0.464  22.622  0.00  0.00    +0.206 C 
BRANCH  21  22
ATOM     22  O   UNL     1       8.363   1.502  23.580  0.00  0.00    -0.284 OA
BRANCH  22  23
ATOM     23  P   UNL     1       9.786   2.448  23.304  0.00  0.00    +0.472 P 
ATOM     24  O   UNL     1      11.059   3.293  23.056  0.00  0.00    -0.228 OA
BRANCH  23  25
ATOM     25  O   UNL     1       9.393   2.246  21.726  0.00  0.00    -0.303 OA
ATOM     26  H   UNL     1       8.560   2.713  21.531  0.00  0.00    +0.222 HD
ENDBRANCH  23  25
BRANCH  23  27
ATOM     27  O   UNL     1      10.535   0.996  23.406  0.00  0.00    -0.303 OA
ATOM     28  H   UNL     1       9.822   0.334  23.475  0.00  0.00    +0.222 HD
ENDBRANCH  23  27
ENDBRANCH  22  23
ENDBRANCH  21  22
ENDBRANCH   2  21
TORSDOF 9
ENDMDL
MODEL 3
REMARK VINA RESULT:      -6.0      2.307      3.623
REMARK  Name = 
REMARK  9 active torsions:
REMARK  status: ('A' for Active; 'I' for Inactive)
REMARK    1  A    between atoms: O_1  and  C_2
REMARK    2  A    between atoms: C_4  and  O_6
REMARK    3  A    between atoms: C_7  and  N_18
REMARK    4  A    between atoms: C_10  and  C_12
REMARK    5  A    between atoms: C_12  and  O_13
REMARK    6  A    between atoms: O_13  and  P_14
REMARK    7  A    between atoms: P_14  and  O_15
REMARK    8  A    between atoms: P_14  and  O_16
REMARK    9  A    between atoms: C_25  and  O_26
REMARK                            x       y       z     vdW  Elec       q    Type
REMARK                         _______ _______ _______ _____ _____    ______ ____
ROOT
ATOM      1  C   UNL     1       9.860  -1.247  24.093  0.00  0.00    +0.178 C 
ATOM      2  C   UNL     1       8.486  -1.905  23.936  0.00  0.00    +0.178 C 
ATOM      3  O   UNL     1       7.865  -1.376  22.750  0.00  0.00    -0.345 OA
ATOM      4  C   UNL     1       8.703  -0.326  22.226  0.00  0.00    +0.258 C 
ATOM      5  C   UNL     1      10.128  -0.703  22.703  0.00  0.00    +0.195 C 
ENDROOT
BRANCH   4   6
ATOM      6  N   UNL     1       8.270   1.028  22.645  0.00  0.00    -0.235 N 
ATOM      7  C   UNL     1       7.025   1.349  23.166  0.00  0.00    +0.204 A 
ATOM      8  C   UNL     1       6.714   2.591  23.552  0.00  0.00    +0.135 A 
ATOM      9  C   UNL     1       7.718   3.651  23.425  0.00  0.00    +0.258 A 
ATOM     10  O   UNL     1       7.504   4.774  23.858  0.00  0.00    -0.268 OA
ATOM     11  N   UNL     1       8.871   3.292  22.804  0.00  0.00    -0.275 N 
ATOM     12  H   UNL     1       9.567   4.008  22.671  0.00  0.00    +0.173 HD
ATOM     13  C   UNL     1       9.184   2.039  22.371  0.00  0.00    +0.334 A 
ATOM     14  O   UNL     1      10.256   1.859  21.786  0.00  0.00    -0.246 OA
BRANCH   7  15
ATOM     15  O   UNL     1       6.098   0.342  23.312  0.00  0.00    -0.493 OA
ATOM     16  H   UNL     1       5.945   0.167  24.257  0.00  0.00    +0.294 HD
ENDBRANCH   7  15
ENDBRANCH   4   6
BRANCH   1  17
ATOM     17  O   UNL     1       9.820  -0.176  25.045  0.00  0.00    -0.386 OA
ATOM     18  H   UNL     1      10.383   0.546  24.714  0.00  0.00    +0.210 HD
ENDBRANCH   1  17
BRANCH   5  19
ATOM     19  O   UNL     1      10.674  -1.742  21.875  0.00  0.00    -0.385 OA
ATOM     20  H   UNL     1      10.004  -2.448  21.824  0.00  0.00    +0.210 HD
ENDBRANCH   5  19
BRANCH   2  21
ATOM     21  C   UNL     1       8.573  -3.419  23.830  0.00  0.00    +0.206 C 
BRANCH  21  22
ATOM     22  O   UNL     1       9.327  -3.902  24.932  0.00  0.00    -0.284 OA
BRANCH  22  23
ATOM     23  P   UNL     1       8.431  -5.020  25.903  0.00  0.00    +0.472 P 
ATOM     24  O   UNL     1       7.631  -6.020  26.772  0.00  0.00    -0.228 OA
BRANCH  23  25
ATOM     25  O   UNL     1       9.441  -4.516  27.091  0.00  0.00    -0.303 OA
ATOM     26  H   UNL     1      10.059  -5.232  27.326  0.00  0.00    +0.222 HD
ENDBRANCH  23  25
BRANCH  23  27
ATOM     27  O   UNL     1       9.509  -6.099  25.308  0.00  0.00    -0.303 OA
ATOM     28  H   UNL     1      10.357  -5.621  25.246  0.00  0.00    +0.222 HD
ENDBRANCH  23  27
ENDBRANCH  22  23
ENDBRANCH  21  22
ENDBRANCH   2  21
TORSDOF 9
ENDMDL
MODEL 4
REMARK VINA RESULT:      -6.0      2.492      3.566
REMARK  Name = 
REMARK  9 active torsions:
REMARK  status: ('A' for Active; 'I' for Inactive)
REMARK    1  A    between atoms: O_1  and  C_2
REMARK    2  A    between atoms: C_4  and  O_6
REMARK    3  A    between atoms: C_7  and  N_18
REMARK    4  A    between atoms: C_10  and  C_12
REMARK    5  A    between atoms: C_12  and  O_13
REMARK    6  A    between atoms: O_13  and  P_14
REMARK    7  A    between atoms: P_14  and  O_15
REMARK    8  A    between atoms: P_14  and  O_16
REMARK    9  A    between atoms: C_25  and  O_26
REMARK                            x       y       z     vdW  Elec       q    Type
REMARK                         _______ _______ _______ _____ _____    ______ ____
ROOT
ATOM      1  C   UNL     1       6.542  -1.921  23.537  0.00  0.00    +0.178 C 
ATOM      2  C   UNL     1       7.164  -2.549  22.286  0.00  0.00    +0.178 C 
ATOM      3  O   UNL     1       8.585  -2.650  22.491  0.00  0.00    -0.345 OA
ATOM      4  C   UNL     1       8.914  -1.999  23.735  0.00  0.00    +0.258 C 
ATOM      5  C   UNL     1       7.623  -2.123  24.582  0.00  0.00    +0.195 C 
ENDROOT
BRANCH   4   6
ATOM      6  N   UNL     1       9.382  -0.604  23.556  0.00  0.00    -0.235 N 
ATOM      7  C   UNL     1       9.712  -0.016  22.344  0.00  0.00    +0.204 A 
ATOM      8  C   UNL     1      10.098   1.261  22.255  0.00  0.00    +0.135 A 
ATOM      9  C   UNL     1      10.177   2.071  23.474  0.00  0.00    +0.258 A 
ATOM     10  O   UNL     1      10.431   3.265  23.420  0.00  0.00    -0.268 OA
ATOM     11  N   UNL     1       9.951   1.401  24.634  0.00  0.00    -0.275 N 
ATOM     12  H   UNL     1      10.032   1.924  25.493  0.00  0.00    +0.173 HD
ATOM     13  C   UNL     1       9.594   0.091  24.741  0.00  0.00    +0.334 A 
ATOM     14  O   UNL     1       9.457  -0.402  25.864  0.00  0.00    -0.246 OA
BRANCH   7  15
ATOM     15  O   UNL     1       9.605  -0.773  21.199  0.00  0.00    -0.493 OA
ATOM     16  H   UNL     1      10.089  -0.343  20.472  0.00  0.00    +0.294 HD
ENDBRANCH   7  15
ENDBRANCH   4   6
BRANCH   1  17
ATOM     17  O   UNL     1       6.290  -0.523  23.348  0.00  0.00    -0.386 OA
ATOM     18  H   UNL     1       5.700  -0.422  22.580  0.00  0.00    +0.210 HD
ENDBRANCH   1  17
BRANCH   5  19
ATOM     19  O   UNL     1       7.515  -3.442  25.139  0.00  0.00    -0.385 OA
ATOM     20  H   UNL     1       6.567  -3.613  25.288  0.00  0.00    +0.210 HD
ENDBRANCH   5  19
BRANCH   2  21
ATOM     21  C   UNL     1       6.598  -3.927  21.982  0.00  0.00    +0.206 C 
BRANCH  21  22
ATOM     22  O   UNL     1       5.233  -3.947  22.378  0.00  0.00    -0.284 OA
BRANCH  22  23
ATOM     23  P   UNL     1       4.797  -5.427  23.161  0.00  0.00    +0.472 P 
ATOM     24  O   UNL     1       4.407  -6.751  23.862  0.00  0.00    -0.228 OA
BRANCH  23  25
ATOM     25  O   UNL     1       6.374  -5.444  23.606  0.00  0.00    -0.303 OA
ATOM     26  H   UNL     1       6.790  -6.276  23.314  0.00  0.00    +0.222 HD
ENDBRANCH  23  25
BRANCH  23  27
ATOM     27  O   UNL     1       5.102  -6.070  21.687  0.00  0.00    -0.303 OA
ATOM     28  H   UNL     1       5.727  -5.459  21.255  0.00  0.00    +0.222 HD
ENDBRANCH  23  27
ENDBRANCH  22  23
ENDBRANCH  21  22
ENDBRANCH   2  21
TORSDOF 9
ENDMDL
MODEL 5
REMARK VINA RESULT:      -5.9      3.630      6.499
REMARK  Name = 
REMARK  9 active torsions:
REMARK  status: ('A' for Active; 'I' for Inactive)
REMARK    1  A    between atoms: O_1  and  C_2
REMARK    2  A    between atoms: C_4  and  O_6
REMARK    3  A    between atoms: C_7  and  N_18
REMARK    4  A    between atoms: C_10  and  C_12
REMARK    5  A    between atoms: C_12  and  O_13
REMARK    6  A    between atoms: O_13  and  P_14
REMARK    7  A    between atoms: P_14  and  O_15
REMARK    8  A    between atoms: P_14  and  O_16
REMARK    9  A    between atoms: C_25  and  O_26
REMARK                            x       y       z     vdW  Elec       q    Type
REMARK                         _______ _______ _______ _____ _____    ______ ____
ROOT
ATOM      1  C   UNL     1      10.016  -0.534  22.309  0.00  0.00    +0.178 C 
ATOM      2  C   UNL     1       8.745   0.315  22.211  0.00  0.00    +0.178 C 
ATOM      3  O   UNL     1       7.875  -0.050  23.298  0.00  0.00    -0.345 OA
ATOM      4  C   UNL     1       8.457  -1.171  23.993  0.00  0.00    +0.258 C 
ATOM      5  C   UNL     1       9.979  -1.023  23.744  0.00  0.00    +0.195 C 
ENDROOT
BRANCH   4   6
ATOM      6  N   UNL     1       7.903  -2.476  23.560  0.00  0.00    -0.235 N 
ATOM      7  C   UNL     1       6.722  -2.653  22.854  0.00  0.00    +0.204 A 
ATOM      8  C   UNL     1       6.299  -3.862  22.469  0.00  0.00    +0.135 A 
ATOM      9  C   UNL     1       7.105  -5.041  22.801  0.00  0.00    +0.258 A 
ATOM     10  O   UNL     1       6.800  -6.148  22.382  0.00  0.00    -0.268 OA
ATOM     11  N   UNL     1       8.185  -4.806  23.589  0.00  0.00    -0.275 N 
ATOM     12  H   UNL     1       8.740  -5.602  23.863  0.00  0.00    +0.173 HD
ATOM     13  C   UNL     1       8.605  -3.583  24.020  0.00  0.00    +0.334 A 
ATOM     14  O   UNL     1       9.586  -3.517  24.767  0.00  0.00    -0.246 OA
BRANCH   7  15
ATOM     15  O   UNL     1       5.987  -1.539  22.519  0.00  0.00    -0.493 OA
ATOM     16  H   UNL     1       5.140  -1.545  22.998  0.00  0.00    +0.294 HD
ENDBRANCH   7  15
ENDBRANCH   4   6
BRANCH   1  17
ATOM     17  O   UNL     1       9.971  -1.646  21.405  0.00  0.00    -0.386 OA
ATOM     18  H   UNL     1       9.041  -1.802  21.163  0.00  0.00    +0.210 HD
ENDBRANCH   1  17
BRANCH   5  19
ATOM     19  O   UNL     1      10.532  -0.020  24.610  0.00  0.00    -0.385 OA
ATOM     20  H   UNL     1      11.180   0.485  24.085  0.00  0.00    +0.210 HD
ENDBRANCH   5  19
BRANCH   2  21
ATOM     21  C   UNL     1       9.034   1.806  22.273  0.00  0.00    +0.206 C 
BRANCH  21  22
ATOM     22  O   UNL     1       7.996   2.431  23.016  0.00  0.00    -0.284 OA
BRANCH  22  23
ATOM     23  P   UNL     1       8.596   3.659  24.078  0.00  0.00    +0.472 P 
ATOM     24  O   UNL     1       9.133   4.758  25.027  0.00  0.00    -0.228 OA
BRANCH  23  25
ATOM     25  O   UNL     1       9.949   3.534  23.162  0.00  0.00    -0.303 OA
ATOM     26  H   UNL     1      10.739   3.600  23.729  0.00  0.00    +0.222 HD
ENDBRANCH  23  25
BRANCH  23  27
ATOM     27  O   UNL     1       8.994   2.379  25.017  0.00  0.00    -0.303 OA
ATOM     28  H   UNL     1       9.541   2.740  25.740  0.00  0.00    +0.222 HD
ENDBRANCH  23  27
ENDBRANCH  22  23
ENDBRANCH  21  22
ENDBRANCH   2  21
TORSDOF 9
ENDMDL
MODEL 6
REMARK VINA RESULT:      -5.9      2.572      3.321
REMARK  Name = 
REMARK  9 active torsions:
REMARK  status: ('A' for Active; 'I' for Inactive)
REMARK    1  A    between atoms: O_1  and  C_2
REMARK    2  A    between atoms: C_4  and  O_6
REMARK    3  A    between atoms: C_7  and  N_18
REMARK    4  A    between atoms: C_10  and  C_12
REMARK    5  A    between atoms: C_12  and  O_13
REMARK    6  A    between atoms: O_13  and  P_14
REMARK    7  A    between atoms: P_14  and  O_15
REMARK    8  A    between atoms: P_14  and  O_16
REMARK    9  A    between atoms: C_25  and  O_26
REMARK                            x       y       z     vdW  Elec       q    Type
REMARK                         _______ _______ _______ _____ _____    ______ ____
ROOT
ATOM      1  C   UNL     1       8.102  -4.953  23.962  0.00  0.00    +0.178 C 
ATOM      2  C   UNL     1       6.977  -4.596  24.940  0.00  0.00    +0.178 C 
ATOM      3  O   UNL     1       6.423  -3.328  24.545  0.00  0.00    -0.345 OA
ATOM      4  C   UNL     1       7.217  -2.799  23.465  0.00  0.00    +0.258 C 
ATOM      5  C   UNL     1       7.807  -4.054  22.777  0.00  0.00    +0.195 C 
ENDROOT
BRANCH   4   6
ATOM      6  N   UNL     1       8.240  -1.826  23.917  0.00  0.00    -0.235 N 
ATOM      7  C   UNL     1       8.294  -1.242  25.174  0.00  0.00    +0.204 A 
ATOM      8  C   UNL     1       9.268  -0.394  25.523  0.00  0.00    +0.135 A 
ATOM      9  C   UNL     1      10.314  -0.067  24.550  0.00  0.00    +0.258 A 
ATOM     10  O   UNL     1      11.270   0.626  24.865  0.00  0.00    -0.268 OA
ATOM     11  N   UNL     1      10.136  -0.584  23.307  0.00  0.00    -0.275 N 
ATOM     12  H   UNL     1      10.821  -0.349  22.606  0.00  0.00    +0.173 HD
ATOM     13  C   UNL     1       9.128  -1.418  22.928  0.00  0.00    +0.334 A 
ATOM     14  O   UNL     1       9.064  -1.783  21.751  0.00  0.00    -0.246 OA
BRANCH   7  15
ATOM     15  O   UNL     1       7.326  -1.577  26.094  0.00  0.00    -0.493 OA
ATOM     16  H   UNL     1       7.741  -1.796  26.946  0.00  0.00    +0.294 HD
ENDBRANCH   7  15
ENDBRANCH   4   6
BRANCH   1  17
ATOM     17  O   UNL     1       9.388  -4.643  24.512  0.00  0.00    -0.386 OA
ATOM     18  H   UNL     1       9.605  -3.723  24.279  0.00  0.00    +0.210 HD
ENDBRANCH   1  17
BRANCH   5  19
ATOM     19  O   UNL     1       6.823  -4.672  21.934  0.00  0.00    -0.385 OA
ATOM     20  H   UNL     1       7.193  -4.697  21.033  0.00  0.00    +0.210 HD
ENDBRANCH   5  19
BRANCH   2  21
ATOM     21  C   UNL     1       5.875  -5.643  24.968  0.00  0.00    +0.206 C 
BRANCH  21  22
ATOM     22  O   UNL     1       4.624  -4.977  24.867  0.00  0.00    -0.284 OA
BRANCH  22  23
ATOM     23  P   UNL     1       3.611  -5.664  23.645  0.00  0.00    +0.472 P 
ATOM     24  O   UNL     1       2.704  -6.279  22.550  0.00  0.00    -0.228 OA
BRANCH  23  25
ATOM     25  O   UNL     1       4.914  -6.613  23.354  0.00  0.00    -0.303 OA
ATOM     26  H   UNL     1       5.675  -6.060  23.099  0.00  0.00    +0.222 HD
ENDBRANCH  23  25
BRANCH  23  27
ATOM     27  O   UNL     1       4.187  -4.424  22.745  0.00  0.00    -0.303 OA
ATOM     28  H   UNL     1       4.858  -4.815  22.154  0.00  0.00    +0.222 HD
ENDBRANCH  23  27
ENDBRANCH  22  23
ENDBRANCH  21  22
ENDBRANCH   2  21
TORSDOF 9
ENDMDL
MODEL 7
REMARK VINA RESULT:      -5.8      2.112      3.761
REMARK  Name = 
REMARK  9 active torsions:
REMARK  status: ('A' for Active; 'I' for Inactive)
REMARK    1  A    between atoms: O_1  and  C_2
REMARK    2  A    between atoms: C_4  and  O_6
REMARK    3  A    between atoms: C_7  and  N_18
REMARK    4  A    between atoms: C_10  and  C_12
REMARK    5  A    between atoms: C_12  and  O_13
REMARK    6  A    between atoms: O_13  and  P_14
REMARK    7  A    between atoms: P_14  and  O_15
REMARK    8  A    between atoms: P_14  and  O_16
REMARK    9  A    between atoms: C_25  and  O_26
REMARK                            x       y       z     vdW  Elec       q    Type
REMARK                         _______ _______ _______ _____ _____    ______ ____
ROOT
ATOM      1  C   UNL     1       8.471  -1.979  22.207  0.00  0.00    +0.178 C 
ATOM      2  C   UNL     1       8.875  -2.466  23.602  0.00  0.00    +0.178 C 
ATOM      3  O   UNL     1       8.415  -1.501  24.567  0.00  0.00    -0.345 OA
ATOM      4  C   UNL     1       7.868  -0.372  23.857  0.00  0.00    +0.258 C 
ATOM      5  C   UNL     1       7.384  -0.966  22.511  0.00  0.00    +0.195 C 
ENDROOT
BRANCH   4   6
ATOM      6  N   UNL     1       8.832   0.744  23.707  0.00  0.00    -0.235 N 
ATOM      7  C   UNL     1       9.946   0.957  24.506  0.00  0.00    +0.204 A 
ATOM      8  C   UNL     1      10.791   1.971  24.292  0.00  0.00    +0.135 A 
ATOM      9  C   UNL     1      10.538   2.890  23.178  0.00  0.00    +0.258 A 
ATOM     10  O   UNL     1      11.340   3.767  22.892  0.00  0.00    -0.268 OA
ATOM     11  N   UNL     1       9.373   2.690  22.510  0.00  0.00    -0.275 N 
ATOM     12  H   UNL     1       9.154   3.327  21.760  0.00  0.00    +0.173 HD
ATOM     13  C   UNL     1       8.484   1.684  22.744  0.00  0.00    +0.334 A 
ATOM     14  O   UNL     1       7.441   1.643  22.085  0.00  0.00    -0.246 OA
BRANCH   7  15
ATOM     15  O   UNL     1      10.195   0.073  25.531  0.00  0.00    -0.493 OA
ATOM     16  H   UNL     1      10.476   0.558  26.326  0.00  0.00    +0.294 HD
ENDBRANCH   7  15
ENDBRANCH   4   6
BRANCH   1  17
ATOM     17  O   UNL     1       9.568  -1.345  21.538  0.00  0.00    -0.386 OA
ATOM     18  H   UNL     1      10.387  -1.802  21.797  0.00  0.00    +0.210 HD
ENDBRANCH   1  17
BRANCH   5  19
ATOM     19  O   UNL     1       6.129  -1.642  22.685  0.00  0.00    -0.385 OA
ATOM     20  H   UNL     1       5.960  -2.145  21.868  0.00  0.00    +0.210 HD
ENDBRANCH   5  19
BRANCH   2  21
ATOM     21  C   UNL     1       8.294  -3.830  23.936  0.00  0.00    +0.206 C 
BRANCH  21  22
ATOM     22  O   UNL     1       9.104  -4.427  24.940  0.00  0.00    -0.284 OA
BRANCH  22  23
ATOM     23  P   UNL     1       8.163  -5.166  26.190  0.00  0.00    +0.472 P 
ATOM     24  O   UNL     1       7.321  -5.826  27.309  0.00  0.00    -0.228 OA
BRANCH  23  25
ATOM     25  O   UNL     1       7.582  -3.648  26.399  0.00  0.00    -0.303 OA
ATOM     26  H   UNL     1       7.183  -3.566  27.284  0.00  0.00    +0.222 HD
ENDBRANCH  23  25
BRANCH  23  27
ATOM     27  O   UNL     1       9.499  -4.885  27.093  0.00  0.00    -0.303 OA
ATOM     28  H   UNL     1       9.885  -5.762  27.276  0.00  0.00    +0.222 HD
ENDBRANCH  23  27
ENDBRANCH  22  23
ENDBRANCH  21  22
ENDBRANCH   2  21
TORSDOF 9
ENDMDL
MODEL 8
REMARK VINA RESULT:      -5.8      3.590      7.465
REMARK  Name = 
REMARK  9 active torsions:
REMARK  status: ('A' for Active; 'I' for Inactive)
REMARK    1  A    between atoms: O_1  and  C_2
REMARK    2  A    between atoms: C_4  and  O_6
REMARK    3  A    between atoms: C_7  and  N_18
REMARK    4  A    between atoms: C_10  and  C_12
REMARK    5  A    between atoms: C_12  and  O_13
REMARK    6  A    between atoms: O_13  and  P_14
REMARK    7  A    between atoms: P_14  and  O_15
REMARK    8  A    between atoms: P_14  and  O_16
REMARK    9  A    between atoms: C_25  and  O_26
REMARK                            x       y       z     vdW  Elec       q    Type
REMARK                         _______ _______ _______ _____ _____    ______ ____
ROOT
ATOM      1  C   UNL     1       7.748   1.445  22.486  0.00  0.00    +0.178 C 
ATOM      2  C   UNL     1       8.013   2.165  23.812  0.00  0.00    +0.178 C 
ATOM      3  O   UNL     1       9.253   1.673  24.352  0.00  0.00    -0.345 OA
ATOM      4  C   UNL     1       9.717   0.592  23.519  0.00  0.00    +0.258 C 
ATOM      5  C   UNL     1       9.117   0.901  22.125  0.00  0.00    +0.195 C 
ENDROOT
BRANCH   4   6
ATOM      6  N   UNL     1       9.352  -0.746  24.045  0.00  0.00    -0.235 N 
ATOM      7  C   UNL     1       8.901  -1.008  25.330  0.00  0.00    +0.204 A 
ATOM      8  C   UNL     1       8.560  -2.239  25.726  0.00  0.00    +0.135 A 
ATOM      9  C   UNL     1       8.663  -3.350  24.775  0.00  0.00    +0.258 A 
ATOM     10  O   UNL     1       8.268  -4.469  25.071  0.00  0.00    -0.268 OA
ATOM     11  N   UNL     1       9.218  -3.041  23.575  0.00  0.00    -0.275 N 
ATOM     12  H   UNL     1       9.334  -3.792  22.912  0.00  0.00    +0.173 HD
ATOM     13  C   UNL     1       9.605  -1.798  23.174  0.00  0.00    +0.334 A 
ATOM     14  O   UNL     1      10.133  -1.666  22.066  0.00  0.00    -0.246 OA
BRANCH   7  15
ATOM     15  O   UNL     1       8.776   0.045  26.208  0.00  0.00    -0.493 OA
ATOM     16  H   UNL     1       9.633   0.224  26.633  0.00  0.00    +0.294 HD
ENDBRANCH   7  15
ENDBRANCH   4   6
BRANCH   1  17
ATOM     17  O   UNL     1       6.816   0.369  22.653  0.00  0.00    -0.386 OA
ATOM     18  H   UNL     1       6.748  -0.108  21.807  0.00  0.00    +0.210 HD
ENDBRANCH   1  17
BRANCH   5  19
ATOM     19  O   UNL     1       9.884   1.921  21.466  0.00  0.00    -0.385 OA
ATOM     20  H   UNL     1       9.345   2.248  20.722  0.00  0.00    +0.210 HD
ENDBRANCH   5  19
BRANCH   2  21
ATOM     21  C   UNL     1       8.094   3.674  23.650  0.00  0.00    +0.206 C 
BRANCH  21  22
ATOM     22  O   UNL     1       8.998   4.179  24.623  0.00  0.00    -0.284 OA
BRANCH  22  23
ATOM     23  P   UNL     1      10.149   5.278  23.943  0.00  0.00    +0.472 P 
ATOM     24  O   UNL     1      11.178   6.262  23.333  0.00  0.00    -0.228 OA
BRANCH  23  25
ATOM     25  O   UNL     1       9.004   5.476  22.788  0.00  0.00    -0.303 OA
ATOM     26  H   UNL     1       9.009   4.713  22.182  0.00  0.00    +0.222 HD
ENDBRANCH  23  25
BRANCH  23  27
ATOM     27  O   UNL     1      10.749   3.919  23.255  0.00  0.00    -0.303 OA
ATOM     28  H   UNL     1      10.885   4.136  22.314  0.00  0.00    +0.222 HD
ENDBRANCH  23  27
ENDBRANCH  22  23
ENDBRANCH  21  22
ENDBRANCH   2  21
TORSDOF 9
ENDMDL
MODEL 9
REMARK VINA RESULT:      -5.8      2.123      2.615
REMARK  Name = 
REMARK  9 active torsions:
REMARK  status: ('A' for Active; 'I' for Inactive)
REMARK    1  A    between atoms: O_1  and  C_2
REMARK    2  A    between atoms: C_4  and  O_6
REMARK    3  A    between atoms: C_7  and  N_18
REMARK    4  A    between atoms: C_10  and  C_12
REMARK    5  A    between atoms: C_12  and  O_13
REMARK    6  A    between atoms: O_13  and  P_14
REMARK    7  A    between atoms: P_14  and  O_15
REMARK    8  A    between atoms: P_14  and  O_16
REMARK    9  A    between atoms: C_25  and  O_26
REMARK                            x       y       z     vdW  Elec       q    Type
REMARK                         _______ _______ _______ _____ _____    ______ ____
ROOT
ATOM      1  C   UNL     1       8.012  -3.557  25.575  0.00  0.00    +0.178 C 
ATOM      2  C   UNL     1       6.630  -3.557  24.915  0.00  0.00    +0.178 C 
ATOM      3  O   UNL     1       6.809  -3.411  23.495  0.00  0.00    -0.345 OA
ATOM      4  C   UNL     1       8.208  -3.181  23.232  0.00  0.00    +0.258 C 
ATOM      5  C   UNL     1       8.935  -3.870  24.413  0.00  0.00    +0.195 C 
ENDROOT
BRANCH   4   6
ATOM      6  N   UNL     1       8.542  -1.745  23.078  0.00  0.00    -0.235 N 
ATOM      7  C   UNL     1       7.622  -0.713  22.962  0.00  0.00    +0.204 A 
ATOM      8  C   UNL     1       7.998   0.566  22.857  0.00  0.00    +0.135 A 
ATOM      9  C   UNL     1       9.427   0.895  22.865  0.00  0.00    +0.258 A 
ATOM     10  O   UNL     1       9.804   2.057  22.870  0.00  0.00    -0.268 OA
ATOM     11  N   UNL     1      10.270  -0.170  22.867  0.00  0.00    -0.275 N 
ATOM     12  H   UNL     1      11.259   0.024  22.839  0.00  0.00    +0.173 HD
ATOM     13  C   UNL     1       9.899  -1.479  22.935  0.00  0.00    +0.334 A 
ATOM     14  O   UNL     1      10.771  -2.351  22.889  0.00  0.00    -0.246 OA
BRANCH   7  15
ATOM     15  O   UNL     1       6.282  -1.025  22.986  0.00  0.00    -0.493 OA
ATOM     16  H   UNL     1       6.051  -1.553  22.202  0.00  0.00    +0.294 HD
ENDBRANCH   7  15
ENDBRANCH   4   6
BRANCH   1  17
ATOM     17  O   UNL     1       8.327  -2.271  26.126  0.00  0.00    -0.386 OA
ATOM     18  H   UNL     1       9.147  -2.355  26.643  0.00  0.00    +0.210 HD
ENDBRANCH   1  17
BRANCH   5  19
ATOM     19  O   UNL     1       8.987  -5.290  24.208  0.00  0.00    -0.385 OA
ATOM     20  H   UNL     1       8.089  -5.577  23.962  0.00  0.00    +0.210 HD
ENDBRANCH   5  19
BRANCH   2  21
ATOM     21  C   UNL     1       5.849  -4.830  25.198  0.00  0.00    +0.206 C 
BRANCH  21  22
ATOM     22  O   UNL     1       5.834  -5.617  24.016  0.00  0.00    -0.284 OA
BRANCH  22  23
ATOM     23  P   UNL     1       4.240  -5.803  23.369  0.00  0.00    +0.472 P 
ATOM     24  O   UNL     1       2.814  -5.970  22.790  0.00  0.00    -0.228 OA
BRANCH  23  25
ATOM     25  O   UNL     1       4.438  -7.367  23.815  0.00  0.00    -0.303 OA
ATOM     26  H   UNL     1       4.028  -7.516  24.687  0.00  0.00    +0.222 HD
ENDBRANCH  23  25
BRANCH  23  27
ATOM     27  O   UNL     1       5.046  -6.000  21.958  0.00  0.00    -0.303 OA
ATOM     28  H   UNL     1       5.957  -6.248  22.204  0.00  0.00    +0.222 HD
ENDBRANCH  23  27
ENDBRANCH  22  23
ENDBRANCH  21  22
ENDBRANCH   2  21
TORSDOF 9
ENDMDL
