MODEL 1
REMARK VINA RESULT:      -7.0      0.000      0.000
REMARK  Name = 
REMARK  14 active torsions:
REMARK  status: ('A' for Active; 'I' for Inactive)
REMARK    1  A    between atoms: O_1  and  C_2
REMARK    2  A    between atoms: C_2  and  CA_3
REMARK    3  A    between atoms: CA_3  and  N_5
REMARK    4  A    between atoms: CA_3  and  C_15
REMARK    5  A    between atoms: C_6  and  C_8
REMARK    6  A    between atoms: C_8  and  C_9
REMARK    7  A    between atoms: C_9  and  N_10
REMARK    8  A    between atoms: C_11  and  C_13
REMARK    9  A    between atoms: N_17  and  C_18
REMARK   10  A    between atoms: C_18  and  C_19
REMARK   11  A    between atoms: C_19  and  C_20
REMARK   12  A    between atoms: C_23  and  N_24
REMARK   13  A    between atoms: C_25  and  C_27
REMARK   14  A    between atoms: C_27  and  O_28
REMARK                            x       y       z     vdW  Elec       q    Type
REMARK                         _______ _______ _______ _____ _____    ______ ____
ROOT
ATOM      1  C   UNL     1       9.102  -4.717  24.934  0.00  0.00    +0.236 C 
ATOM      2  N   UNL     1       8.962  -3.514  24.265  0.00  0.00    -0.313 N 
ATOM      3  H   UNL     1       8.089  -3.014  24.396  0.00  0.00    +0.149 HD
ATOM      4  O   UNL     1      10.213  -5.202  25.156  0.00  0.00    -0.274 OA
ENDROOT
BRANCH   1   5
ATOM      5  CA  UNL     1       7.807  -5.367  25.474  0.00  0.00    +0.184 C 
BRANCH   5   6
ATOM      6  N   UNL     1       6.642  -5.137  24.590  0.00  0.00    -0.302 N 
ATOM      7  H   UNL     1       5.756  -4.963  25.048  0.00  0.00    +0.150 HD
ATOM      8  C   UNL     1       6.650  -5.429  23.249  0.00  0.00    +0.215 C 
ATOM      9  O   UNL     1       7.625  -5.923  22.694  0.00  0.00    -0.276 OA
BRANCH   8  10
ATOM     10  C   UNL     1       5.364  -5.125  22.514  0.00  0.00    +0.114 C 
BRANCH  10  11
ATOM     11  C   UNL     1       4.742  -3.871  23.121  0.00  0.00    +0.113 C 
BRANCH  11  12
ATOM     12  N   UNL     1       5.411  -2.653  22.713  0.00  0.00    -0.314 N 
ATOM     13  H   UNL     1       5.191  -2.244  21.813  0.00  0.00    +0.149 HD
ATOM     14  C   UNL     1       6.062  -1.867  23.647  0.00  0.00    +0.223 C 
ATOM     15  O   UNL     1       6.172  -2.181  24.830  0.00  0.00    -0.275 OA
BRANCH  14  16
ATOM     16  C   UNL     1       6.582  -0.550  23.124  0.00  0.00    +0.175 C 
ATOM     17 BR   UNL     1       6.725   0.692  24.611  0.00  0.00    -0.082 Br
ENDBRANCH  14  16
ENDBRANCH  11  12
ENDBRANCH  10  11
ENDBRANCH   8  10
ENDBRANCH   5   6
BRANCH   5  18
ATOM     18  C   UNL     1       7.558  -4.966  26.941  0.00  0.00    +0.187 C 
BRANCH  18  19
ATOM     19  O   UNL     1       7.568  -6.089  27.817  0.00  0.00    -0.393 OA
ATOM     20  H   UNL     1       8.492  -6.212  28.100  0.00  0.00    +0.209 HD
ENDBRANCH  18  19
ENDBRANCH   5  18
ENDBRANCH   1   5
BRANCH   2  21
ATOM     21  C   UNL     1      10.150  -2.748  23.921  0.00  0.00    +0.109 C 
BRANCH  21  22
ATOM     22  C   UNL     1      10.014  -1.937  22.630  0.00  0.00    +0.054 C 
BRANCH  22  23
ATOM     23  C   UNL     1      10.082  -0.441  22.838  0.00  0.00    -0.046 A 
ATOM     24  C   UNL     1       9.785   0.445  21.796  0.00  0.00    +0.005 A 
ATOM     25  C   UNL     1       9.828   1.831  22.002  0.00  0.00    +0.023 A 
ATOM     26  C   UNL     1      10.197   2.352  23.249  0.00  0.00    +0.034 A 
ATOM     27  C   UNL     1      10.519   1.468  24.277  0.00  0.00    +0.023 A 
ATOM     28  C   UNL     1      10.461   0.087  24.078  0.00  0.00    +0.005 A 
BRANCH  26  29
ATOM     29  N   UNL     1      10.206   3.750  23.409  0.00  0.00    -0.276 N 
ATOM     30  H   UNL     1       9.310   4.233  23.419  0.00  0.00    +0.155 HD
ATOM     31  C   UNL     1      11.321   4.549  23.541  0.00  0.00    +0.325 C 
ATOM     32  O   UNL     1      12.511   4.268  23.459  0.00  0.00    -0.263 OA
BRANCH  31  33
ATOM     33  C   UNL     1      11.001   6.029  23.786  0.00  0.00    +0.393 C 
ATOM     34  O   UNL     1      11.718   6.758  24.448  0.00  0.00    -0.240 OA
BRANCH  33  35
ATOM     35  O   UNL     1       9.868   6.385  23.159  0.00  0.00    -0.474 OA
ATOM     36  H   UNL     1       9.788   7.367  23.193  0.00  0.00    +0.296 HD
ENDBRANCH  33  35
ENDBRANCH  31  33
ENDBRANCH  26  29
ENDBRANCH  22  23
ENDBRANCH  21  22
ENDBRANCH   2  21
TORSDOF 14
ENDMDL
MODEL 2
REMARK VINA RESULT:      -6.8      1.742      2.644
REMARK  Name = 
REMARK  14 active torsions:
REMARK  status: ('A' for Active; 'I' for Inactive)
REMARK    1  A    between atoms: O_1  and  C_2
REMARK    2  A    between atoms: C_2  and  CA_3
REMARK    3  A    between atoms: CA_3  and  N_5
REMARK    4  A    between atoms: CA_3  and  C_15
REMARK    5  A    between atoms: C_6  and  C_8
REMARK    6  A    between atoms: C_8  and  C_9
REMARK    7  A    between atoms: C_9  and  N_10
REMARK    8  A    between atoms: C_11  and  C_13
REMARK    9  A    between atoms: N_17  and  C_18
REMARK   10  A    between atoms: C_18  and  C_19
REMARK   11  A    between atoms: C_19  and  C_20
REMARK   12  A    between atoms: C_23  and  N_24
REMARK   13  A    between atoms: C_25  and  C_27
REMARK   14  A    between atoms: C_27  and  O_28
REMARK                            x       y       z     vdW  Elec       q    Type
REMARK                         _______ _______ _______ _____ _____    ______ ____
ROOT
ATOM      1  C   UNL     1       8.036  -4.560  23.951  0.00  0.00    +0.236 C 
ATOM      2  N   UNL     1       8.042  -3.183  23.809  0.00  0.00    -0.313 N 
ATOM      3  H   UNL     1       8.341  -2.640  24.612  0.00  0.00    +0.149 HD
ATOM      4  O   UNL     1       8.066  -5.307  22.972  0.00  0.00    -0.274 OA
ENDROOT
BRANCH   1   5
ATOM      5  CA  UNL     1       8.088  -5.109  25.396  0.00  0.00    +0.184 C 
BRANCH   5   6
ATOM      6  N   UNL     1       7.115  -4.447  26.294  0.00  0.00    -0.302 N 
ATOM      7  H   UNL     1       7.309  -3.483  26.537  0.00  0.00    +0.150 HD
ATOM      8  C   UNL     1       6.171  -5.135  27.015  0.00  0.00    +0.215 C 
ATOM      9  O   UNL     1       6.084  -6.358  26.976  0.00  0.00    -0.276 OA
BRANCH   8  10
ATOM     10  C   UNL     1       5.269  -4.282  27.877  0.00  0.00    +0.114 C 
BRANCH  10  11
ATOM     11  C   UNL     1       4.250  -3.588  26.978  0.00  0.00    +0.113 C 
BRANCH  11  12
ATOM     12  N   UNL     1       4.462  -2.158  26.882  0.00  0.00    -0.314 N 
ATOM     13  H   UNL     1       4.417  -1.593  27.721  0.00  0.00    +0.149 HD
ATOM     14  C   UNL     1       5.056  -1.613  25.757  0.00  0.00    +0.223 C 
ATOM     15  O   UNL     1       5.364  -2.279  24.771  0.00  0.00    -0.275 OA
BRANCH  14  16
ATOM     16  C   UNL     1       5.362  -0.138  25.846  0.00  0.00    +0.175 C 
ATOM     17 BR   UNL     1       6.459   0.358  24.322  0.00  0.00    -0.082 Br
ENDBRANCH  14  16
ENDBRANCH  11  12
ENDBRANCH  10  11
ENDBRANCH   8  10
ENDBRANCH   5   6
BRANCH   5  18
ATOM     18  C   UNL     1       9.531  -5.104  25.937  0.00  0.00    +0.187 C 
BRANCH  18  19
ATOM     19  O   UNL     1      10.499  -5.050  24.892  0.00  0.00    -0.393 OA
ATOM     20  H   UNL     1      10.633  -5.967  24.592  0.00  0.00    +0.209 HD
ENDBRANCH  18  19
ENDBRANCH   5  18
ENDBRANCH   1   5
BRANCH   2  21
ATOM     21  C   UNL     1       8.209  -2.606  22.485  0.00  0.00    +0.109 C 
BRANCH  21  22
ATOM     22  C   UNL     1       9.613  -2.054  22.220  0.00  0.00    +0.054 C 
BRANCH  22  23
ATOM     23  C   UNL     1       9.750  -0.574  22.497  0.00  0.00    -0.046 A 
ATOM     24  C   UNL     1      10.346  -0.115  23.677  0.00  0.00    +0.005 A 
ATOM     25  C   UNL     1      10.491   1.258  23.917  0.00  0.00    +0.023 A 
ATOM     26  C   UNL     1      10.016   2.194  22.990  0.00  0.00    +0.034 A 
ATOM     27  C   UNL     1       9.398   1.735  21.829  0.00  0.00    +0.023 A 
ATOM     28  C   UNL     1       9.267   0.367  21.580  0.00  0.00    +0.005 A 
BRANCH  26  29
ATOM     29  N   UNL     1      10.202   3.561  23.270  0.00  0.00    -0.276 N 
ATOM     30  H   UNL     1      10.953   4.047  22.784  0.00  0.00    +0.155 HD
ATOM     31  C   UNL     1       9.472   4.319  24.158  0.00  0.00    +0.325 C 
ATOM     32  O   UNL     1       8.596   3.989  24.949  0.00  0.00    -0.263 OA
BRANCH  31  33
ATOM     33  C   UNL     1       9.862   5.803  24.178  0.00  0.00    +0.393 C 
ATOM     34  O   UNL     1      10.290   6.359  25.173  0.00  0.00    -0.240 OA
BRANCH  33  35
ATOM     35  O   UNL     1       9.689   6.360  22.968  0.00  0.00    -0.474 OA
ATOM     36  H   UNL     1      10.104   7.255  22.975  0.00  0.00    +0.296 HD
ENDBRANCH  33  35
ENDBRANCH  31  33
ENDBRANCH  26  29
ENDBRANCH  22  23
ENDBRANCH  21  22
ENDBRANCH   2  21
TORSDOF 14
ENDMDL
MODEL 3
REMARK VINA RESULT:      -6.7      2.373      3.407
REMARK  Name = 
REMARK  14 active torsions:
REMARK  status: ('A' for Active; 'I' for Inactive)
REMARK    1  A    between atoms: O_1  and  C_2
REMARK    2  A    between atoms: C_2  and  CA_3
REMARK    3  A    between atoms: CA_3  and  N_5
REMARK    4  A    between atoms: CA_3  and  C_15
REMARK    5  A    between atoms: C_6  and  C_8
REMARK    6  A    between atoms: C_8  and  C_9
REMARK    7  A    between atoms: C_9  and  N_10
REMARK    8  A    between atoms: C_11  and  C_13
REMARK    9  A    between atoms: N_17  and  C_18
REMARK   10  A    between atoms: C_18  and  C_19
REMARK   11  A    between atoms: C_19  and  C_20
REMARK   12  A    between atoms: C_23  and  N_24
REMARK   13  A    between atoms: C_25  and  C_27
REMARK   14  A    between atoms: C_27  and  O_28
REMARK                            x       y       z     vdW  Elec       q    Type
REMARK                         _______ _______ _______ _____ _____    ______ ____
ROOT
ATOM      1  C   UNL     1       8.164  -3.533  24.190  0.00  0.00    +0.236 C 
ATOM      2  N   UNL     1       8.260  -3.343  22.823  0.00  0.00    -0.313 N 
ATOM      3  H   UNL     1       7.954  -4.107  22.229  0.00  0.00    +0.149 HD
ATOM      4  O   UNL     1       8.139  -2.580  24.971  0.00  0.00    -0.274 OA
ENDROOT
BRANCH   1   5
ATOM      5  CA  UNL     1       7.992  -4.991  24.678  0.00  0.00    +0.184 C 
BRANCH   5   6
ATOM      6  N   UNL     1       6.583  -5.327  24.986  0.00  0.00    -0.302 N 
ATOM      7  H   UNL     1       6.379  -5.578  25.945  0.00  0.00    +0.150 HD
ATOM      8  C   UNL     1       5.647  -5.589  24.018  0.00  0.00    +0.215 C 
ATOM      9  O   UNL     1       5.923  -5.582  22.823  0.00  0.00    -0.276 OA
BRANCH   8  10
ATOM     10  C   UNL     1       4.262  -5.914  24.530  0.00  0.00    +0.114 C 
BRANCH  10  11
ATOM     11  C   UNL     1       4.335  -7.201  25.347  0.00  0.00    +0.113 C 
BRANCH  11  12
ATOM     12  N   UNL     1       3.855  -7.038  26.704  0.00  0.00    -0.314 N 
ATOM     13  H   UNL     1       2.903  -7.303  26.928  0.00  0.00    +0.149 HD
ATOM     14  C   UNL     1       4.748  -6.864  27.746  0.00  0.00    +0.223 C 
ATOM     15  O   UNL     1       5.962  -6.766  27.580  0.00  0.00    -0.275 OA
BRANCH  14  16
ATOM     16  C   UNL     1       4.133  -6.864  29.124  0.00  0.00    +0.175 C 
ATOM     17 BR   UNL     1       2.951  -5.329  29.272  0.00  0.00    -0.082 Br
ENDBRANCH  14  16
ENDBRANCH  11  12
ENDBRANCH  10  11
ENDBRANCH   8  10
ENDBRANCH   5   6
BRANCH   5  18
ATOM     18  C   UNL     1       8.968  -5.307  25.828  0.00  0.00    +0.187 C 
BRANCH  18  19
ATOM     19  O   UNL     1      10.264  -5.662  25.354  0.00  0.00    -0.393 OA
ATOM     20  H   UNL     1      10.881  -4.999  25.712  0.00  0.00    +0.209 HD
ENDBRANCH  18  19
ENDBRANCH   5  18
ENDBRANCH   1   5
BRANCH   2  21
ATOM     21  C   UNL     1       8.209  -1.991  22.288  0.00  0.00    +0.109 C 
BRANCH  21  22
ATOM     22  C   UNL     1       9.577  -1.431  21.886  0.00  0.00    +0.054 C 
BRANCH  22  23
ATOM     23  C   UNL     1       9.834  -0.028  22.389  0.00  0.00    -0.046 A 
ATOM     24  C   UNL     1       9.415   1.087  21.654  0.00  0.00    +0.005 A 
ATOM     25  C   UNL     1       9.636   2.385  22.136  0.00  0.00    +0.023 A 
ATOM     26  C   UNL     1      10.303   2.586  23.351  0.00  0.00    +0.034 A 
ATOM     27  C   UNL     1      10.743   1.475  24.068  0.00  0.00    +0.023 A 
ATOM     28  C   UNL     1      10.510   0.181  23.596  0.00  0.00    +0.005 A 
BRANCH  26  29
ATOM     29  N   UNL     1      10.483   3.908  23.800  0.00  0.00    -0.276 N 
ATOM     30  H   UNL     1       9.744   4.322  24.364  0.00  0.00    +0.155 HD
ATOM     31  C   UNL     1      11.566   4.718  23.540  0.00  0.00    +0.325 C 
ATOM     32  O   UNL     1      12.538   4.533  22.816  0.00  0.00    -0.263 OA
BRANCH  31  33
ATOM     33  C   UNL     1      11.508   6.081  24.242  0.00  0.00    +0.393 C 
ATOM     34  O   UNL     1      10.479   6.723  24.351  0.00  0.00    -0.240 OA
BRANCH  33  35
ATOM     35  O   UNL     1      12.714   6.424  24.722  0.00  0.00    -0.474 OA
ATOM     36  H   UNL     1      12.582   7.018  25.499  0.00  0.00    +0.296 HD
ENDBRANCH  33  35
ENDBRANCH  31  33
ENDBRANCH  26  29
ENDBRANCH  22  23
ENDBRANCH  21  22
ENDBRANCH   2  21
TORSDOF 14
ENDMDL
MODEL 4
REMARK VINA RESULT:      -6.6      2.743      4.054
REMARK  Name = 
REMARK  14 active torsions:
REMARK  status: ('A' for Active; 'I' for Inactive)
REMARK    1  A    between atoms: O_1  and  C_2
REMARK    2  A    between atoms: C_2  and  CA_3
REMARK    3  A    between atoms: CA_3  and  N_5
REMARK    4  A    between atoms: CA_3  and  C_15
REMARK    5  A    between atoms: C_6  and  C_8
REMARK    6  A    between atoms: C_8  and  C_9
REMARK    7  A    between atoms: C_9  and  N_10
REMARK    8  A    between atoms: C_11  and  C_13
REMARK    9  A    between atoms: N_17  and  C_18
REMARK   10  A    between atoms: C_18  and  C_19
REMARK   11  A    between atoms: C_19  and  C_20
REMARK   12  A    between atoms: C_23  and  N_24
REMARK   13  A    between atoms: C_25  and  C_27
REMARK   14  A    between atoms: C_27  and  O_28
REMARK                            x       y       z     vdW  Elec       q    Type
REMARK                         _______ _______ _______ _____ _____    ______ ____
ROOT
ATOM      1  C   UNL     1       7.877  -4.592  23.675  0.00  0.00    +0.236 C 
ATOM      2  N   UNL     1       8.125  -3.233  23.758  0.00  0.00    -0.313 N 
ATOM      3  H   UNL     1       7.340  -2.635  23.993  0.00  0.00    +0.149 HD
ATOM      4  O   UNL     1       8.785  -5.418  23.777  0.00  0.00    -0.274 OA
ENDROOT
BRANCH   1   5
ATOM      5  CA  UNL     1       6.396  -5.021  23.548  0.00  0.00    +0.184 C 
BRANCH   5   6
ATOM      6  N   UNL     1       5.823  -5.482  24.833  0.00  0.00    -0.302 N 
ATOM      7  H   UNL     1       5.522  -6.447  24.871  0.00  0.00    +0.150 HD
ATOM      8  C   UNL     1       5.427  -4.623  25.827  0.00  0.00    +0.215 C 
ATOM      9  O   UNL     1       5.504  -3.405  25.708  0.00  0.00    -0.276 OA
BRANCH   8  10
ATOM     10  C   UNL     1       4.864  -5.284  27.065  0.00  0.00    +0.114 C 
BRANCH  10  11
ATOM     11  C   UNL     1       4.830  -6.792  26.839  0.00  0.00    +0.113 C 
BRANCH  11  12
ATOM     12  N   UNL     1       3.489  -7.307  26.656  0.00  0.00    -0.314 N 
ATOM     13  H   UNL     1       2.793  -7.144  27.374  0.00  0.00    +0.149 HD
ATOM     14  C   UNL     1       3.055  -7.699  25.402  0.00  0.00    +0.223 C 
ATOM     15  O   UNL     1       3.782  -7.704  24.411  0.00  0.00    -0.275 OA
BRANCH  14  16
ATOM     16  C   UNL     1       1.594  -8.068  25.316  0.00  0.00    +0.175 C 
ATOM     17 BR   UNL     1       0.791  -7.073  23.854  0.00  0.00    -0.082 Br
ENDBRANCH  14  16
ENDBRANCH  11  12
ENDBRANCH  10  11
ENDBRANCH   8  10
ENDBRANCH   5   6
BRANCH   5  18
ATOM     18  C   UNL     1       6.210  -6.024  22.393  0.00  0.00    +0.187 C 
BRANCH  18  19
ATOM     19  O   UNL     1       7.118  -5.788  21.321  0.00  0.00    -0.393 OA
ATOM     20  H   UNL     1       6.644  -6.015  20.501  0.00  0.00    +0.209 HD
ENDBRANCH  18  19
ENDBRANCH   5  18
ENDBRANCH   1   5
BRANCH   2  21
ATOM     21  C   UNL     1       9.464  -2.774  24.091  0.00  0.00    +0.109 C 
BRANCH  21  22
ATOM     22  C   UNL     1      10.170  -2.037  22.949  0.00  0.00    +0.054 C 
BRANCH  22  23
ATOM     23  C   UNL     1      10.119  -0.531  23.071  0.00  0.00    -0.046 A 
ATOM     24  C   UNL     1      10.261   0.096  24.314  0.00  0.00    +0.005 A 
ATOM     25  C   UNL     1      10.235   1.494  24.417  0.00  0.00    +0.023 A 
ATOM     26  C   UNL     1      10.040   2.285  23.278  0.00  0.00    +0.034 A 
ATOM     27  C   UNL     1       9.871   1.658  22.045  0.00  0.00    +0.023 A 
ATOM     28  C   UNL     1       9.912   0.266  21.939  0.00  0.00    +0.005 A 
BRANCH  26  29
ATOM     29  N   UNL     1      10.040   3.685  23.433  0.00  0.00    -0.276 N 
ATOM     30  H   UNL     1       9.140   4.157  23.478  0.00  0.00    +0.155 HD
ATOM     31  C   UNL     1      11.151   4.495  23.517  0.00  0.00    +0.325 C 
ATOM     32  O   UNL     1      12.339   4.227  23.388  0.00  0.00    -0.263 OA
BRANCH  31  33
ATOM     33  C   UNL     1      10.825   5.973  23.769  0.00  0.00    +0.393 C 
ATOM     34  O   UNL     1       9.790   6.494  23.394  0.00  0.00    -0.240 OA
BRANCH  33  35
ATOM     35  O   UNL     1      11.807   6.569  24.465  0.00  0.00    -0.474 OA
ATOM     36  H   UNL     1      11.408   7.010  25.252  0.00  0.00    +0.296 HD
ENDBRANCH  33  35
ENDBRANCH  31  33
ENDBRANCH  26  29
ENDBRANCH  22  23
ENDBRANCH  21  22
ENDBRANCH   2  21
TORSDOF 14
ENDMDL
MODEL 5
REMARK VINA RESULT:      -6.6      2.252      3.201
REMARK  Name = 
REMARK  14 active torsions:
REMARK  status: ('A' for Active; 'I' for Inactive)
REMARK    1  A    between atoms: O_1  and  C_2
REMARK    2  A    between atoms: C_2  and  CA_3
REMARK    3  A    between atoms: CA_3  and  N_5
REMARK    4  A    between atoms: CA_3  and  C_15
REMARK    5  A    between atoms: C_6  and  C_8
REMARK    6  A    between atoms: C_8  and  C_9
REMARK    7  A    between atoms: C_9  and  N_10
REMARK    8  A    between atoms: C_11  and  C_13
REMARK    9  A    between atoms: N_17  and  C_18
REMARK   10  A    between atoms: C_18  and  C_19
REMARK   11  A    between atoms: C_19  and  C_20
REMARK   12  A    between atoms: C_23  and  N_24
REMARK   13  A    between atoms: C_25  and  C_27
REMARK   14  A    between atoms: C_27  and  O_28
REMARK                            x       y       z     vdW  Elec       q    Type
REMARK                         _______ _______ _______ _____ _____    ______ ____
ROOT
ATOM      1  C   UNL     1       7.801  -4.537  24.075  0.00  0.00    +0.236 C 
ATOM      2  N   UNL     1       7.802  -3.154  24.020  0.00  0.00    -0.313 N 
ATOM      3  H   UNL     1       8.157  -2.662  24.833  0.00  0.00    +0.149 HD
ATOM      4  O   UNL     1       7.762  -5.220  23.050  0.00  0.00    -0.274 OA
ENDROOT
BRANCH   1   5
ATOM      5  CA  UNL     1       7.950  -5.176  25.475  0.00  0.00    +0.184 C 
BRANCH   5   6
ATOM      6  N   UNL     1       6.974  -4.643  26.453  0.00  0.00    -0.302 N 
ATOM      7  H   UNL     1       7.209  -3.759  26.887  0.00  0.00    +0.150 HD
ATOM      8  C   UNL     1       5.963  -5.400  26.992  0.00  0.00    +0.215 C 
ATOM      9  O   UNL     1       5.812  -6.583  26.710  0.00  0.00    -0.276 OA
BRANCH   8  10
ATOM     10  C   UNL     1       5.070  -4.678  27.974  0.00  0.00    +0.114 C 
BRANCH  10  11
ATOM     11  C   UNL     1       4.085  -3.814  27.193  0.00  0.00    +0.113 C 
BRANCH  11  12
ATOM     12  N   UNL     1       3.535  -4.488  26.035  0.00  0.00    -0.314 N 
ATOM     13  H   UNL     1       2.724  -5.084  26.147  0.00  0.00    +0.149 HD
ATOM     14  C   UNL     1       3.868  -4.070  24.759  0.00  0.00    +0.223 C 
ATOM     15  O   UNL     1       4.683  -3.176  24.536  0.00  0.00    -0.275 OA
BRANCH  14  16
ATOM     16  C   UNL     1       3.110  -4.749  23.644  0.00  0.00    +0.175 C 
ATOM     17 BR   UNL     1       2.172  -6.282  24.381  0.00  0.00    -0.082 Br
ENDBRANCH  14  16
ENDBRANCH  11  12
ENDBRANCH  10  11
ENDBRANCH   8  10
ENDBRANCH   5   6
BRANCH   5  18
ATOM     18  C   UNL     1       9.411  -5.108  25.960  0.00  0.00    +0.187 C 
BRANCH  18  19
ATOM     19  O   UNL     1      10.336  -5.025  24.879  0.00  0.00    -0.393 OA
ATOM     20  H   UNL     1      10.468  -5.934  24.557  0.00  0.00    +0.209 HD
ENDBRANCH  18  19
ENDBRANCH   5  18
ENDBRANCH   1   5
BRANCH   2  21
ATOM     21  C   UNL     1       7.879  -2.494  22.727  0.00  0.00    +0.109 C 
BRANCH  21  22
ATOM     22  C   UNL     1       9.303  -2.120  22.305  0.00  0.00    +0.054 C 
BRANCH  22  23
ATOM     23  C   UNL     1       9.637  -0.659  22.506  0.00  0.00    -0.046 A 
ATOM     24  C   UNL     1      10.269  -0.220  23.675  0.00  0.00    +0.005 A 
ATOM     25  C   UNL     1      10.596   1.132  23.846  0.00  0.00    +0.023 A 
ATOM     26  C   UNL     1      10.271   2.071  22.858  0.00  0.00    +0.034 A 
ATOM     27  C   UNL     1       9.617   1.636  21.707  0.00  0.00    +0.023 A 
ATOM     28  C   UNL     1       9.305   0.286  21.529  0.00  0.00    +0.005 A 
BRANCH  26  29
ATOM     29  N   UNL     1      10.638   3.413  23.070  0.00  0.00    -0.276 N 
ATOM     30  H   UNL     1      11.513   3.736  22.663  0.00  0.00    +0.155 HD
ATOM     31  C   UNL     1       9.931   4.348  23.794  0.00  0.00    +0.325 C 
ATOM     32  O   UNL     1       8.919   4.224  24.473  0.00  0.00    -0.263 OA
BRANCH  31  33
ATOM     33  C   UNL     1      10.549   5.752  23.770  0.00  0.00    +0.393 C 
ATOM     34  O   UNL     1      10.162   6.656  24.488  0.00  0.00    -0.240 OA
BRANCH  33  35
ATOM     35  O   UNL     1      11.561   5.815  22.888  0.00  0.00    -0.474 OA
ATOM     36  H   UNL     1      12.377   6.087  23.370  0.00  0.00    +0.296 HD
ENDBRANCH  33  35
ENDBRANCH  31  33
ENDBRANCH  26  29
ENDBRANCH  22  23
ENDBRANCH  21  22
ENDBRANCH   2  21
TORSDOF 14
ENDMDL
MODEL 6
REMARK VINA RESULT:      -6.6      2.991      4.158
REMARK  Name = 
REMARK  14 active torsions:
REMARK  status: ('A' for Active; 'I' for Inactive)
REMARK    1  A    between atoms: O_1  and  C_2
REMARK    2  A    between atoms: C_2  and  CA_3
REMARK    3  A    between atoms: CA_3  and  N_5
REMARK    4  A    between atoms: CA_3  and  C_15
REMARK    5  A    between atoms: C_6  and  C_8
REMARK    6  A    between atoms: C_8  and  C_9
REMARK    7  A    between atoms: C_9  and  N_10
REMARK    8  A    between atoms: C_11  and  C_13
REMARK    9  A    between atoms: N_17  and  C_18
REMARK   10  A    between atoms: C_18  and  C_19
REMARK   11  A    between atoms: C_19  and  C_20
REMARK   12  A    between atoms: C_23  and  N_24
REMARK   13  A    between atoms: C_25  and  C_27
REMARK   14  A    between atoms: C_27  and  O_28
REMARK                            x       y       z     vdW  Elec       q    Type
REMARK                         _______ _______ _______ _____ _____    ______ ____
ROOT
ATOM      1  C   UNL     1       7.904  -4.566  23.734  0.00  0.00    +0.236 C 
ATOM      2  N   UNL     1       8.169  -3.208  23.742  0.00  0.00    -0.313 N 
ATOM      3  H   UNL     1       7.390  -2.588  23.933  0.00  0.00    +0.149 HD
ATOM      4  O   UNL     1       8.800  -5.397  23.894  0.00  0.00    -0.274 OA
ENDROOT
BRANCH   1   5
ATOM      5  CA  UNL     1       6.419  -4.982  23.615  0.00  0.00    +0.184 C 
BRANCH   5   6
ATOM      6  N   UNL     1       5.866  -5.496  24.888  0.00  0.00    -0.302 N 
ATOM      7  H   UNL     1       5.498  -6.439  24.871  0.00  0.00    +0.150 HD
ATOM      8  C   UNL     1       5.572  -4.688  25.958  0.00  0.00    +0.215 C 
ATOM      9  O   UNL     1       5.732  -3.473  25.921  0.00  0.00    -0.276 OA
BRANCH   8  10
ATOM     10  C   UNL     1       5.013  -5.399  27.169  0.00  0.00    +0.114 C 
BRANCH  10  11
ATOM     11  C   UNL     1       4.816  -6.871  26.822  0.00  0.00    +0.113 C 
BRANCH  11  12
ATOM     12  N   UNL     1       3.429  -7.218  26.594  0.00  0.00    -0.314 N 
ATOM     13  H   UNL     1       2.730  -6.943  27.274  0.00  0.00    +0.149 HD
ATOM     14  C   UNL     1       3.000  -7.597  25.334  0.00  0.00    +0.223 C 
ATOM     15  O   UNL     1       3.761  -7.729  24.377  0.00  0.00    -0.275 OA
BRANCH  14  16
ATOM     16  C   UNL     1       1.509  -7.780  25.192  0.00  0.00    +0.175 C 
ATOM     17 BR   UNL     1       1.151  -8.643  23.489  0.00  0.00    -0.082 Br
ENDBRANCH  14  16
ENDBRANCH  11  12
ENDBRANCH  10  11
ENDBRANCH   8  10
ENDBRANCH   5   6
BRANCH   5  18
ATOM     18  C   UNL     1       6.207  -5.933  22.420  0.00  0.00    +0.187 C 
BRANCH  18  19
ATOM     19  O   UNL     1       7.278  -5.869  21.483  0.00  0.00    -0.393 OA
ATOM     20  H   UNL     1       6.884  -6.004  20.602  0.00  0.00    +0.209 HD
ENDBRANCH  18  19
ENDBRANCH   5  18
ENDBRANCH   1   5
BRANCH   2  21
ATOM     21  C   UNL     1       9.511  -2.748  24.064  0.00  0.00    +0.109 C 
BRANCH  21  22
ATOM     22  C   UNL     1      10.224  -2.050  22.902  0.00  0.00    +0.054 C 
BRANCH  22  23
ATOM     23  C   UNL     1      10.180  -0.541  22.976  0.00  0.00    -0.046 A 
ATOM     24  C   UNL     1       9.821   0.224  21.861  0.00  0.00    +0.005 A 
ATOM     25  C   UNL     1       9.760   1.622  21.943  0.00  0.00    +0.023 A 
ATOM     26  C   UNL     1      10.085   2.278  23.137  0.00  0.00    +0.034 A 
ATOM     27  C   UNL     1      10.469   1.516  24.238  0.00  0.00    +0.023 A 
ATOM     28  C   UNL     1      10.515   0.121  24.163  0.00  0.00    +0.005 A 
BRANCH  26  29
ATOM     29  N   UNL     1       9.990   3.682  23.172  0.00  0.00    -0.276 N 
ATOM     30  H   UNL     1      10.754   4.219  22.768  0.00  0.00    +0.155 HD
ATOM     31  C   UNL     1       8.960   4.417  23.716  0.00  0.00    +0.325 C 
ATOM     32  O   UNL     1       7.978   4.054  24.354  0.00  0.00    -0.263 OA
BRANCH  31  33
ATOM     33  C   UNL     1       9.105   5.932  23.522  0.00  0.00    +0.393 C 
ATOM     34  O   UNL     1       8.227   6.722  23.817  0.00  0.00    -0.240 OA
BRANCH  33  35
ATOM     35  O   UNL     1      10.315   6.237  23.023  0.00  0.00    -0.474 OA
ATOM     36  H   UNL     1      10.728   6.919  23.604  0.00  0.00    +0.296 HD
ENDBRANCH  33  35
ENDBRANCH  31  33
ENDBRANCH  26  29
ENDBRANCH  22  23
ENDBRANCH  21  22
ENDBRANCH   2  21
TORSDOF 14
ENDMDL
MODEL 7
REMARK VINA RESULT:      -6.6      2.241      3.134
REMARK  Name = 
REMARK  14 active torsions:
REMARK  status: ('A' for Active; 'I' for Inactive)
REMARK    1  A    between atoms: O_1  and  C_2
REMARK    2  A    between atoms: C_2  and  CA_3
REMARK    3  A    between atoms: CA_3  and  N_5
REMARK    4  A    between atoms: CA_3  and  C_15
REMARK    5  A    between atoms: C_6  and  C_8
REMARK    6  A    between atoms: C_8  and  C_9
REMARK    7  A    between atoms: C_9  and  N_10
REMARK    8  A    between atoms: C_11  and  C_13
REMARK    9  A    between atoms: N_17  and  C_18
REMARK   10  A    between atoms: C_18  and  C_19
REMARK   11  A    between atoms: C_19  and  C_20
REMARK   12  A    between atoms: C_23  and  N_24
REMARK   13  A    between atoms: C_25  and  C_27
REMARK   14  A    between atoms: C_27  and  O_28
REMARK                            x       y       z     vdW  Elec       q    Type
REMARK                         _______ _______ _______ _____ _____    ______ ____
ROOT
ATOM      1  C   UNL     1       8.685  -2.944  24.922  0.00  0.00    +0.236 C 
ATOM      2  N   UNL     1       8.074  -2.243  23.897  0.00  0.00    -0.313 N 
ATOM      3  H   UNL     1       7.586  -1.390  24.150  0.00  0.00    +0.149 HD
ATOM      4  O   UNL     1       9.594  -3.744  24.699  0.00  0.00    -0.274 OA
ENDROOT
BRANCH   1   5
ATOM      5  CA  UNL     1       8.238  -2.599  26.362  0.00  0.00    +0.184 C 
BRANCH   5   6
ATOM      6  N   UNL     1       6.972  -3.265  26.741  0.00  0.00    -0.302 N 
ATOM      7  H   UNL     1       6.159  -2.669  26.833  0.00  0.00    +0.150 HD
ATOM      8  C   UNL     1       6.918  -4.543  27.241  0.00  0.00    +0.215 C 
ATOM      9  O   UNL     1       7.927  -5.215  27.425  0.00  0.00    -0.276 OA
BRANCH   8  10
ATOM     10  C   UNL     1       5.532  -5.049  27.571  0.00  0.00    +0.114 C 
BRANCH  10  11
ATOM     11  C   UNL     1       4.617  -4.773  26.383  0.00  0.00    +0.113 C 
BRANCH  11  12
ATOM     12  N   UNL     1       4.849  -5.669  25.269  0.00  0.00    -0.314 N 
ATOM     13  H   UNL     1       4.430  -6.591  25.279  0.00  0.00    +0.149 HD
ATOM     14  C   UNL     1       5.324  -5.180  24.065  0.00  0.00    +0.223 C 
ATOM     15  O   UNL     1       5.638  -4.004  23.895  0.00  0.00    -0.275 OA
BRANCH  14  16
ATOM     16  C   UNL     1       5.373  -6.185  22.940  0.00  0.00    +0.175 C 
ATOM     17 BR   UNL     1       6.661  -5.574  21.621  0.00  0.00    -0.082 Br
ENDBRANCH  14  16
ENDBRANCH  11  12
ENDBRANCH  10  11
ENDBRANCH   8  10
ENDBRANCH   5   6
BRANCH   5  18
ATOM     18  C   UNL     1       8.224  -1.073  26.585  0.00  0.00    +0.187 C 
BRANCH  18  19
ATOM     19  O   UNL     1       9.206  -0.658  27.530  0.00  0.00    -0.393 OA
ATOM     20  H   UNL     1       9.917  -0.228  27.021  0.00  0.00    +0.209 HD
ENDBRANCH  18  19
ENDBRANCH   5  18
ENDBRANCH   1   5
BRANCH   2  21
ATOM     21  C   UNL     1       8.594  -2.363  22.544  0.00  0.00    +0.109 C 
BRANCH  21  22
ATOM     22  C   UNL     1      10.007  -1.798  22.369  0.00  0.00    +0.054 C 
BRANCH  22  23
ATOM     23  C   UNL     1      10.104  -0.310  22.618  0.00  0.00    -0.046 A 
ATOM     24  C   UNL     1       9.669   0.610  21.657  0.00  0.00    +0.005 A 
ATOM     25  C   UNL     1       9.741   1.988  21.902  0.00  0.00    +0.023 A 
ATOM     26  C   UNL     1      10.275   2.467  23.105  0.00  0.00    +0.034 A 
ATOM     27  C   UNL     1      10.732   1.551  24.049  0.00  0.00    +0.023 A 
ATOM     28  C   UNL     1      10.647   0.176  23.812  0.00  0.00    +0.005 A 
BRANCH  26  29
ATOM     29  N   UNL     1      10.307   3.860  23.310  0.00  0.00    -0.276 N 
ATOM     30  H   UNL     1      11.020   4.395  22.819  0.00  0.00    +0.155 HD
ATOM     31  C   UNL     1       9.469   4.583  24.129  0.00  0.00    +0.325 C 
ATOM     32  O   UNL     1       8.604   4.205  24.910  0.00  0.00    -0.263 OA
BRANCH  31  33
ATOM     33  C   UNL     1       9.701   6.099  24.074  0.00  0.00    +0.393 C 
ATOM     34  O   UNL     1      10.304   6.706  24.941  0.00  0.00    -0.240 OA
BRANCH  33  35
ATOM     35  O   UNL     1       9.179   6.623  22.953  0.00  0.00    -0.474 OA
ATOM     36  H   UNL     1       8.200   6.506  22.981  0.00  0.00    +0.296 HD
ENDBRANCH  33  35
ENDBRANCH  31  33
ENDBRANCH  26  29
ENDBRANCH  22  23
ENDBRANCH  21  22
ENDBRANCH   2  21
TORSDOF 14
ENDMDL
MODEL 8
REMARK VINA RESULT:      -6.6      2.274      3.458
REMARK  Name = 
REMARK  14 active torsions:
REMARK  status: ('A' for Active; 'I' for Inactive)
REMARK    1  A    between atoms: O_1  and  C_2
REMARK    2  A    between atoms: C_2  and  CA_3
REMARK    3  A    between atoms: CA_3  and  N_5
REMARK    4  A    between atoms: CA_3  and  C_15
REMARK    5  A    between atoms: C_6  and  C_8
REMARK    6  A    between atoms: C_8  and  C_9
REMARK    7  A    between atoms: C_9  and  N_10
REMARK    8  A    between atoms: C_11  and  C_13
REMARK    9  A    between atoms: N_17  and  C_18
REMARK   10  A    between atoms: C_18  and  C_19
REMARK   11  A    between atoms: C_19  and  C_20
REMARK   12  A    between atoms: C_23  and  N_24
REMARK   13  A    between atoms: C_25  and  C_27
REMARK   14  A    between atoms: C_27  and  O_28
REMARK                            x       y       z     vdW  Elec       q    Type
REMARK                         _______ _______ _______ _____ _____    ______ ____
ROOT
ATOM      1  C   UNL     1       7.644  -1.746  25.402  0.00  0.00    +0.236 C 
ATOM      2  N   UNL     1       8.117  -2.405  24.281  0.00  0.00    -0.313 N 
ATOM      3  H   UNL     1       7.561  -2.331  23.435  0.00  0.00    +0.149 HD
ATOM      4  O   UNL     1       8.391  -1.450  26.336  0.00  0.00    -0.274 OA
ENDROOT
BRANCH   1   5
ATOM      5  CA  UNL     1       6.158  -1.316  25.380  0.00  0.00    +0.184 C 
BRANCH   5   6
ATOM      6  N   UNL     1       5.287  -2.308  24.712  0.00  0.00    -0.302 N 
ATOM      7  H   UNL     1       5.308  -2.318  23.700  0.00  0.00    +0.150 HD
ATOM      8  C   UNL     1       4.279  -2.978  25.361  0.00  0.00    +0.215 C 
ATOM      9  O   UNL     1       4.021  -2.782  26.543  0.00  0.00    -0.276 OA
BRANCH   8  10
ATOM     10  C   UNL     1       3.497  -3.951  24.508  0.00  0.00    +0.114 C 
BRANCH  10  11
ATOM     11  C   UNL     1       4.130  -5.332  24.641  0.00  0.00    +0.113 C 
BRANCH  11  12
ATOM     12  N   UNL     1       5.098  -5.614  23.600  0.00  0.00    -0.314 N 
ATOM     13  H   UNL     1       4.788  -5.672  22.638  0.00  0.00    +0.149 HD
ATOM     14  C   UNL     1       6.452  -5.459  23.843  0.00  0.00    +0.223 C 
ATOM     15  O   UNL     1       6.906  -5.154  24.944  0.00  0.00    -0.275 OA
BRANCH  14  16
ATOM     16  C   UNL     1       7.342  -5.631  22.637  0.00  0.00    +0.175 C 
ATOM     17 BR   UNL     1       6.223  -5.747  21.054  0.00  0.00    -0.082 Br
ENDBRANCH  14  16
ENDBRANCH  11  12
ENDBRANCH  10  11
ENDBRANCH   8  10
ENDBRANCH   5   6
BRANCH   5  18
ATOM     18  C   UNL     1       6.006   0.114  24.824  0.00  0.00    +0.187 C 
BRANCH  18  19
ATOM     19  O   UNL     1       7.259   0.688  24.461  0.00  0.00    -0.393 OA
ATOM     20  H   UNL     1       7.913  -0.033  24.490  0.00  0.00    +0.209 HD
ENDBRANCH  18  19
ENDBRANCH   5  18
ENDBRANCH   1   5
BRANCH   2  21
ATOM     21  C   UNL     1       9.545  -2.646  24.148  0.00  0.00    +0.109 C 
BRANCH  21  22
ATOM     22  C   UNL     1      10.174  -1.989  22.915  0.00  0.00    +0.054 C 
BRANCH  22  23
ATOM     23  C   UNL     1      10.207  -0.479  22.978  0.00  0.00    -0.046 A 
ATOM     24  C   UNL     1       9.766   0.296  21.900  0.00  0.00    +0.005 A 
ATOM     25  C   UNL     1       9.778   1.696  21.973  0.00  0.00    +0.023 A 
ATOM     26  C   UNL     1      10.257   2.342  23.119  0.00  0.00    +0.034 A 
ATOM     27  C   UNL     1      10.721   1.569  24.181  0.00  0.00    +0.023 A 
ATOM     28  C   UNL     1      10.696   0.173  24.116  0.00  0.00    +0.005 A 
BRANCH  26  29
ATOM     29  N   UNL     1      10.231   3.749  23.150  0.00  0.00    -0.276 N 
ATOM     30  H   UNL     1      10.890   4.249  22.557  0.00  0.00    +0.155 HD
ATOM     31  C   UNL     1       9.401   4.533  23.920  0.00  0.00    +0.325 C 
ATOM     32  O   UNL     1       8.596   4.218  24.790  0.00  0.00    -0.263 OA
BRANCH  31  33
ATOM     33  C   UNL     1       9.553   6.038  23.667  0.00  0.00    +0.393 C 
ATOM     34  O   UNL     1      10.301   6.745  24.319  0.00  0.00    -0.240 OA
BRANCH  33  35
ATOM     35  O   UNL     1       8.786   6.431  22.637  0.00  0.00    -0.474 OA
ATOM     36  H   UNL     1       9.349   6.477  21.828  0.00  0.00    +0.296 HD
ENDBRANCH  33  35
ENDBRANCH  31  33
ENDBRANCH  26  29
ENDBRANCH  22  23
ENDBRANCH  21  22
ENDBRANCH   2  21
TORSDOF 14
ENDMDL
MODEL 9
REMARK VINA RESULT:      -6.6      2.879      8.837
REMARK  Name = 
REMARK  14 active torsions:
REMARK  status: ('A' for Active; 'I' for Inactive)
REMARK    1  A    between atoms: O_1  and  C_2
REMARK    2  A    between atoms: C_2  and  CA_3
REMARK    3  A    between atoms: CA_3  and  N_5
REMARK    4  A    between atoms: CA_3  and  C_15
REMARK    5  A    between atoms: C_6  and  C_8
REMARK    6  A    between atoms: C_8  and  C_9
REMARK    7  A    between atoms: C_9  and  N_10
REMARK    8  A    between atoms: C_11  and  C_13
REMARK    9  A    between atoms: N_17  and  C_18
REMARK   10  A    between atoms: C_18  and  C_19
REMARK   11  A    between atoms: C_19  and  C_20
REMARK   12  A    between atoms: C_23  and  N_24
REMARK   13  A    between atoms: C_25  and  C_27
REMARK   14  A    between atoms: C_27  and  O_28
REMARK                            x       y       z     vdW  Elec       q    Type
REMARK                         _______ _______ _______ _____ _____    ______ ____
ROOT
ATOM      1  C   UNL     1       8.031   2.144  21.942  0.00  0.00    +0.236 C 
ATOM      2  N   UNL     1       9.237   2.646  22.399  0.00  0.00    -0.313 N 
ATOM      3  H   UNL     1       9.205   3.511  22.929  0.00  0.00    +0.149 HD
ATOM      4  O   UNL     1       7.904   0.957  21.637  0.00  0.00    -0.274 OA
ENDROOT
BRANCH   1   5
ATOM      5  CA  UNL     1       6.833   3.122  21.928  0.00  0.00    +0.184 C 
BRANCH   5   6
ATOM      6  N   UNL     1       7.251   4.539  22.018  0.00  0.00    -0.302 N 
ATOM      7  H   UNL     1       7.503   4.991  21.148  0.00  0.00    +0.150 HD
ATOM      8  C   UNL     1       7.584   5.148  23.203  0.00  0.00    +0.215 C 
ATOM      9  O   UNL     1       7.574   4.547  24.271  0.00  0.00    -0.276 OA
BRANCH   8  10
ATOM     10  C   UNL     1       7.987   6.601  23.091  0.00  0.00    +0.114 C 
BRANCH  10  11
ATOM     11  C   UNL     1       9.339   6.785  23.774  0.00  0.00    +0.113 C 
BRANCH  11  12
ATOM     12  N   UNL     1      10.316   5.794  23.372  0.00  0.00    -0.314 N 
ATOM     13  H   UNL     1      10.163   5.263  22.523  0.00  0.00    +0.149 HD
ATOM     14  C   UNL     1      11.588   5.805  23.916  0.00  0.00    +0.223 C 
ATOM     15  O   UNL     1      11.933   6.586  24.801  0.00  0.00    -0.275 OA
BRANCH  14  16
ATOM     16  C   UNL     1      12.556   4.824  23.302  0.00  0.00    +0.175 C 
ATOM     17 BR   UNL     1      13.597   5.748  21.947  0.00  0.00    -0.082 Br
ENDBRANCH  14  16
ENDBRANCH  11  12
ENDBRANCH  10  11
ENDBRANCH   8  10
ENDBRANCH   5   6
BRANCH   5  18
ATOM     18  C   UNL     1       5.780   2.721  22.980  0.00  0.00    +0.187 C 
BRANCH  18  19
ATOM     19  O   UNL     1       6.327   1.889  24.000  0.00  0.00    -0.393 OA
ATOM     20  H   UNL     1       5.596   1.683  24.610  0.00  0.00    +0.209 HD
ENDBRANCH  18  19
ENDBRANCH   5  18
ENDBRANCH   1   5
BRANCH   2  21
ATOM     21  C   UNL     1      10.343   1.732  22.638  0.00  0.00    +0.109 C 
BRANCH  21  22
ATOM     22  C   UNL     1      10.568   1.403  24.116  0.00  0.00    +0.054 C 
BRANCH  22  23
ATOM     23  C   UNL     1       9.813   0.182  24.592  0.00  0.00    -0.046 A 
ATOM     24  C   UNL     1       9.880  -1.025  23.887  0.00  0.00    +0.005 A 
ATOM     25  C   UNL     1       9.197  -2.160  24.346  0.00  0.00    +0.023 A 
ATOM     26  C   UNL     1       8.413  -2.095  25.504  0.00  0.00    +0.034 A 
ATOM     27  C   UNL     1       8.325  -0.885  26.189  0.00  0.00    +0.023 A 
ATOM     28  C   UNL     1       9.018   0.242  25.742  0.00  0.00    +0.005 A 
BRANCH  26  29
ATOM     29  N   UNL     1       7.761  -3.268  25.933  0.00  0.00    -0.276 N 
ATOM     30  H   UNL     1       6.744  -3.282  25.905  0.00  0.00    +0.155 HD
ATOM     31  C   UNL     1       8.367  -4.411  26.405  0.00  0.00    +0.325 C 
ATOM     32  O   UNL     1       9.546  -4.641  26.647  0.00  0.00    -0.263 OA
BRANCH  31  33
ATOM     33  C   UNL     1       7.388  -5.552  26.713  0.00  0.00    +0.393 C 
ATOM     34  O   UNL     1       6.553  -5.938  25.915  0.00  0.00    -0.240 OA
BRANCH  33  35
ATOM     35  O   UNL     1       7.608  -6.054  27.939  0.00  0.00    -0.474 OA
ATOM     36  H   UNL     1       6.951  -5.658  28.560  0.00  0.00    +0.296 HD
ENDBRANCH  33  35
ENDBRANCH  31  33
ENDBRANCH  26  29
ENDBRANCH  22  23
ENDBRANCH  21  22
ENDBRANCH   2  21
TORSDOF 14
ENDMDL
