MODEL 1
REMARK VINA RESULT:      -6.3      0.000      0.000
REMARK  Name = 
REMARK  2 active torsions:
REMARK  status: ('A' for Active; 'I' for Inactive)
REMARK    1  A    between atoms: O_1  and  C_2
REMARK    2  A    between atoms: C_4  and  C_8
REMARK                            x       y       z     vdW  Elec       q    Type
REMARK                         _______ _______ _______ _____ _____    ______ ____
ROOT
ATOM      1  C   UNL     1      10.034   2.137  23.094  0.00  0.00    +0.121 C 
ATOM      2  S   UNL     1       9.945   0.957  24.351  0.00  0.00    +0.075 S 
ATOM      3  O   UNL     1      11.250   0.669  24.899  0.00  0.00    -0.150 OA
ATOM      4  O   UNL     1       8.789   1.177  25.193  0.00  0.00    -0.150 OA
ATOM      5  N   UNL     1       9.564  -0.287  23.320  0.00  0.00    -0.182 N 
ATOM      6  H   UNL     1       9.649  -1.255  23.603  0.00  0.00    +0.177 HD
ATOM      7  C   UNL     1       9.532   0.126  21.992  0.00  0.00    +0.258 C 
ATOM      8  O   UNL     1       9.391  -0.616  21.040  0.00  0.00    -0.269 OA
ATOM      9  C   UNL     1       9.776   1.586  21.897  0.00  0.00    +0.098 C 
ENDROOT
BRANCH   1  14
ATOM     10  C   UNL     1      12.142   5.237  23.664  0.00  0.00    +0.117 A 
ATOM     11  C   UNL     1      11.189   6.130  24.131  0.00  0.00    +0.045 A 
ATOM     12  C   UNL     1       9.873   5.708  24.282  0.00  0.00    +0.004 A 
ATOM     13  C   UNL     1       9.519   4.397  23.950  0.00  0.00    +0.010 A 
ATOM     14  C   UNL     1      10.473   3.482  23.465  0.00  0.00    +0.005 A 
ATOM     15  C   UNL     1      11.800   3.923  23.340  0.00  0.00    +0.055 A 
BRANCH  10  16
ATOM     16  O   UNL     1      13.421   5.693  23.528  0.00  0.00    -0.507 OA
ATOM     17  H   UNL     1      13.814   5.300  22.731  0.00  0.00    +0.292 HD
ENDBRANCH  10  16
ENDBRANCH   1  14
TORSDOF 2
ENDMDL
MODEL 2
REMARK VINA RESULT:      -6.1      3.533      4.760
REMARK  Name = 
REMARK  2 active torsions:
REMARK  status: ('A' for Active; 'I' for Inactive)
REMARK    1  A    between atoms: O_1  and  C_2
REMARK    2  A    between atoms: C_4  and  C_8
REMARK                            x       y       z     vdW  Elec       q    Type
REMARK                         _______ _______ _______ _____ _____    ______ ____
ROOT
ATOM      1  C   UNL     1       8.506  -2.184  23.220  0.00  0.00    +0.121 C 
ATOM      2  S   UNL     1       8.807  -3.403  24.404  0.00  0.00    +0.075 S 
ATOM      3  O   UNL     1      10.170  -3.877  24.340  0.00  0.00    -0.150 OA
ATOM      4  O   UNL     1       8.164  -3.082  25.659  0.00  0.00    -0.150 OA
ATOM      5  N   UNL     1       7.860  -4.538  23.650  0.00  0.00    -0.182 N 
ATOM      6  H   UNL     1       7.928  -5.521  23.879  0.00  0.00    +0.177 HD
ATOM      7  C   UNL     1       7.318  -4.061  22.460  0.00  0.00    +0.258 C 
ATOM      8  O   UNL     1       6.686  -4.733  21.670  0.00  0.00    -0.269 OA
ATOM      9  C   UNL     1       7.690  -2.640  22.256  0.00  0.00    +0.098 C 
ENDROOT
BRANCH   1  14
ATOM     10  C   UNL     1      10.015   1.225  22.522  0.00  0.00    +0.117 A 
ATOM     11  C   UNL     1      10.600   1.517  23.746  0.00  0.00    +0.045 A 
ATOM     12  C   UNL     1      10.520   0.591  24.779  0.00  0.00    +0.004 A 
ATOM     13  C   UNL     1       9.844  -0.617  24.583  0.00  0.00    +0.010 A 
ATOM     14  C   UNL     1       9.236  -0.923  23.351  0.00  0.00    +0.005 A 
ATOM     15  C   UNL     1       9.345   0.017  22.314  0.00  0.00    +0.055 A 
BRANCH  10  16
ATOM     16  O   UNL     1      10.113   2.163  21.537  0.00  0.00    -0.507 OA
ATOM     17  H   UNL     1      10.464   2.986  21.916  0.00  0.00    +0.292 HD
ENDBRANCH  10  16
ENDBRANCH   1  14
TORSDOF 2
ENDMDL
MODEL 3
REMARK VINA RESULT:      -6.1      4.943      6.795
REMARK  Name = 
REMARK  2 active torsions:
REMARK  status: ('A' for Active; 'I' for Inactive)
REMARK    1  A    between atoms: O_1  and  C_2
REMARK    2  A    between atoms: C_4  and  C_8
REMARK                            x       y       z     vdW  Elec       q    Type
REMARK                         _______ _______ _______ _____ _____    ______ ____
ROOT
ATOM      1  C   UNL     1       8.661  -3.439  25.628  0.00  0.00    +0.121 C 
ATOM      2  S   UNL     1       9.105  -5.025  25.111  0.00  0.00    +0.075 S 
ATOM      3  O   UNL     1       8.482  -5.365  23.854  0.00  0.00    -0.150 OA
ATOM      4  O   UNL     1      10.505  -5.285  25.369  0.00  0.00    -0.150 OA
ATOM      5  N   UNL     1       8.242  -5.787  26.305  0.00  0.00    -0.182 N 
ATOM      6  H   UNL     1       8.017  -6.772  26.251  0.00  0.00    +0.177 HD
ATOM      7  C   UNL     1       7.553  -4.884  27.110  0.00  0.00    +0.258 C 
ATOM      8  O   UNL     1       6.762  -5.195  27.978  0.00  0.00    -0.269 OA
ATOM      9  C   UNL     1       7.858  -3.491  26.704  0.00  0.00    +0.098 C 
ENDROOT
BRANCH   1  14
ATOM     10  C   UNL     1       9.888  -1.335  22.722  0.00  0.00    +0.117 A 
ATOM     11  C   UNL     1       9.829  -0.060  23.266  0.00  0.00    +0.045 A 
ATOM     12  C   UNL     1       9.415   0.100  24.584  0.00  0.00    +0.004 A 
ATOM     13  C   UNL     1       9.050  -1.016  25.342  0.00  0.00    +0.010 A 
ATOM     14  C   UNL     1       9.095  -2.314  24.800  0.00  0.00    +0.005 A 
ATOM     15  C   UNL     1       9.535  -2.457  23.474  0.00  0.00    +0.055 A 
BRANCH  10  16
ATOM     16  O   UNL     1      10.296  -1.448  21.425  0.00  0.00    -0.507 OA
ATOM     17  H   UNL     1       9.681  -0.955  20.856  0.00  0.00    +0.292 HD
ENDBRANCH  10  16
ENDBRANCH   1  14
TORSDOF 2
ENDMDL
MODEL 4
REMARK VINA RESULT:      -5.8      3.964      5.585
REMARK  Name = 
REMARK  2 active torsions:
REMARK  status: ('A' for Active; 'I' for Inactive)
REMARK    1  A    between atoms: O_1  and  C_2
REMARK    2  A    between atoms: C_4  and  C_8
REMARK                            x       y       z     vdW  Elec       q    Type
REMARK                         _______ _______ _______ _____ _____    ______ ____
ROOT
ATOM      1  C   UNL     1       8.297  -3.042  23.236  0.00  0.00    +0.121 C 
ATOM      2  S   UNL     1       8.684  -4.021  24.605  0.00  0.00    +0.075 S 
ATOM      3  O   UNL     1      10.077  -4.403  24.604  0.00  0.00    -0.150 OA
ATOM      4  O   UNL     1       8.021  -3.538  25.796  0.00  0.00    -0.150 OA
ATOM      5  N   UNL     1       7.819  -5.330  24.064  0.00  0.00    -0.182 N 
ATOM      6  H   UNL     1       7.956  -6.253  24.454  0.00  0.00    +0.177 HD
ATOM      7  C   UNL     1       7.244  -5.098  22.818  0.00  0.00    +0.258 C 
ATOM      8  O   UNL     1       6.659  -5.935  22.160  0.00  0.00    -0.269 OA
ATOM      9  C   UNL     1       7.515  -3.710  22.373  0.00  0.00    +0.098 C 
ENDROOT
BRANCH   1  14
ATOM     10  C   UNL     1      10.101   0.182  24.091  0.00  0.00    +0.117 A 
ATOM     11  C   UNL     1      10.227   0.762  22.837  0.00  0.00    +0.045 A 
ATOM     12  C   UNL     1       9.700   0.111  21.728  0.00  0.00    +0.004 A 
ATOM     13  C   UNL     1       9.062  -1.124  21.881  0.00  0.00    +0.010 A 
ATOM     14  C   UNL     1       8.937  -1.730  23.145  0.00  0.00    +0.005 A 
ATOM     15  C   UNL     1       9.458  -1.046  24.256  0.00  0.00    +0.055 A 
BRANCH  10  16
ATOM     16  O   UNL     1      10.636   0.852  25.152  0.00  0.00    -0.507 OA
ATOM     17  H   UNL     1      11.568   1.052  24.964  0.00  0.00    +0.292 HD
ENDBRANCH  10  16
ENDBRANCH   1  14
TORSDOF 2
ENDMDL
MODEL 5
REMARK VINA RESULT:      -5.8      4.745      6.676
REMARK  Name = 
REMARK  2 active torsions:
REMARK  status: ('A' for Active; 'I' for Inactive)
REMARK    1  A    between atoms: O_1  and  C_2
REMARK    2  A    between atoms: C_4  and  C_8
REMARK                            x       y       z     vdW  Elec       q    Type
REMARK                         _______ _______ _______ _____ _____    ______ ____
ROOT
ATOM      1  C   UNL     1       8.597  -3.380  25.280  0.00  0.00    +0.121 C 
ATOM      2  S   UNL     1       9.097  -5.003  24.970  0.00  0.00    +0.075 S 
ATOM      3  O   UNL     1       8.471  -5.530  23.781  0.00  0.00    -0.150 OA
ATOM      4  O   UNL     1      10.508  -5.174  25.237  0.00  0.00    -0.150 OA
ATOM      5  N   UNL     1       8.278  -5.630  26.271  0.00  0.00    -0.182 N 
ATOM      6  H   UNL     1       8.092  -6.621  26.352  0.00  0.00    +0.177 HD
ATOM      7  C   UNL     1       7.565  -4.654  26.960  0.00  0.00    +0.258 C 
ATOM      8  O   UNL     1       6.798  -4.875  27.875  0.00  0.00    -0.269 OA
ATOM      9  C   UNL     1       7.811  -3.317  26.366  0.00  0.00    +0.098 C 
ENDROOT
BRANCH   1  14
ATOM     10  C   UNL     1      10.117  -0.323  23.629  0.00  0.00    +0.117 A 
ATOM     11  C   UNL     1       9.720  -0.501  22.312  0.00  0.00    +0.045 A 
ATOM     12  C   UNL     1       8.939  -1.602  21.977  0.00  0.00    +0.004 A 
ATOM     13  C   UNL     1       8.573  -2.523  22.963  0.00  0.00    +0.010 A 
ATOM     14  C   UNL     1       8.977  -2.361  24.301  0.00  0.00    +0.005 A 
ATOM     15  C   UNL     1       9.748  -1.232  24.623  0.00  0.00    +0.055 A 
BRANCH  10  16
ATOM     16  O   UNL     1      10.885   0.768  23.914  0.00  0.00    -0.507 OA
ATOM     17  H   UNL     1      10.795   1.416  23.194  0.00  0.00    +0.292 HD
ENDBRANCH  10  16
ENDBRANCH   1  14
TORSDOF 2
ENDMDL
MODEL 6
REMARK VINA RESULT:      -5.7      3.235      5.915
REMARK  Name = 
REMARK  2 active torsions:
REMARK  status: ('A' for Active; 'I' for Inactive)
REMARK    1  A    between atoms: O_1  and  C_2
REMARK    2  A    between atoms: C_4  and  C_8
REMARK                            x       y       z     vdW  Elec       q    Type
REMARK                         _______ _______ _______ _____ _____    ______ ____
ROOT
ATOM      1  C   UNL     1       9.494   0.573  23.732  0.00  0.00    +0.121 C 
ATOM      2  S   UNL     1       8.981   0.862  22.109  0.00  0.00    +0.075 S 
ATOM      3  O   UNL     1       9.584  -0.074  21.190  0.00  0.00    -0.150 OA
ATOM      4  O   UNL     1       7.573   1.191  22.058  0.00  0.00    -0.150 OA
ATOM      5  N   UNL     1       9.817   2.289  21.972  0.00  0.00    -0.182 N 
ATOM      6  H   UNL     1      10.000   2.711  21.071  0.00  0.00    +0.177 HD
ATOM      7  C   UNL     1      10.547   2.580  23.120  0.00  0.00    +0.258 C 
ATOM      8  O   UNL     1      11.328   3.504  23.227  0.00  0.00    -0.269 OA
ATOM      9  C   UNL     1      10.299   1.557  24.165  0.00  0.00    +0.098 C 
ENDROOT
BRANCH   1  14
ATOM     10  C   UNL     1       9.353  -3.083  24.727  0.00  0.00    +0.117 A 
ATOM     11  C   UNL     1       8.320  -3.072  25.653  0.00  0.00    +0.045 A 
ATOM     12  C   UNL     1       7.662  -1.879  25.927  0.00  0.00    +0.004 A 
ATOM     13  C   UNL     1       8.051  -0.702  25.280  0.00  0.00    +0.010 A 
ATOM     14  C   UNL     1       9.104  -0.696  24.345  0.00  0.00    +0.005 A 
ATOM     15  C   UNL     1       9.743  -1.916  24.068  0.00  0.00    +0.055 A 
BRANCH  10  16
ATOM     16  O   UNL     1       9.975  -4.274  24.490  0.00  0.00    -0.507 OA
ATOM     17  H   UNL     1       9.307  -4.981  24.466  0.00  0.00    +0.292 HD
ENDBRANCH  10  16
ENDBRANCH   1  14
TORSDOF 2
ENDMDL
MODEL 7
REMARK VINA RESULT:      -5.7      4.615      8.069
REMARK  Name = 
REMARK  2 active torsions:
REMARK  status: ('A' for Active; 'I' for Inactive)
REMARK    1  A    between atoms: O_1  and  C_2
REMARK    2  A    between atoms: C_4  and  C_8
REMARK                            x       y       z     vdW  Elec       q    Type
REMARK                         _______ _______ _______ _____ _____    ______ ____
ROOT
ATOM      1  C   UNL     1       8.243  -2.499  22.788  0.00  0.00    +0.121 C 
ATOM      2  S   UNL     1       9.232  -2.496  24.202  0.00  0.00    +0.075 S 
ATOM      3  O   UNL     1       8.492  -2.065  25.365  0.00  0.00    -0.150 OA
ATOM      4  O   UNL     1      10.104  -3.650  24.231  0.00  0.00    -0.150 OA
ATOM      5  N   UNL     1      10.151  -1.207  23.703  0.00  0.00    -0.182 N 
ATOM      6  H   UNL     1      10.732  -0.689  24.348  0.00  0.00    +0.177 HD
ATOM      7  C   UNL     1       9.722  -0.703  22.478  0.00  0.00    +0.258 C 
ATOM      8  O   UNL     1      10.154   0.305  21.956  0.00  0.00    -0.269 OA
ATOM      9  C   UNL     1       8.609  -1.523  21.942  0.00  0.00    +0.098 C 
ENDROOT
BRANCH   1  14
ATOM     10  C   UNL     1       6.139  -5.629  22.389  0.00  0.00    +0.117 A 
ATOM     11  C   UNL     1       4.898  -5.177  22.812  0.00  0.00    +0.045 A 
ATOM     12  C   UNL     1       4.750  -3.849  23.198  0.00  0.00    +0.004 A 
ATOM     13  C   UNL     1       5.851  -2.988  23.171  0.00  0.00    +0.010 A 
ATOM     14  C   UNL     1       7.119  -3.436  22.755  0.00  0.00    +0.005 A 
ATOM     15  C   UNL     1       7.242  -4.774  22.349  0.00  0.00    +0.055 A 
BRANCH  10  16
ATOM     16  O   UNL     1       6.241  -6.939  22.022  0.00  0.00    -0.507 OA
ATOM     17  H   UNL     1       6.626  -6.990  21.131  0.00  0.00    +0.292 HD
ENDBRANCH  10  16
ENDBRANCH   1  14
TORSDOF 2
ENDMDL
MODEL 8
REMARK VINA RESULT:      -5.7      4.318      7.095
REMARK  Name = 
REMARK  2 active torsions:
REMARK  status: ('A' for Active; 'I' for Inactive)
REMARK    1  A    between atoms: O_1  and  C_2
REMARK    2  A    between atoms: C_4  and  C_8
REMARK                            x       y       z     vdW  Elec       q    Type
REMARK                         _______ _______ _______ _____ _____    ______ ____
ROOT
ATOM      1  C   UNL     1       9.121  -1.205  24.507  0.00  0.00    +0.121 C 
ATOM      2  S   UNL     1       8.492  -0.872  22.934  0.00  0.00    +0.075 S 
ATOM      3  O   UNL     1       9.059  -1.754  21.941  0.00  0.00    -0.150 OA
ATOM      4  O   UNL     1       7.075  -0.586  22.988  0.00  0.00    -0.150 OA
ATOM      5  N   UNL     1       9.276   0.584  22.798  0.00  0.00    -0.182 N 
ATOM      6  H   UNL     1       9.386   1.045  21.904  0.00  0.00    +0.177 HD
ATOM      7  C   UNL     1      10.072   0.855  23.906  0.00  0.00    +0.258 C 
ATOM      8  O   UNL     1      10.832   1.799  23.998  0.00  0.00    -0.269 OA
ATOM      9  C   UNL     1       9.924  -0.213  24.924  0.00  0.00    +0.098 C 
ENDROOT
BRANCH   1  14
ATOM     10  C   UNL     1       9.196  -4.885  25.418  0.00  0.00    +0.117 A 
ATOM     11  C   UNL     1       8.174  -4.954  26.354  0.00  0.00    +0.045 A 
ATOM     12  C   UNL     1       7.452  -3.806  26.661  0.00  0.00    +0.004 A 
ATOM     13  C   UNL     1       7.768  -2.595  26.037  0.00  0.00    +0.010 A 
ATOM     14  C   UNL     1       8.809  -2.508  25.094  0.00  0.00    +0.005 A 
ATOM     15  C   UNL     1       9.513  -3.683  24.783  0.00  0.00    +0.055 A 
BRANCH  10  16
ATOM     16  O   UNL     1       9.882  -6.034  25.149  0.00  0.00    -0.507 OA
ATOM     17  H   UNL     1       9.943  -6.564  25.961  0.00  0.00    +0.292 HD
ENDBRANCH  10  16
ENDBRANCH   1  14
TORSDOF 2
ENDMDL
MODEL 9
REMARK VINA RESULT:      -5.6      2.356      5.272
REMARK  Name = 
REMARK  2 active torsions:
REMARK  status: ('A' for Active; 'I' for Inactive)
REMARK    1  A    between atoms: O_1  and  C_2
REMARK    2  A    between atoms: C_4  and  C_8
REMARK                            x       y       z     vdW  Elec       q    Type
REMARK                         _______ _______ _______ _____ _____    ______ ____
ROOT
ATOM      1  C   UNL     1      10.333   2.977  23.440  0.00  0.00    +0.121 C 
ATOM      2  S   UNL     1       8.978   3.925  23.933  0.00  0.00    +0.075 S 
ATOM      3  O   UNL     1       8.050   4.127  22.846  0.00  0.00    -0.150 OA
ATOM      4  O   UNL     1       8.538   3.555  25.260  0.00  0.00    -0.150 OA
ATOM      5  N   UNL     1       9.860   5.323  24.088  0.00  0.00    -0.182 N 
ATOM      6  H   UNL     1       9.413   6.229  24.138  0.00  0.00    +0.177 HD
ATOM      7  C   UNL     1      11.194   5.141  23.733  0.00  0.00    +0.258 C 
ATOM      8  O   UNL     1      12.014   6.033  23.651  0.00  0.00    -0.269 OA
ATOM      9  C   UNL     1      11.450   3.721  23.392  0.00  0.00    +0.098 C 
ENDROOT
BRANCH   1  14
ATOM     10  C   UNL     1       9.882  -0.788  23.494  0.00  0.00    +0.117 A 
ATOM     11  C   UNL     1       9.476  -1.031  22.190  0.00  0.00    +0.045 A 
ATOM     12  C   UNL     1       9.377   0.030  21.297  0.00  0.00    +0.004 A 
ATOM     13  C   UNL     1       9.674   1.329  21.721  0.00  0.00    +0.010 A 
ATOM     14  C   UNL     1      10.077   1.592  23.044  0.00  0.00    +0.005 A 
ATOM     15  C   UNL     1      10.190   0.504  23.925  0.00  0.00    +0.055 A 
BRANCH  10  16
ATOM     16  O   UNL     1       9.962  -1.857  24.339  0.00  0.00    -0.507 OA
ATOM     17  H   UNL     1      10.679  -1.703  24.977  0.00  0.00    +0.292 HD
ENDBRANCH  10  16
ENDBRANCH   1  14
TORSDOF 2
ENDMDL
