MODEL 1
REMARK VINA RESULT:      -5.5      0.000      0.000
REMARK  Name = 
REMARK  8 active torsions:
REMARK  status: ('A' for Active; 'I' for Inactive)
REMARK    1  A    between atoms: O_1  and  C_2
REMARK    2  A    between atoms: C_2  and  C_3
REMARK    3  A    between atoms: C_6  and  O_8
REMARK    4  A    between atoms: C_9  and  O_11
REMARK    5  A    between atoms: C_12  and  O_14
REMARK    6  A    between atoms: O_14  and  S_15
REMARK    7  A    between atoms: S_15  and  O_16
REMARK    8  A    between atoms: C_19  and  O_21
REMARK                            x       y       z     vdW  Elec       q    Type
REMARK                         _______ _______ _______ _____ _____    ______ ____
ROOT
ATOM      1  C   UNL     1       7.108  -4.541  23.376  0.00  0.00    +0.178 C 
ATOM      2  C   UNL     1       6.179  -5.285  24.350  0.00  0.00    +0.179 C 
ATOM      3  C   UNL     1       6.703  -5.324  25.789  0.00  0.00    +0.216 C 
ATOM      4  C   UNL     1       8.223  -5.502  25.878  0.00  0.00    +0.204 C 
ATOM      5  C   UNL     1       8.971  -4.698  24.793  0.00  0.00    +0.279 C 
ATOM      6  O   UNL     1       8.456  -4.981  23.499  0.00  0.00    -0.341 OA
ENDROOT
BRANCH   2   7
ATOM      7  O   UNL     1       4.910  -4.620  24.387  0.00  0.00    -0.386 OA
ATOM      8  H   UNL     1       5.084  -3.671  24.575  0.00  0.00    +0.210 HD
ENDBRANCH   2   7
BRANCH   4   9
ATOM      9  O   UNL     1       8.658  -5.117  27.202  0.00  0.00    -0.384 OA
ATOM     10  H   UNL     1       8.977  -4.199  27.171  0.00  0.00    +0.210 HD
ENDBRANCH   4   9
BRANCH   5  11
ATOM     11  O   UNL     1      10.345  -5.055  24.808  0.00  0.00    -0.365 OA
ATOM     12  H   UNL     1      10.382  -6.009  24.638  0.00  0.00    +0.213 HD
ENDBRANCH   5  11
BRANCH   1  13
ATOM     13  C   UNL     1       6.618  -4.761  21.932  0.00  0.00    +0.190 C 
BRANCH  13  14
ATOM     14  O   UNL     1       5.517  -3.892  21.658  0.00  0.00    -0.392 OA
ATOM     15  H   UNL     1       5.822  -2.979  21.810  0.00  0.00    +0.210 HD
ENDBRANCH  13  14
ENDBRANCH   1  13
BRANCH   3  16
ATOM     16  O   UNL     1       6.110  -6.410  26.521  0.00  0.00    -0.207 OA
BRANCH  16  17
ATOM     17  S   UNL     1       5.384  -6.137  27.948  0.00  0.00    +0.208 S 
ATOM     18  O   UNL     1       4.002  -5.780  27.725  0.00  0.00    -0.118 OA
ATOM     19  O   UNL     1       6.284  -5.365  28.775  0.00  0.00    -0.118 OA
BRANCH  17  20
ATOM     20  O   UNL     1       5.382  -7.612  28.594  0.00  0.00    -0.231 OA
ATOM     21  H   UNL     1       4.632  -7.657  29.219  0.00  0.00    +0.247 HD
ENDBRANCH  17  20
ENDBRANCH  16  17
ENDBRANCH   3  16
TORSDOF 8
ENDMDL
MODEL 2
REMARK VINA RESULT:      -5.5      2.506      3.905
REMARK  Name = 
REMARK  8 active torsions:
REMARK  status: ('A' for Active; 'I' for Inactive)
REMARK    1  A    between atoms: O_1  and  C_2
REMARK    2  A    between atoms: C_2  and  C_3
REMARK    3  A    between atoms: C_6  and  O_8
REMARK    4  A    between atoms: C_9  and  O_11
REMARK    5  A    between atoms: C_12  and  O_14
REMARK    6  A    between atoms: O_14  and  S_15
REMARK    7  A    between atoms: S_15  and  O_16
REMARK    8  A    between atoms: C_19  and  O_21
REMARK                            x       y       z     vdW  Elec       q    Type
REMARK                         _______ _______ _______ _____ _____    ______ ____
ROOT
ATOM      1  C   UNL     1       9.354  -2.608  23.781  0.00  0.00    +0.178 C 
ATOM      2  C   UNL     1       8.184  -3.212  22.988  0.00  0.00    +0.179 C 
ATOM      3  C   UNL     1       7.440  -4.320  23.740  0.00  0.00    +0.216 C 
ATOM      4  C   UNL     1       8.364  -5.221  24.567  0.00  0.00    +0.204 C 
ATOM      5  C   UNL     1       9.493  -4.425  25.258  0.00  0.00    +0.279 C 
ATOM      6  O   UNL     1      10.197  -3.619  24.324  0.00  0.00    -0.341 OA
ENDROOT
BRANCH   2   7
ATOM      7  O   UNL     1       7.228  -2.184  22.708  0.00  0.00    -0.386 OA
ATOM      8  H   UNL     1       6.334  -2.585  22.797  0.00  0.00    +0.210 HD
ENDBRANCH   2   7
BRANCH   4   9
ATOM      9  O   UNL     1       7.567  -5.939  25.535  0.00  0.00    -0.384 OA
ATOM     10  H   UNL     1       7.384  -5.350  26.287  0.00  0.00    +0.210 HD
ENDBRANCH   4   9
BRANCH   5  11
ATOM     11  O   UNL     1      10.416  -5.332  25.842  0.00  0.00    -0.365 OA
ATOM     12  H   UNL     1      10.350  -5.209  26.802  0.00  0.00    +0.213 HD
ENDBRANCH   5  11
BRANCH   1  13
ATOM     13  C   UNL     1      10.175  -1.685  22.861  0.00  0.00    +0.190 C 
BRANCH  13  14
ATOM     14  O   UNL     1       9.722  -1.820  21.513  0.00  0.00    -0.392 OA
ATOM     15  H   UNL     1       9.659  -2.774  21.321  0.00  0.00    +0.210 HD
ENDBRANCH  13  14
ENDBRANCH   1  13
BRANCH   3  16
ATOM     16  O   UNL     1       6.731  -5.173  22.826  0.00  0.00    -0.207 OA
BRANCH  16  17
ATOM     17  S   UNL     1       5.115  -5.305  22.915  0.00  0.00    +0.208 S 
ATOM     18  O   UNL     1       4.510  -4.023  22.638  0.00  0.00    -0.118 OA
ATOM     19  O   UNL     1       4.787  -6.108  24.071  0.00  0.00    -0.118 OA
BRANCH  17  20
ATOM     20  O   UNL     1       4.800  -6.247  21.647  0.00  0.00    -0.231 OA
ATOM     21  H   UNL     1       5.614  -6.750  21.447  0.00  0.00    +0.247 HD
ENDBRANCH  17  20
ENDBRANCH  16  17
ENDBRANCH   3  16
TORSDOF 8
ENDMDL
MODEL 3
REMARK VINA RESULT:      -5.3      2.582      5.609
REMARK  Name = 
REMARK  8 active torsions:
REMARK  status: ('A' for Active; 'I' for Inactive)
REMARK    1  A    between atoms: O_1  and  C_2
REMARK    2  A    between atoms: C_2  and  C_3
REMARK    3  A    between atoms: C_6  and  O_8
REMARK    4  A    between atoms: C_9  and  O_11
REMARK    5  A    between atoms: C_12  and  O_14
REMARK    6  A    between atoms: O_14  and  S_15
REMARK    7  A    between atoms: S_15  and  O_16
REMARK    8  A    between atoms: C_19  and  O_21
REMARK                            x       y       z     vdW  Elec       q    Type
REMARK                         _______ _______ _______ _____ _____    ______ ____
ROOT
ATOM      1  C   UNL     1       5.423  -5.819  26.803  0.00  0.00    +0.178 C 
ATOM      2  C   UNL     1       6.244  -5.399  25.574  0.00  0.00    +0.179 C 
ATOM      3  C   UNL     1       5.490  -5.553  24.249  0.00  0.00    +0.216 C 
ATOM      4  C   UNL     1       4.599  -6.799  24.198  0.00  0.00    +0.204 C 
ATOM      5  C   UNL     1       3.887  -7.065  25.542  0.00  0.00    +0.279 C 
ATOM      6  O   UNL     1       4.816  -7.093  26.617  0.00  0.00    -0.341 OA
ENDROOT
BRANCH   2   7
ATOM      7  O   UNL     1       6.595  -4.015  25.695  0.00  0.00    -0.386 OA
ATOM      8  H   UNL     1       7.336  -3.846  25.072  0.00  0.00    +0.210 HD
ENDBRANCH   2   7
BRANCH   4   9
ATOM      9  O   UNL     1       3.643  -6.642  23.126  0.00  0.00    -0.384 OA
ATOM     10  H   UNL     1       3.704  -5.733  22.785  0.00  0.00    +0.210 HD
ENDBRANCH   4   9
BRANCH   5  11
ATOM     11  O   UNL     1       3.239  -8.327  25.487  0.00  0.00    -0.365 OA
ATOM     12  H   UNL     1       3.337  -8.723  26.367  0.00  0.00    +0.213 HD
ENDBRANCH   5  11
BRANCH   1  13
ATOM     13  C   UNL     1       6.336  -5.853  28.043  0.00  0.00    +0.190 C 
BRANCH  13  14
ATOM     14  O   UNL     1       7.702  -5.937  27.634  0.00  0.00    -0.392 OA
ATOM     15  H   UNL     1       7.791  -5.425  26.809  0.00  0.00    +0.210 HD
ENDBRANCH  13  14
ENDBRANCH   1  13
BRANCH   3  16
ATOM     16  O   UNL     1       6.407  -5.647  23.145  0.00  0.00    -0.207 OA
BRANCH  16  17
ATOM     17  S   UNL     1       6.270  -4.639  21.879  0.00  0.00    +0.208 S 
ATOM     18  O   UNL     1       6.050  -5.405  20.675  0.00  0.00    -0.118 OA
ATOM     19  O   UNL     1       7.284  -3.616  22.000  0.00  0.00    -0.118 OA
BRANCH  17  20
ATOM     20  O   UNL     1       4.882  -3.894  22.212  0.00  0.00    -0.231 OA
ATOM     21  H   UNL     1       4.672  -4.070  23.150  0.00  0.00    +0.247 HD
ENDBRANCH  17  20
ENDBRANCH  16  17
ENDBRANCH   3  16
TORSDOF 8
ENDMDL
MODEL 4
REMARK VINA RESULT:      -5.2      7.289      8.877
REMARK  Name = 
REMARK  8 active torsions:
REMARK  status: ('A' for Active; 'I' for Inactive)
REMARK    1  A    between atoms: O_1  and  C_2
REMARK    2  A    between atoms: C_2  and  C_3
REMARK    3  A    between atoms: C_6  and  O_8
REMARK    4  A    between atoms: C_9  and  O_11
REMARK    5  A    between atoms: C_12  and  O_14
REMARK    6  A    between atoms: O_14  and  S_15
REMARK    7  A    between atoms: S_15  and  O_16
REMARK    8  A    between atoms: C_19  and  O_21
REMARK                            x       y       z     vdW  Elec       q    Type
REMARK                         _______ _______ _______ _____ _____    ______ ____
ROOT
ATOM      1  C   UNL     1       8.632  -0.323  24.638  0.00  0.00    +0.178 C 
ATOM      2  C   UNL     1       9.111   1.106  24.940  0.00  0.00    +0.179 C 
ATOM      3  C   UNL     1       9.263   1.980  23.691  0.00  0.00    +0.216 C 
ATOM      4  C   UNL     1       9.812   1.218  22.479  0.00  0.00    +0.204 C 
ATOM      5  C   UNL     1       9.231  -0.208  22.373  0.00  0.00    +0.279 C 
ATOM      6  O   UNL     1       9.392  -0.920  23.592  0.00  0.00    -0.341 OA
ENDROOT
BRANCH   2   7
ATOM      7  O   UNL     1       8.151   1.752  25.786  0.00  0.00    -0.386 OA
ATOM      8  H   UNL     1       7.969   1.144  26.537  0.00  0.00    +0.210 HD
ENDBRANCH   2   7
BRANCH   4   9
ATOM      9  O   UNL     1       9.533   1.983  21.286  0.00  0.00    -0.384 OA
ATOM     10  H   UNL     1       9.037   1.422  20.665  0.00  0.00    +0.210 HD
ENDBRANCH   4   9
BRANCH   5  11
ATOM     11  O   UNL     1       9.918  -0.920  21.354  0.00  0.00    -0.365 OA
ATOM     12  H   UNL     1      10.419  -1.621  21.799  0.00  0.00    +0.213 HD
ENDBRANCH   5  11
BRANCH   1  13
ATOM     13  C   UNL     1       8.739  -1.180  25.913  0.00  0.00    +0.190 C 
BRANCH  13  14
ATOM     14  O   UNL     1       9.289  -0.399  26.975  0.00  0.00    -0.392 OA
ATOM     15  H   UNL     1       9.868   0.274  26.573  0.00  0.00    +0.210 HD
ENDBRANCH  13  14
ENDBRANCH   1  13
BRANCH   3  16
ATOM     16  O   UNL     1      10.160   3.076  23.939  0.00  0.00    -0.207 OA
BRANCH  16  17
ATOM     17  S   UNL     1       9.598   4.600  23.981  0.00  0.00    +0.208 S 
ATOM     18  O   UNL     1      10.670   5.517  23.669  0.00  0.00    -0.118 OA
ATOM     19  O   UNL     1       8.743   4.737  25.138  0.00  0.00    -0.118 OA
BRANCH  17  20
ATOM     20  O   UNL     1       8.600   4.609  22.718  0.00  0.00    -0.231 OA
ATOM     21  H   UNL     1       8.672   3.737  22.282  0.00  0.00    +0.247 HD
ENDBRANCH  17  20
ENDBRANCH  16  17
ENDBRANCH   3  16
TORSDOF 8
ENDMDL
MODEL 5
REMARK VINA RESULT:      -5.2      3.915      5.398
REMARK  Name = 
REMARK  8 active torsions:
REMARK  status: ('A' for Active; 'I' for Inactive)
REMARK    1  A    between atoms: O_1  and  C_2
REMARK    2  A    between atoms: C_2  and  C_3
REMARK    3  A    between atoms: C_6  and  O_8
REMARK    4  A    between atoms: C_9  and  O_11
REMARK    5  A    between atoms: C_12  and  O_14
REMARK    6  A    between atoms: O_14  and  S_15
REMARK    7  A    between atoms: S_15  and  O_16
REMARK    8  A    between atoms: C_19  and  O_21
REMARK                            x       y       z     vdW  Elec       q    Type
REMARK                         _______ _______ _______ _____ _____    ______ ____
ROOT
ATOM      1  C   UNL     1       8.951  -0.201  22.547  0.00  0.00    +0.178 C 
ATOM      2  C   UNL     1       9.702  -1.346  23.245  0.00  0.00    +0.179 C 
ATOM      3  C   UNL     1       8.790  -2.485  23.710  0.00  0.00    +0.216 C 
ATOM      4  C   UNL     1       7.438  -2.002  24.248  0.00  0.00    +0.204 C 
ATOM      5  C   UNL     1       6.869  -0.826  23.427  0.00  0.00    +0.279 C 
ATOM      6  O   UNL     1       7.821   0.222  23.302  0.00  0.00    -0.341 OA
ENDROOT
BRANCH   2   7
ATOM      7  O   UNL     1      10.645  -1.915  22.329  0.00  0.00    -0.386 OA
ATOM      8  H   UNL     1      11.228  -2.515  22.846  0.00  0.00    +0.210 HD
ENDBRANCH   2   7
BRANCH   4   9
ATOM      9  O   UNL     1       6.520  -3.117  24.265  0.00  0.00    -0.384 OA
ATOM     10  H   UNL     1       6.952  -3.870  24.704  0.00  0.00    +0.210 HD
ENDBRANCH   4   9
BRANCH   5  11
ATOM     11  O   UNL     1       5.724  -0.304  24.087  0.00  0.00    -0.365 OA
ATOM     12  H   UNL     1       4.994  -0.355  23.450  0.00  0.00    +0.213 HD
ENDBRANCH   5  11
BRANCH   1  13
ATOM     13  C   UNL     1       9.909   0.987  22.335  0.00  0.00    +0.190 C 
BRANCH  13  14
ATOM     14  O   UNL     1       9.442   1.796  21.254  0.00  0.00    -0.392 OA
ATOM     15  H   UNL     1      10.001   1.599  20.480  0.00  0.00    +0.210 HD
ENDBRANCH  13  14
ENDBRANCH   1  13
BRANCH   3  16
ATOM     16  O   UNL     1       9.412  -3.245  24.759  0.00  0.00    -0.207 OA
BRANCH  16  17
ATOM     17  S   UNL     1       8.993  -4.794  25.009  0.00  0.00    +0.208 S 
ATOM     18  O   UNL     1       8.564  -5.384  23.762  0.00  0.00    -0.118 OA
ATOM     19  O   UNL     1       8.224  -4.866  26.231  0.00  0.00    -0.118 OA
BRANCH  17  20
ATOM     20  O   UNL     1      10.415  -5.457  25.369  0.00  0.00    -0.231 OA
ATOM     21  H   UNL     1      10.681  -5.122  26.247  0.00  0.00    +0.247 HD
ENDBRANCH  17  20
ENDBRANCH  16  17
ENDBRANCH   3  16
TORSDOF 8
ENDMDL
MODEL 6
REMARK VINA RESULT:      -5.2      1.970      3.613
REMARK  Name = 
REMARK  8 active torsions:
REMARK  status: ('A' for Active; 'I' for Inactive)
REMARK    1  A    between atoms: O_1  and  C_2
REMARK    2  A    between atoms: C_2  and  C_3
REMARK    3  A    between atoms: C_6  and  O_8
REMARK    4  A    between atoms: C_9  and  O_11
REMARK    5  A    between atoms: C_12  and  O_14
REMARK    6  A    between atoms: O_14  and  S_15
REMARK    7  A    between atoms: S_15  and  O_16
REMARK    8  A    between atoms: C_19  and  O_21
REMARK                            x       y       z     vdW  Elec       q    Type
REMARK                         _______ _______ _______ _____ _____    ______ ____
ROOT
ATOM      1  C   UNL     1       8.688  -2.976  22.932  0.00  0.00    +0.178 C 
ATOM      2  C   UNL     1       8.376  -3.278  24.407  0.00  0.00    +0.179 C 
ATOM      3  C   UNL     1       7.232  -4.278  24.600  0.00  0.00    +0.216 C 
ATOM      4  C   UNL     1       6.095  -4.106  23.586  0.00  0.00    +0.204 C 
ATOM      5  C   UNL     1       6.618  -3.776  22.172  0.00  0.00    +0.279 C 
ATOM      6  O   UNL     1       7.507  -2.668  22.199  0.00  0.00    -0.341 OA
ENDROOT
BRANCH   2   7
ATOM      7  O   UNL     1       9.537  -3.848  25.024  0.00  0.00    -0.386 OA
ATOM      8  H   UNL     1      10.051  -4.298  24.317  0.00  0.00    +0.210 HD
ENDBRANCH   2   7
BRANCH   4   9
ATOM      9  O   UNL     1       5.296  -5.309  23.577  0.00  0.00    -0.384 OA
ATOM     10  H   UNL     1       4.897  -5.426  24.457  0.00  0.00    +0.210 HD
ENDBRANCH   4   9
BRANCH   5  11
ATOM     11  O   UNL     1       5.522  -3.441  21.333  0.00  0.00    -0.365 OA
ATOM     12  H   UNL     1       4.983  -4.243  21.254  0.00  0.00    +0.213 HD
ENDBRANCH   5  11
BRANCH   1  13
ATOM     13  C   UNL     1       9.676  -1.797  22.847  0.00  0.00    +0.190 C 
BRANCH  13  14
ATOM     14  O   UNL     1      10.048  -1.577  21.485  0.00  0.00    -0.392 OA
ATOM     15  H   UNL     1      10.452  -2.401  21.156  0.00  0.00    +0.210 HD
ENDBRANCH  13  14
ENDBRANCH   1  13
BRANCH   3  16
ATOM     16  O   UNL     1       6.651  -4.145  25.909  0.00  0.00    -0.207 OA
BRANCH  16  17
ATOM     17  S   UNL     1       6.666  -5.398  26.942  0.00  0.00    +0.208 S 
ATOM     18  O   UNL     1       5.889  -6.485  26.393  0.00  0.00    -0.118 OA
ATOM     19  O   UNL     1       6.484  -4.885  28.281  0.00  0.00    -0.118 OA
BRANCH  17  20
ATOM     20  O   UNL     1       8.209  -5.852  26.873  0.00  0.00    -0.231 OA
ATOM     21  H   UNL     1       8.747  -5.117  27.228  0.00  0.00    +0.247 HD
ENDBRANCH  17  20
ENDBRANCH  16  17
ENDBRANCH   3  16
TORSDOF 8
ENDMDL
MODEL 7
REMARK VINA RESULT:      -5.2      2.026      4.132
REMARK  Name = 
REMARK  8 active torsions:
REMARK  status: ('A' for Active; 'I' for Inactive)
REMARK    1  A    between atoms: O_1  and  C_2
REMARK    2  A    between atoms: C_2  and  C_3
REMARK    3  A    between atoms: C_6  and  O_8
REMARK    4  A    between atoms: C_9  and  O_11
REMARK    5  A    between atoms: C_12  and  O_14
REMARK    6  A    between atoms: O_14  and  S_15
REMARK    7  A    between atoms: S_15  and  O_16
REMARK    8  A    between atoms: C_19  and  O_21
REMARK                            x       y       z     vdW  Elec       q    Type
REMARK                         _______ _______ _______ _____ _____    ______ ____
ROOT
ATOM      1  C   UNL     1       4.368  -5.356  23.701  0.00  0.00    +0.178 C 
ATOM      2  C   UNL     1       5.632  -5.672  24.517  0.00  0.00    +0.179 C 
ATOM      3  C   UNL     1       6.767  -4.665  24.308  0.00  0.00    +0.216 C 
ATOM      4  C   UNL     1       6.881  -4.169  22.862  0.00  0.00    +0.204 C 
ATOM      5  C   UNL     1       5.501  -3.942  22.210  0.00  0.00    +0.279 C 
ATOM      6  O   UNL     1       4.678  -5.095  22.336  0.00  0.00    -0.341 OA
ENDROOT
BRANCH   2   7
ATOM      7  O   UNL     1       5.306  -5.649  25.912  0.00  0.00    -0.386 OA
ATOM      8  H   UNL     1       5.947  -5.045  26.351  0.00  0.00    +0.210 HD
ENDBRANCH   2   7
BRANCH   4   9
ATOM      9  O   UNL     1       7.668  -2.957  22.848  0.00  0.00    -0.384 OA
ATOM     10  H   UNL     1       8.591  -3.182  23.056  0.00  0.00    +0.210 HD
ENDBRANCH   4   9
BRANCH   5  11
ATOM     11  O   UNL     1       5.673  -3.674  20.826  0.00  0.00    -0.365 OA
ATOM     12  H   UNL     1       5.304  -4.435  20.352  0.00  0.00    +0.213 HD
ENDBRANCH   5  11
BRANCH   1  13
ATOM     13  C   UNL     1       3.388  -6.540  23.794  0.00  0.00    +0.190 C 
BRANCH  13  14
ATOM     14  O   UNL     1       4.100  -7.731  24.132  0.00  0.00    -0.392 OA
ATOM     15  H   UNL     1       4.843  -7.473  24.708  0.00  0.00    +0.210 HD
ENDBRANCH  13  14
ENDBRANCH   1  13
BRANCH   3  16
ATOM     16  O   UNL     1       8.037  -5.243  24.655  0.00  0.00    -0.207 OA
BRANCH  16  17
ATOM     17  S   UNL     1       8.901  -4.638  25.890  0.00  0.00    +0.208 S 
ATOM     18  O   UNL     1       8.278  -5.007  27.140  0.00  0.00    -0.118 OA
ATOM     19  O   UNL     1       9.284  -3.285  25.558  0.00  0.00    -0.118 OA
BRANCH  17  20
ATOM     20  O   UNL     1      10.259  -5.497  25.781  0.00  0.00    -0.231 OA
ATOM     21  H   UNL     1      10.885  -5.140  26.440  0.00  0.00    +0.247 HD
ENDBRANCH  17  20
ENDBRANCH  16  17
ENDBRANCH   3  16
TORSDOF 8
ENDMDL
MODEL 8
REMARK VINA RESULT:      -5.1      2.091      4.784
REMARK  Name = 
REMARK  8 active torsions:
REMARK  status: ('A' for Active; 'I' for Inactive)
REMARK    1  A    between atoms: O_1  and  C_2
REMARK    2  A    between atoms: C_2  and  C_3
REMARK    3  A    between atoms: C_6  and  O_8
REMARK    4  A    between atoms: C_9  and  O_11
REMARK    5  A    between atoms: C_12  and  O_14
REMARK    6  A    between atoms: O_14  and  S_15
REMARK    7  A    between atoms: S_15  and  O_16
REMARK    8  A    between atoms: C_19  and  O_21
REMARK                            x       y       z     vdW  Elec       q    Type
REMARK                         _______ _______ _______ _____ _____    ______ ____
ROOT
ATOM      1  C   UNL     1       6.289  -6.173  26.971  0.00  0.00    +0.178 C 
ATOM      2  C   UNL     1       5.662  -5.651  25.668  0.00  0.00    +0.179 C 
ATOM      3  C   UNL     1       6.692  -5.306  24.587  0.00  0.00    +0.216 C 
ATOM      4  C   UNL     1       7.968  -4.666  25.144  0.00  0.00    +0.204 C 
ATOM      5  C   UNL     1       8.413  -5.312  26.474  0.00  0.00    +0.279 C 
ATOM      6  O   UNL     1       7.349  -5.333  27.415  0.00  0.00    -0.341 OA
ENDROOT
BRANCH   2   7
ATOM      7  O   UNL     1       4.807  -6.663  25.121  0.00  0.00    -0.386 OA
ATOM      8  H   UNL     1       3.935  -6.243  24.947  0.00  0.00    +0.210 HD
ENDBRANCH   2   7
BRANCH   4   9
ATOM      9  O   UNL     1       9.009  -4.762  24.146  0.00  0.00    -0.384 OA
ATOM     10  H   UNL     1       8.596  -4.918  23.279  0.00  0.00    +0.210 HD
ENDBRANCH   4   9
BRANCH   5  11
ATOM     11  O   UNL     1       9.478  -4.554  27.030  0.00  0.00    -0.365 OA
ATOM     12  H   UNL     1       9.927  -4.126  26.285  0.00  0.00    +0.213 HD
ENDBRANCH   5  11
BRANCH   1  13
ATOM     13  C   UNL     1       5.204  -6.262  28.061  0.00  0.00    +0.190 C 
BRANCH  13  14
ATOM     14  O   UNL     1       5.158  -7.590  28.588  0.00  0.00    -0.392 OA
ATOM     15  H   UNL     1       5.183  -8.205  27.832  0.00  0.00    +0.210 HD
ENDBRANCH  13  14
ENDBRANCH   1  13
BRANCH   3  16
ATOM     16  O   UNL     1       6.142  -4.383  23.631  0.00  0.00    -0.207 OA
BRANCH  16  17
ATOM     17  S   UNL     1       6.039  -4.791  22.063  0.00  0.00    +0.208 S 
ATOM     18  O   UNL     1       7.252  -5.462  21.659  0.00  0.00    -0.118 OA
ATOM     19  O   UNL     1       5.463  -3.680  21.340  0.00  0.00    -0.118 OA
BRANCH  17  20
ATOM     20  O   UNL     1       4.882  -5.911  22.100  0.00  0.00    -0.231 OA
ATOM     21  H   UNL     1       5.313  -6.772  22.270  0.00  0.00    +0.247 HD
ENDBRANCH  17  20
ENDBRANCH  16  17
ENDBRANCH   3  16
TORSDOF 8
ENDMDL
MODEL 9
REMARK VINA RESULT:      -5.1      4.416      5.430
REMARK  Name = 
REMARK  8 active torsions:
REMARK  status: ('A' for Active; 'I' for Inactive)
REMARK    1  A    between atoms: O_1  and  C_2
REMARK    2  A    between atoms: C_2  and  C_3
REMARK    3  A    between atoms: C_6  and  O_8
REMARK    4  A    between atoms: C_9  and  O_11
REMARK    5  A    between atoms: C_12  and  O_14
REMARK    6  A    between atoms: O_14  and  S_15
REMARK    7  A    between atoms: S_15  and  O_16
REMARK    8  A    between atoms: C_19  and  O_21
REMARK                            x       y       z     vdW  Elec       q    Type
REMARK                         _______ _______ _______ _____ _____    ______ ____
ROOT
ATOM      1  C   UNL     1       8.606   0.040  22.642  0.00  0.00    +0.178 C 
ATOM      2  C   UNL     1       9.135  -1.379  22.904  0.00  0.00    +0.179 C 
ATOM      3  C   UNL     1       8.779  -1.921  24.292  0.00  0.00    +0.216 C 
ATOM      4  C   UNL     1       8.836  -0.856  25.394  0.00  0.00    +0.204 C 
ATOM      5  C   UNL     1       8.287   0.507  24.919  0.00  0.00    +0.279 C 
ATOM      6  O   UNL     1       8.918   0.922  23.715  0.00  0.00    -0.341 OA
ENDROOT
BRANCH   2   7
ATOM      7  O   UNL     1       8.561  -2.277  21.947  0.00  0.00    -0.386 OA
ATOM      8  H   UNL     1       8.443  -1.774  21.110  0.00  0.00    +0.210 HD
ENDBRANCH   2   7
BRANCH   4   9
ATOM      9  O   UNL     1       8.105  -1.338  26.543  0.00  0.00    -0.384 OA
ATOM     10  H   UNL     1       8.642  -1.189  27.340  0.00  0.00    +0.210 HD
ENDBRANCH   4   9
BRANCH   5  11
ATOM     11  O   UNL     1       8.545   1.488  25.912  0.00  0.00    -0.365 OA
ATOM     12  H   UNL     1       8.954   1.022  26.658  0.00  0.00    +0.213 HD
ENDBRANCH   5  11
BRANCH   1  13
ATOM     13  C   UNL     1       9.211   0.579  21.332  0.00  0.00    +0.190 C 
BRANCH  13  14
ATOM     14  O   UNL     1       9.735   1.891  21.547  0.00  0.00    -0.392 OA
ATOM     15  H   UNL     1       9.029   2.423  21.960  0.00  0.00    +0.210 HD
ENDBRANCH  13  14
ENDBRANCH   1  13
BRANCH   3  16
ATOM     16  O   UNL     1       9.679  -2.973  24.679  0.00  0.00    -0.207 OA
BRANCH  16  17
ATOM     17  S   UNL     1       9.116  -4.468  24.969  0.00  0.00    +0.208 S 
ATOM     18  O   UNL     1       8.459  -4.974  23.786  0.00  0.00    -0.118 OA
ATOM     19  O   UNL     1       8.513  -4.479  26.283  0.00  0.00    -0.118 OA
BRANCH  17  20
ATOM     20  O   UNL     1      10.485  -5.300  25.129  0.00  0.00    -0.231 OA
ATOM     21  H   UNL     1      11.223  -4.663  25.074  0.00  0.00    +0.247 HD
ENDBRANCH  17  20
ENDBRANCH  16  17
ENDBRANCH   3  16
TORSDOF 8
ENDMDL
