MODEL 1
REMARK VINA RESULT:      -3.9      0.000      0.000
REMARK  Name = 
REMARK  7 active torsions:
REMARK  status: ('A' for Active; 'I' for Inactive)
REMARK    1  A    between atoms: O_1  and  N_2
REMARK    2  A    between atoms: N_2  and  C_3
REMARK    3  A    between atoms: C_3  and  C_4
REMARK    4  A    between atoms: C_4  and  C_5
REMARK    5  A    between atoms: C_5  and  P_6
REMARK    6  A    between atoms: P_6  and  O_7
REMARK    7  A    between atoms: P_6  and  O_8
REMARK                            x       y       z     vdW  Elec       q    Type
REMARK                         _______ _______ _______ _____ _____    ______ ____
ROOT
ATOM      1  C   UNL     1       9.821   2.256  24.080  0.00  0.00    +0.033 C 
ENDROOT
BRANCH   1   2
ATOM      2  C   UNL     1       9.033   1.106  23.461  0.00  0.00    +0.140 C 
BRANCH   2   3
ATOM      3  N   UNL     1       9.216   1.068  22.014  0.00  0.00    -0.186 N 
ATOM      4  C   UNL     1       9.452  -0.117  21.347  0.00  0.00    +0.352 C 
ATOM      5  O   UNL     1       9.179  -1.237  21.752  0.00  0.00    -0.277 OA
BRANCH   3   6
ATOM      6  O   UNL     1       9.991   2.147  21.532  0.00  0.00    -0.293 OA
ATOM      7  H   UNL     1       9.617   2.289  20.648  0.00  0.00    +0.242 HD
ENDBRANCH   3   6
ENDBRANCH   2   3
ENDBRANCH   1   2
BRANCH   1   8
ATOM      8  C   UNL     1       8.896   3.346  24.596  0.00  0.00    +0.128 C 
BRANCH   8   9
ATOM      9  P   UNL     1       9.289   4.982  23.875  0.00  0.00    +0.328 P 
ATOM     10  O   UNL     1       9.623   6.366  23.267  0.00  0.00    -0.259 OA
BRANCH   9  11
ATOM     11  O   UNL     1       8.335   4.512  22.626  0.00  0.00    -0.324 OA
ATOM     12  H   UNL     1       8.677   3.707  22.196  0.00  0.00    +0.220 HD
ENDBRANCH   9  11
BRANCH   9  13
ATOM     13  O   UNL     1      10.711   4.349  23.364  0.00  0.00    -0.324 OA
ATOM     14  H   UNL     1      11.358   5.081  23.327  0.00  0.00    +0.220 HD
ENDBRANCH   9  13
ENDBRANCH   8   9
ENDBRANCH   1   8
TORSDOF 7
ENDMDL
MODEL 2
REMARK VINA RESULT:      -3.9      1.867      2.841
REMARK  Name = 
REMARK  7 active torsions:
REMARK  status: ('A' for Active; 'I' for Inactive)
REMARK    1  A    between atoms: O_1  and  N_2
REMARK    2  A    between atoms: N_2  and  C_3
REMARK    3  A    between atoms: C_3  and  C_4
REMARK    4  A    between atoms: C_4  and  C_5
REMARK    5  A    between atoms: C_5  and  P_6
REMARK    6  A    between atoms: P_6  and  O_7
REMARK    7  A    between atoms: P_6  and  O_8
REMARK                            x       y       z     vdW  Elec       q    Type
REMARK                         _______ _______ _______ _____ _____    ______ ____
ROOT
ATOM      1  C   UNL     1      10.711   0.797  24.426  0.00  0.00    +0.033 C 
ENDROOT
BRANCH   1   2
ATOM      2  C   UNL     1       9.523  -0.080  24.043  0.00  0.00    +0.140 C 
BRANCH   2   3
ATOM      3  N   UNL     1       9.968  -1.293  23.364  0.00  0.00    -0.186 N 
ATOM      4  C   UNL     1       9.687  -1.519  22.032  0.00  0.00    +0.352 C 
ATOM      5  O   UNL     1       9.406  -0.668  21.202  0.00  0.00    -0.277 OA
BRANCH   3   6
ATOM      6  O   UNL     1       9.840  -2.448  24.168  0.00  0.00    -0.293 OA
ATOM      7  H   UNL     1       9.002  -2.823  23.856  0.00  0.00    +0.242 HD
ENDBRANCH   3   6
ENDBRANCH   2   3
ENDBRANCH   1   2
BRANCH   1   8
ATOM      8  C   UNL     1      10.581   2.192  23.838  0.00  0.00    +0.128 C 
BRANCH   8   9
ATOM      9  P   UNL     1       9.067   2.375  22.826  0.00  0.00    +0.328 P 
ATOM     10  O   UNL     1       7.786   2.530  21.970  0.00  0.00    -0.259 OA
BRANCH   9  11
ATOM     11  O   UNL     1      10.067   2.188  21.538  0.00  0.00    -0.324 OA
ATOM     12  H   UNL     1      11.003   2.275  21.795  0.00  0.00    +0.220 HD
ENDBRANCH   9  11
BRANCH   9  13
ATOM     13  O   UNL     1       9.203   3.995  23.022  0.00  0.00    -0.324 OA
ATOM     14  H   UNL     1       8.693   4.234  23.821  0.00  0.00    +0.220 HD
ENDBRANCH   9  13
ENDBRANCH   8   9
ENDBRANCH   1   8
TORSDOF 7
ENDMDL
MODEL 3
REMARK VINA RESULT:      -3.9      2.064      2.807
REMARK  Name = 
REMARK  7 active torsions:
REMARK  status: ('A' for Active; 'I' for Inactive)
REMARK    1  A    between atoms: O_1  and  N_2
REMARK    2  A    between atoms: N_2  and  C_3
REMARK    3  A    between atoms: C_3  and  C_4
REMARK    4  A    between atoms: C_4  and  C_5
REMARK    5  A    between atoms: C_5  and  P_6
REMARK    6  A    between atoms: P_6  and  O_7
REMARK    7  A    between atoms: P_6  and  O_8
REMARK                            x       y       z     vdW  Elec       q    Type
REMARK                         _______ _______ _______ _____ _____    ______ ____
ROOT
ATOM      1  C   UNL     1       8.237   0.744  22.222  0.00  0.00    +0.033 C 
ENDROOT
BRANCH   1   2
ATOM      2  C   UNL     1       8.094  -0.721  22.623  0.00  0.00    +0.140 C 
BRANCH   2   3
ATOM      3  N   UNL     1       9.324  -1.458  22.352  0.00  0.00    -0.186 N 
ATOM      4  C   UNL     1       9.987  -2.147  23.348  0.00  0.00    +0.352 C 
ATOM      5  O   UNL     1       9.500  -2.538  24.398  0.00  0.00    -0.277 OA
BRANCH   3   6
ATOM      6  O   UNL     1      10.190  -0.772  21.473  0.00  0.00    -0.293 OA
ATOM      7  H   UNL     1       9.834  -1.016  20.604  0.00  0.00    +0.242 HD
ENDBRANCH   3   6
ENDBRANCH   2   3
ENDBRANCH   1   2
BRANCH   1   8
ATOM      8  C   UNL     1       8.447   1.631  23.438  0.00  0.00    +0.128 C 
BRANCH   8   9
ATOM      9  P   UNL     1      10.004   2.589  23.330  0.00  0.00    +0.328 P 
ATOM     10  O   UNL     1      11.320   3.399  23.240  0.00  0.00    -0.259 OA
BRANCH   9  11
ATOM     11  O   UNL     1       9.965   2.216  21.732  0.00  0.00    -0.324 OA
ATOM     12  H   UNL     1       9.233   2.669  21.276  0.00  0.00    +0.220 HD
ENDBRANCH   9  11
BRANCH   9  13
ATOM     13  O   UNL     1      10.789   1.262  23.883  0.00  0.00    -0.324 OA
ATOM     14  H   UNL     1      11.611   1.570  24.313  0.00  0.00    +0.220 HD
ENDBRANCH   9  13
ENDBRANCH   8   9
ENDBRANCH   1   8
TORSDOF 7
ENDMDL
MODEL 4
REMARK VINA RESULT:      -3.8      3.176      4.367
REMARK  Name = 
REMARK  7 active torsions:
REMARK  status: ('A' for Active; 'I' for Inactive)
REMARK    1  A    between atoms: O_1  and  N_2
REMARK    2  A    between atoms: N_2  and  C_3
REMARK    3  A    between atoms: C_3  and  C_4
REMARK    4  A    between atoms: C_4  and  C_5
REMARK    5  A    between atoms: C_5  and  P_6
REMARK    6  A    between atoms: P_6  and  O_7
REMARK    7  A    between atoms: P_6  and  O_8
REMARK                            x       y       z     vdW  Elec       q    Type
REMARK                         _______ _______ _______ _____ _____    ______ ____
ROOT
ATOM      1  C   UNL     1       9.773  -0.821  24.130  0.00  0.00    +0.033 C 
ENDROOT
BRANCH   1   2
ATOM      2  C   UNL     1       9.910  -2.275  23.690  0.00  0.00    +0.140 C 
BRANCH   2   3
ATOM      3  N   UNL     1       8.601  -2.902  23.546  0.00  0.00    -0.186 N 
ATOM      4  C   UNL     1       8.407  -4.241  23.821  0.00  0.00    +0.352 C 
ATOM      5  O   UNL     1       9.117  -4.939  24.529  0.00  0.00    -0.277 OA
BRANCH   3   6
ATOM      6  O   UNL     1       7.906  -2.460  22.398  0.00  0.00    -0.293 OA
ATOM      7  H   UNL     1       7.738  -1.528  22.607  0.00  0.00    +0.242 HD
ENDBRANCH   3   6
ENDBRANCH   2   3
ENDBRANCH   1   2
BRANCH   1   8
ATOM      8  C   UNL     1      10.383   0.126  23.109  0.00  0.00    +0.128 C 
BRANCH   8   9
ATOM      9  P   UNL     1       9.108   0.958  22.093  0.00  0.00    +0.328 P 
ATOM     10  O   UNL     1       8.030   1.664  21.235  0.00  0.00    -0.259 OA
BRANCH   9  11
ATOM     11  O   UNL     1       9.417  -0.213  20.986  0.00  0.00    -0.324 OA
ATOM     12  H   UNL     1       9.234   0.093  20.080  0.00  0.00    +0.220 HD
ENDBRANCH   9  11
BRANCH   9  13
ATOM     13  O   UNL     1      10.255   2.040  21.648  0.00  0.00    -0.324 OA
ATOM     14  H   UNL     1       9.931   2.927  21.901  0.00  0.00    +0.220 HD
ENDBRANCH   9  13
ENDBRANCH   8   9
ENDBRANCH   1   8
TORSDOF 7
ENDMDL
MODEL 5
REMARK VINA RESULT:      -3.8      7.095      9.124
REMARK  Name = 
REMARK  7 active torsions:
REMARK  status: ('A' for Active; 'I' for Inactive)
REMARK    1  A    between atoms: O_1  and  N_2
REMARK    2  A    between atoms: N_2  and  C_3
REMARK    3  A    between atoms: C_3  and  C_4
REMARK    4  A    between atoms: C_4  and  C_5
REMARK    5  A    between atoms: C_5  and  P_6
REMARK    6  A    between atoms: P_6  and  O_7
REMARK    7  A    between atoms: P_6  and  O_8
REMARK                            x       y       z     vdW  Elec       q    Type
REMARK                         _______ _______ _______ _____ _____    ______ ____
ROOT
ATOM      1  C   UNL     1       6.668  -4.338  25.028  0.00  0.00    +0.033 C 
ENDROOT
BRANCH   1   2
ATOM      2  C   UNL     1       7.818  -4.550  24.047  0.00  0.00    +0.140 C 
BRANCH   2   3
ATOM      3  N   UNL     1       9.094  -4.185  24.652  0.00  0.00    -0.186 N 
ATOM      4  C   UNL     1       9.818  -3.096  24.209  0.00  0.00    +0.352 C 
ATOM      5  O   UNL     1       9.374  -2.142  23.588  0.00  0.00    -0.277 OA
BRANCH   3   6
ATOM      6  O   UNL     1       9.897  -5.307  24.954  0.00  0.00    -0.293 OA
ATOM      7  H   UNL     1       9.256  -5.917  25.350  0.00  0.00    +0.242 HD
ENDBRANCH   3   6
ENDBRANCH   2   3
ENDBRANCH   1   2
BRANCH   1   8
ATOM      8  C   UNL     1       6.290  -5.635  25.723  0.00  0.00    +0.128 C 
BRANCH   8   9
ATOM      9  P   UNL     1       6.322  -5.475  27.546  0.00  0.00    +0.328 P 
ATOM     10  O   UNL     1       6.349  -5.339  29.089  0.00  0.00    -0.259 OA
BRANCH   9  11
ATOM     11  O   UNL     1       7.915  -5.852  27.416  0.00  0.00    -0.324 OA
ATOM     12  H   UNL     1       8.079  -6.460  26.673  0.00  0.00    +0.220 HD
ENDBRANCH   9  11
BRANCH   9  13
ATOM     13  O   UNL     1       5.706  -6.990  27.632  0.00  0.00    -0.324 OA
ATOM     14  H   UNL     1       4.865  -6.989  27.133  0.00  0.00    +0.220 HD
ENDBRANCH   9  13
ENDBRANCH   8   9
ENDBRANCH   1   8
TORSDOF 7
ENDMDL
MODEL 6
REMARK VINA RESULT:      -3.8      3.006      4.858
REMARK  Name = 
REMARK  7 active torsions:
REMARK  status: ('A' for Active; 'I' for Inactive)
REMARK    1  A    between atoms: O_1  and  N_2
REMARK    2  A    between atoms: N_2  and  C_3
REMARK    3  A    between atoms: C_3  and  C_4
REMARK    4  A    between atoms: C_4  and  C_5
REMARK    5  A    between atoms: C_5  and  P_6
REMARK    6  A    between atoms: P_6  and  O_7
REMARK    7  A    between atoms: P_6  and  O_8
REMARK                            x       y       z     vdW  Elec       q    Type
REMARK                         _______ _______ _______ _____ _____    ______ ____
ROOT
ATOM      1  C   UNL     1      10.517   0.739  23.680  0.00  0.00    +0.033 C 
ENDROOT
BRANCH   1   2
ATOM      2  C   UNL     1       9.350   1.720  23.718  0.00  0.00    +0.140 C 
BRANCH   2   3
ATOM      3  N   UNL     1       8.998   2.164  22.373  0.00  0.00    -0.186 N 
ATOM      4  C   UNL     1       7.789   1.832  21.797  0.00  0.00    +0.352 C 
ATOM      5  O   UNL     1       6.776   1.496  22.393  0.00  0.00    -0.277 OA
BRANCH   3   6
ATOM      6  O   UNL     1      10.085   2.098  21.473  0.00  0.00    -0.293 OA
ATOM      7  H   UNL     1      10.509   1.263  21.725  0.00  0.00    +0.242 HD
ENDBRANCH   3   6
ENDBRANCH   2   3
ENDBRANCH   1   2
BRANCH   1   8
ATOM      8  C   UNL     1      10.130  -0.605  24.276  0.00  0.00    +0.128 C 
BRANCH   8   9
ATOM      9  P   UNL     1       9.195  -1.641  23.091  0.00  0.00    +0.328 P 
ATOM     10  O   UNL     1       8.405  -2.517  22.089  0.00  0.00    -0.259 OA
BRANCH   9  11
ATOM     11  O   UNL     1      10.119  -2.877  23.651  0.00  0.00    -0.324 OA
ATOM     12  H   UNL     1      11.065  -2.727  23.472  0.00  0.00    +0.220 HD
ENDBRANCH   9  11
BRANCH   9  13
ATOM     13  O   UNL     1      10.192  -1.090  21.914  0.00  0.00    -0.324 OA
ATOM     14  H   UNL     1      10.255  -1.792  21.236  0.00  0.00    +0.220 HD
ENDBRANCH   9  13
ENDBRANCH   8   9
ENDBRANCH   1   8
TORSDOF 7
ENDMDL
MODEL 7
REMARK VINA RESULT:      -3.8      7.565      8.548
REMARK  Name = 
REMARK  7 active torsions:
REMARK  status: ('A' for Active; 'I' for Inactive)
REMARK    1  A    between atoms: O_1  and  N_2
REMARK    2  A    between atoms: N_2  and  C_3
REMARK    3  A    between atoms: C_3  and  C_4
REMARK    4  A    between atoms: C_4  and  C_5
REMARK    5  A    between atoms: C_5  and  P_6
REMARK    6  A    between atoms: P_6  and  O_7
REMARK    7  A    between atoms: P_6  and  O_8
REMARK                            x       y       z     vdW  Elec       q    Type
REMARK                         _______ _______ _______ _____ _____    ______ ____
ROOT
ATOM      1  C   UNL     1       6.356  -4.611  25.428  0.00  0.00    +0.033 C 
ENDROOT
BRANCH   1   2
ATOM      2  C   UNL     1       7.490  -3.876  26.137  0.00  0.00    +0.140 C 
BRANCH   2   3
ATOM      3  N   UNL     1       8.596  -4.782  26.428  0.00  0.00    -0.186 N 
ATOM      4  C   UNL     1       9.598  -5.017  25.508  0.00  0.00    +0.352 C 
ATOM      5  O   UNL     1       9.902  -4.289  24.575  0.00  0.00    -0.277 OA
BRANCH   3   6
ATOM      6  O   UNL     1       8.185  -5.944  27.118  0.00  0.00    -0.293 OA
ATOM      7  H   UNL     1       8.915  -6.557  26.939  0.00  0.00    +0.242 HD
ENDBRANCH   3   6
ENDBRANCH   2   3
ENDBRANCH   1   2
BRANCH   1   8
ATOM      8  C   UNL     1       6.024  -3.959  24.095  0.00  0.00    +0.128 C 
BRANCH   8   9
ATOM      9  P   UNL     1       6.675  -4.917  22.678  0.00  0.00    +0.328 P 
ATOM     10  O   UNL     1       7.226  -5.727  21.479  0.00  0.00    -0.259 OA
BRANCH   9  11
ATOM     11  O   UNL     1       7.793  -3.721  22.558  0.00  0.00    -0.324 OA
ATOM     12  H   UNL     1       7.437  -2.866  22.858  0.00  0.00    +0.220 HD
ENDBRANCH   9  11
BRANCH   9  13
ATOM     13  O   UNL     1       5.491  -4.253  21.761  0.00  0.00    -0.324 OA
ATOM     14  H   UNL     1       5.357  -4.841  20.992  0.00  0.00    +0.220 HD
ENDBRANCH   9  13
ENDBRANCH   8   9
ENDBRANCH   1   8
TORSDOF 7
ENDMDL
MODEL 8
REMARK VINA RESULT:      -3.8      2.968      5.212
REMARK  Name = 
REMARK  7 active torsions:
REMARK  status: ('A' for Active; 'I' for Inactive)
REMARK    1  A    between atoms: O_1  and  N_2
REMARK    2  A    between atoms: N_2  and  C_3
REMARK    3  A    between atoms: C_3  and  C_4
REMARK    4  A    between atoms: C_4  and  C_5
REMARK    5  A    between atoms: C_5  and  P_6
REMARK    6  A    between atoms: P_6  and  O_7
REMARK    7  A    between atoms: P_6  and  O_8
REMARK                            x       y       z     vdW  Elec       q    Type
REMARK                         _______ _______ _______ _____ _____    ______ ____
ROOT
ATOM      1  C   UNL     1       9.473  -0.076  21.628  0.00  0.00    +0.033 C 
ENDROOT
BRANCH   1   2
ATOM      2  C   UNL     1       9.188   1.405  21.860  0.00  0.00    +0.140 C 
BRANCH   2   3
ATOM      3  N   UNL     1      10.146   1.980  22.798  0.00  0.00    -0.186 N 
ATOM      4  C   UNL     1       9.806   2.239  24.110  0.00  0.00    +0.352 C 
ATOM      5  O   UNL     1       8.889   1.721  24.730  0.00  0.00    -0.277 OA
BRANCH   3   6
ATOM      6  O   UNL     1      10.943   2.991  22.216  0.00  0.00    -0.293 OA
ATOM      7  H   UNL     1      10.516   3.117  21.354  0.00  0.00    +0.242 HD
ENDBRANCH   3   6
ENDBRANCH   2   3
ENDBRANCH   1   2
BRANCH   1   8
ATOM      8  C   UNL     1       8.536  -0.953  22.441  0.00  0.00    +0.128 C 
BRANCH   8   9
ATOM      9  P   UNL     1       9.434  -2.267  23.346  0.00  0.00    +0.328 P 
ATOM     10  O   UNL     1      10.193  -3.379  24.110  0.00  0.00    -0.259 OA
BRANCH   9  11
ATOM     11  O   UNL     1       9.598  -1.149  24.536  0.00  0.00    -0.324 OA
ATOM     12  H   UNL     1       8.741  -0.931  24.944  0.00  0.00    +0.220 HD
ENDBRANCH   9  11
BRANCH   9  13
ATOM     13  O   UNL     1      10.758  -1.892  22.458  0.00  0.00    -0.324 OA
ATOM     14  H   UNL     1      10.857  -2.588  21.778  0.00  0.00    +0.220 HD
ENDBRANCH   9  13
ENDBRANCH   8   9
ENDBRANCH   1   8
TORSDOF 7
ENDMDL
MODEL 9
REMARK VINA RESULT:      -3.8      5.108      6.511
REMARK  Name = 
REMARK  7 active torsions:
REMARK  status: ('A' for Active; 'I' for Inactive)
REMARK    1  A    between atoms: O_1  and  N_2
REMARK    2  A    between atoms: N_2  and  C_3
REMARK    3  A    between atoms: C_3  and  C_4
REMARK    4  A    between atoms: C_4  and  C_5
REMARK    5  A    between atoms: C_5  and  P_6
REMARK    6  A    between atoms: P_6  and  O_7
REMARK    7  A    between atoms: P_6  and  O_8
REMARK                            x       y       z     vdW  Elec       q    Type
REMARK                         _______ _______ _______ _____ _____    ______ ____
ROOT
ATOM      1  C   UNL     1       8.082  -3.721  23.554  0.00  0.00    +0.033 C 
ENDROOT
BRANCH   1   2
ATOM      2  C   UNL     1       9.196  -3.654  24.593  0.00  0.00    +0.140 C 
BRANCH   2   3
ATOM      3  N   UNL     1       9.213  -4.858  25.417  0.00  0.00    -0.186 N 
ATOM      4  C   UNL     1       8.627  -4.886  26.667  0.00  0.00    +0.352 C 
ATOM      5  O   UNL     1       7.758  -4.128  27.070  0.00  0.00    -0.277 OA
BRANCH   3   6
ATOM      6  O   UNL     1      10.447  -5.543  25.361  0.00  0.00    -0.293 OA
ATOM      7  H   UNL     1      10.508  -5.779  24.423  0.00  0.00    +0.242 HD
ENDBRANCH   3   6
ENDBRANCH   2   3
ENDBRANCH   1   2
BRANCH   1   8
ATOM      8  C   UNL     1       8.260  -2.657  22.483  0.00  0.00    +0.128 C 
BRANCH   8   9
ATOM      9  P   UNL     1       9.544  -1.433  22.934  0.00  0.00    +0.328 P 
ATOM     10  O   UNL     1      10.630  -0.398  23.316  0.00  0.00    -0.259 OA
BRANCH   9  11
ATOM     11  O   UNL     1       8.379  -0.310  22.655  0.00  0.00    -0.324 OA
ATOM     12  H   UNL     1       8.648   0.320  21.961  0.00  0.00    +0.220 HD
ENDBRANCH   9  11
BRANCH   9  13
ATOM     13  O   UNL     1      10.131  -1.576  21.412  0.00  0.00    -0.324 OA
ATOM     14  H   UNL     1       9.364  -1.629  20.809  0.00  0.00    +0.220 HD
ENDBRANCH   9  13
ENDBRANCH   8   9
ENDBRANCH   1   8
TORSDOF 7
ENDMDL
