MODEL 1
REMARK VINA RESULT:      -5.6      0.000      0.000
REMARK  Name = 
REMARK  35 active torsions:
REMARK  status: ('A' for Active; 'I' for Inactive)
REMARK    1  A    between atoms: C_1  and  C_2
REMARK    2  A    between atoms: C_2  and  C_3
REMARK    3  A    between atoms: C_3  and  C_4
REMARK    4  A    between atoms: C_4  and  C_5
REMARK    5  A    between atoms: C_5  and  S_6
REMARK    6  A    between atoms: S_6  and  C_7
REMARK    7  A    between atoms: C_7  and  C_8
REMARK    8  A    between atoms: C_8  and  S_10
REMARK    9  A    between atoms: S_10  and  C_11
REMARK   10  A    between atoms: C_11  and  C_12
REMARK   11  A    between atoms: C_12  and  N_13
REMARK   12  A    between atoms: C_14  and  C_16
REMARK   13  A    between atoms: C_16  and  C_17
REMARK   14  A    between atoms: C_17  and  N_18
REMARK   15  A    between atoms: C_19  and  C_21
REMARK   16  A    between atoms: C_21  and  O_23
REMARK   17  A    between atoms: C_21  and  C_24
REMARK   18  A    between atoms: C_24  and  C_25
REMARK   19  A    between atoms: C_24  and  C_26
REMARK   20  A    between atoms: C_24  and  C_27
REMARK   21  A    between atoms: C_27  and  O_28
REMARK   22  A    between atoms: O_28  and  P_29
REMARK   23  A    between atoms: P_29  and  O_30
REMARK   24  A    between atoms: P_29  and  O_32
REMARK   25  A    between atoms: O_32  and  P_33
REMARK   26  A    between atoms: P_33  and  O_34
REMARK   27  A    between atoms: P_33  and  O_36
REMARK   28  A    between atoms: O_36  and  C_37
REMARK   29  A    between atoms: C_37  and  C_38
REMARK   30  A    between atoms: C_41  and  N_53
REMARK   31  A    between atoms: C_43  and  O_45
REMARK   32  A    between atoms: C_46  and  O_48
REMARK   33  A    between atoms: O_48  and  P_49
REMARK   34  A    between atoms: P_49  and  O_50
REMARK   35  A    between atoms: P_49  and  O_51
REMARK                            x       y       z     vdW  Elec       q    Type
REMARK                         _______ _______ _______ _____ _____    ______ ____
ROOT
ATOM      1  P   UNL     1       6.253  -5.118  22.046  0.00  0.00    +0.483 P 
ATOM      2  O   UNL     1       6.778  -6.549  22.198  0.00  0.00    -0.227 OA
ENDROOT
BRANCH   1   3
ATOM      3  O   UNL     1       5.915  -5.506  20.395  0.00  0.00    -0.302 OA
ATOM      4  H   UNL     1       5.024  -5.113  20.284  0.00  0.00    +0.222 HD
ENDBRANCH   1   3
BRANCH   1   5
ATOM      5  O   UNL     1       6.592  -4.731  23.698  0.00  0.00    -0.186 OA
BRANCH   5   6
ATOM      6  P   UNL     1       8.116  -3.919  23.799  0.00  0.00    +0.483 P 
ATOM      7  O   UNL     1       8.151  -3.649  22.297  0.00  0.00    -0.227 OA
BRANCH   6   8
ATOM      8  O   UNL     1       8.917  -5.317  24.026  0.00  0.00    -0.302 OA
ATOM      9  H   UNL     1       8.660  -5.988  23.366  0.00  0.00    +0.222 HD
ENDBRANCH   6   8
BRANCH   6  10
ATOM     10  O   UNL     1       9.640  -3.107  23.901  0.00  0.00    -0.284 OA
BRANCH  10  11
ATOM     11  C   UNL     1       9.512  -1.770  24.372  0.00  0.00    +0.206 C 
BRANCH  11  12
ATOM     12  C   UNL     1       8.147  -1.140  24.043  0.00  0.00    +0.179 C 
ATOM     13  C   UNL     1       7.392  -0.598  25.252  0.00  0.00    +0.194 C 
ATOM     14  C   UNL     1       7.567   0.908  25.200  0.00  0.00    +0.196 C 
ATOM     15  C   UNL     1       8.371   1.164  23.920  0.00  0.00    +0.253 C 
ATOM     16  O   UNL     1       8.314  -0.039  23.130  0.00  0.00    -0.346 OA
BRANCH  15  17
ATOM     17  N   UNL     1       7.827   2.279  23.155  0.00  0.00    -0.286 N 
ATOM     18  C   UNL     1       8.290   3.567  23.243  0.00  0.00    +0.167 A 
ATOM     19  N   UNL     1       9.313   4.015  23.989  0.00  0.00    -0.216 NA
ATOM     20  C   UNL     1       9.471   5.347  23.815  0.00  0.00    +0.225 A 
ATOM     21  N   UNL     1       8.744   6.186  23.047  0.00  0.00    -0.219 NA
ATOM     22  C   UNL     1       7.704   5.684  22.344  0.00  0.00    +0.147 A 
ATOM     23  N   UNL     1       6.952   6.562  21.575  0.00  0.00    -0.341 N 
ATOM     24  H   UNL     1       6.428   6.115  20.830  0.00  0.00    +0.144 HD
ATOM     25  H   UNL     1       7.453   7.414  21.359  0.00  0.00    +0.144 HD
ATOM     26  C   UNL     1       7.459   4.300  22.413  0.00  0.00    +0.147 A 
ATOM     27  N   UNL     1       6.521   3.483  21.814  0.00  0.00    -0.231 NA
ATOM     28  C   UNL     1       6.772   2.277  22.285  0.00  0.00    +0.203 A 
ENDBRANCH  15  17
BRANCH  14  29
ATOM     29  O   UNL     1       8.199   1.357  26.401  0.00  0.00    -0.385 OA
ATOM     30  H   UNL     1       7.536   1.895  26.881  0.00  0.00    +0.210 HD
ENDBRANCH  14  29
BRANCH  13  31
ATOM     31  O   UNL     1       6.012  -0.949  25.081  0.00  0.00    -0.278 OA
BRANCH  31  32
ATOM     32  P   UNL     1       5.207  -1.673  26.261  0.00  0.00    +0.473 P 
ATOM     33  O   UNL     1       5.184  -0.959  27.567  0.00  0.00    -0.228 OA
BRANCH  32  34
ATOM     34  O   UNL     1       5.805  -3.146  26.300  0.00  0.00    -0.303 OA
ATOM     35  H   UNL     1       6.362  -3.344  25.521  0.00  0.00    +0.222 HD
ENDBRANCH  32  34
BRANCH  32  36
ATOM     36  O   UNL     1       3.775  -1.873  25.589  0.00  0.00    -0.303 OA
ATOM     37  H   UNL     1       3.324  -2.658  25.943  0.00  0.00    +0.222 HD
ENDBRANCH  32  36
ENDBRANCH  31  32
ENDBRANCH  13  31
ENDBRANCH  11  12
ENDBRANCH  10  11
ENDBRANCH   6  10
ENDBRANCH   5   6
ENDBRANCH   1   5
BRANCH   1  38
ATOM     38  O   UNL     1       4.640  -5.145  22.363  0.00  0.00    -0.286 OA
BRANCH  38  39
ATOM     39  C   UNL     1       4.120  -4.828  23.650  0.00  0.00    +0.181 C 
BRANCH  39  40
ATOM     40  C   UNL     1       3.239  -5.893  24.363  0.00  0.00    +0.024 C 
ATOM     41  C   UNL     1       2.402  -5.266  25.503  0.00  0.00    +0.016 C 
ATOM     42  C   UNL     1       2.194  -6.412  23.346  0.00  0.00    +0.016 C 
BRANCH  40  43
ATOM     43  C   UNL     1       4.057  -7.089  24.925  0.00  0.00    +0.208 C 
BRANCH  43  46
ATOM     44  N   UNL     1       4.134  -7.233  27.392  0.00  0.00    -0.313 N 
ATOM     45  H   UNL     1       3.223  -7.665  27.314  0.00  0.00    +0.149 HD
ATOM     46  C   UNL     1       4.789  -6.780  26.262  0.00  0.00    +0.242 C 
ATOM     47  O   UNL     1       5.870  -6.213  26.344  0.00  0.00    -0.273 OA
BRANCH  44  48
ATOM     48  C   UNL     1       4.667  -6.939  28.711  0.00  0.00    +0.113 C 
BRANCH  48  49
ATOM     49  C   UNL     1       3.609  -6.976  29.806  0.00  0.00    +0.114 C 
BRANCH  49  52
ATOM     50  N   UNL     1       2.430  -4.846  29.846  0.00  0.00    -0.314 N 
ATOM     51  H   UNL     1       3.080  -4.595  30.583  0.00  0.00    +0.149 HD
ATOM     52  C   UNL     1       2.415  -6.144  29.386  0.00  0.00    +0.215 C 
ATOM     53  O   UNL     1       1.530  -6.604  28.672  0.00  0.00    -0.276 OA
BRANCH  50  54
ATOM     54  C   UNL     1       1.386  -3.900  29.488  0.00  0.00    +0.115 C 
BRANCH  54  55
ATOM     55  C   UNL     1       1.847  -2.811  28.513  0.00  0.00    +0.096 C 
BRANCH  55  56
ATOM     56  S   UNL     1       1.966  -1.176  29.313  0.00  0.00    -0.086 S 
BRANCH  56  57
ATOM     57  C   UNL     1       1.733  -0.146  27.897  0.00  0.00    +0.199 C 
ATOM     58  O   UNL     1       1.488  -0.620  26.793  0.00  0.00    -0.284 OA
BRANCH  57  59
ATOM     59  C   UNL     1       1.871   1.339  28.144  0.00  0.00    +0.155 C 
BRANCH  59  60
ATOM     60  S   UNL     1       2.061   2.275  26.592  0.00  0.00    -0.152 S 
BRANCH  60  61
ATOM     61  C   UNL     1       3.883   2.427  26.516  0.00  0.00    +0.069 C 
BRANCH  61  62
ATOM     62  C   UNL     1       4.305   2.439  25.046  0.00  0.00    +0.011 C 
BRANCH  62  63
ATOM     63  C   UNL     1       3.819   3.690  24.309  0.00  0.00    +0.001 C 
BRANCH  63  65
ATOM     64  C   UNL     1       1.747   4.059  22.900  0.00  0.00    +0.004 C 
ATOM     65  C   UNL     1       3.058   3.302  23.038  0.00  0.00    -0.003 C 
ENDBRANCH  63  65
ENDBRANCH  62  63
ENDBRANCH  61  62
ENDBRANCH  60  61
ENDBRANCH  59  60
ENDBRANCH  57  59
ENDBRANCH  56  57
ENDBRANCH  55  56
ENDBRANCH  54  55
ENDBRANCH  50  54
ENDBRANCH  49  52
ENDBRANCH  48  49
ENDBRANCH  44  48
ENDBRANCH  43  46
BRANCH  43  66
ATOM     66  O   UNL     1       3.240  -8.254  25.041  0.00  0.00    -0.382 OA
ATOM     67  H   UNL     1       2.540  -8.196  24.370  0.00  0.00    +0.210 HD
ENDBRANCH  43  66
ENDBRANCH  40  43
ENDBRANCH  39  40
ENDBRANCH  38  39
ENDBRANCH   1  38
TORSDOF 32
ENDMDL
MODEL 2
REMARK VINA RESULT:      -5.6      3.152      7.592
REMARK  Name = 
REMARK  35 active torsions:
REMARK  status: ('A' for Active; 'I' for Inactive)
REMARK    1  A    between atoms: C_1  and  C_2
REMARK    2  A    between atoms: C_2  and  C_3
REMARK    3  A    between atoms: C_3  and  C_4
REMARK    4  A    between atoms: C_4  and  C_5
REMARK    5  A    between atoms: C_5  and  S_6
REMARK    6  A    between atoms: S_6  and  C_7
REMARK    7  A    between atoms: C_7  and  C_8
REMARK    8  A    between atoms: C_8  and  S_10
REMARK    9  A    between atoms: S_10  and  C_11
REMARK   10  A    between atoms: C_11  and  C_12
REMARK   11  A    between atoms: C_12  and  N_13
REMARK   12  A    between atoms: C_14  and  C_16
REMARK   13  A    between atoms: C_16  and  C_17
REMARK   14  A    between atoms: C_17  and  N_18
REMARK   15  A    between atoms: C_19  and  C_21
REMARK   16  A    between atoms: C_21  and  O_23
REMARK   17  A    between atoms: C_21  and  C_24
REMARK   18  A    between atoms: C_24  and  C_25
REMARK   19  A    between atoms: C_24  and  C_26
REMARK   20  A    between atoms: C_24  and  C_27
REMARK   21  A    between atoms: C_27  and  O_28
REMARK   22  A    between atoms: O_28  and  P_29
REMARK   23  A    between atoms: P_29  and  O_30
REMARK   24  A    between atoms: P_29  and  O_32
REMARK   25  A    between atoms: O_32  and  P_33
REMARK   26  A    between atoms: P_33  and  O_34
REMARK   27  A    between atoms: P_33  and  O_36
REMARK   28  A    between atoms: O_36  and  C_37
REMARK   29  A    between atoms: C_37  and  C_38
REMARK   30  A    between atoms: C_41  and  N_53
REMARK   31  A    between atoms: C_43  and  O_45
REMARK   32  A    between atoms: C_46  and  O_48
REMARK   33  A    between atoms: O_48  and  P_49
REMARK   34  A    between atoms: P_49  and  O_50
REMARK   35  A    between atoms: P_49  and  O_51
REMARK                            x       y       z     vdW  Elec       q    Type
REMARK                         _______ _______ _______ _____ _____    ______ ____
ROOT
ATOM      1  P   UNL     1       6.369  -5.114  22.138  0.00  0.00    +0.483 P 
ATOM      2  O   UNL     1       6.028  -5.287  20.655  0.00  0.00    -0.227 OA
ENDROOT
BRANCH   1   3
ATOM      3  O   UNL     1       7.795  -6.045  21.832  0.00  0.00    -0.302 OA
ATOM      4  H   UNL     1       8.373  -5.760  22.571  0.00  0.00    +0.222 HD
ENDBRANCH   1   3
BRANCH   1   5
ATOM      5  O   UNL     1       4.943  -4.185  22.445  0.00  0.00    -0.186 OA
BRANCH   5   6
ATOM      6  P   UNL     1       4.037  -4.922  23.722  0.00  0.00    +0.483 P 
ATOM      7  O   UNL     1       5.300  -5.412  24.427  0.00  0.00    -0.227 OA
BRANCH   6   8
ATOM      8  O   UNL     1       3.555  -6.143  22.761  0.00  0.00    -0.302 OA
ATOM      9  H   UNL     1       4.227  -6.355  22.086  0.00  0.00    +0.222 HD
ENDBRANCH   6   8
BRANCH   6  10
ATOM     10  O   UNL     1       3.132  -5.658  24.998  0.00  0.00    -0.284 OA
BRANCH  10  11
ATOM     11  C   UNL     1       2.239  -4.744  25.627  0.00  0.00    +0.206 C 
BRANCH  11  12
ATOM     12  C   UNL     1       2.607  -4.446  27.090  0.00  0.00    +0.179 C 
ATOM     13  C   UNL     1       4.035  -4.819  27.472  0.00  0.00    +0.194 C 
ATOM     14  C   UNL     1       4.802  -3.512  27.509  0.00  0.00    +0.196 C 
ATOM     15  C   UNL     1       3.755  -2.435  27.202  0.00  0.00    +0.253 C 
ATOM     16  O   UNL     1       2.458  -3.040  27.364  0.00  0.00    -0.346 OA
BRANCH  15  17
ATOM     17  N   UNL     1       3.878  -1.290  28.095  0.00  0.00    -0.286 N 
ATOM     18  C   UNL     1       3.740   0.014  27.695  0.00  0.00    +0.167 A 
ATOM     19  N   UNL     1       3.438   0.459  26.464  0.00  0.00    -0.216 NA
ATOM     20  C   UNL     1       3.390   1.811  26.455  0.00  0.00    +0.225 A 
ATOM     21  N   UNL     1       3.618   2.667  27.473  0.00  0.00    -0.219 NA
ATOM     22  C   UNL     1       3.952   2.161  28.681  0.00  0.00    +0.147 A 
ATOM     23  N   UNL     1       4.206   3.054  29.714  0.00  0.00    -0.341 N 
ATOM     24  H   UNL     1       4.114   2.652  30.641  0.00  0.00    +0.144 HD
ATOM     25  H   UNL     1       3.796   3.965  29.549  0.00  0.00    +0.144 HD
ATOM     26  C   UNL     1       3.999   0.763  28.829  0.00  0.00    +0.147 A 
ATOM     27  N   UNL     1       4.271  -0.057  29.906  0.00  0.00    -0.231 NA
ATOM     28  C   UNL     1       4.192  -1.283  29.426  0.00  0.00    +0.203 A 
ENDBRANCH  15  17
BRANCH  14  29
ATOM     29  O   UNL     1       5.889  -3.568  26.581  0.00  0.00    -0.385 OA
ATOM     30  H   UNL     1       5.589  -4.130  25.835  0.00  0.00    +0.210 HD
ENDBRANCH  14  29
BRANCH  13  31
ATOM     31  O   UNL     1       3.983  -5.407  28.780  0.00  0.00    -0.278 OA
BRANCH  31  32
ATOM     32  P   UNL     1       5.143  -6.397  29.270  0.00  0.00    +0.473 P 
ATOM     33  O   UNL     1       6.443  -5.758  29.614  0.00  0.00    -0.228 OA
BRANCH  32  34
ATOM     34  O   UNL     1       5.211  -7.514  28.140  0.00  0.00    -0.303 OA
ATOM     35  H   UNL     1       6.009  -8.074  28.215  0.00  0.00    +0.222 HD
ENDBRANCH  32  34
BRANCH  32  36
ATOM     36  O   UNL     1       4.427  -7.143  30.485  0.00  0.00    -0.303 OA
ATOM     37  H   UNL     1       4.991  -7.847  30.849  0.00  0.00    +0.222 HD
ENDBRANCH  32  36
ENDBRANCH  31  32
ENDBRANCH  13  31
ENDBRANCH  11  12
ENDBRANCH  10  11
ENDBRANCH   6  10
ENDBRANCH   5   6
ENDBRANCH   1   5
BRANCH   1  38
ATOM     38  O   UNL     1       7.301  -3.768  22.280  0.00  0.00    -0.286 OA
BRANCH  38  39
ATOM     39  C   UNL     1       8.083  -3.512  23.442  0.00  0.00    +0.181 C 
BRANCH  39  40
ATOM     40  C   UNL     1       8.629  -2.070  23.651  0.00  0.00    +0.024 C 
ATOM     41  C   UNL     1      10.021  -1.891  23.001  0.00  0.00    +0.016 C 
ATOM     42  C   UNL     1       7.706  -1.091  22.885  0.00  0.00    +0.016 C 
BRANCH  40  43
ATOM     43  C   UNL     1       8.703  -1.654  25.147  0.00  0.00    +0.208 C 
BRANCH  43  46
ATOM     44  N   UNL     1       8.105   0.577  26.027  0.00  0.00    -0.313 N 
ATOM     45  H   UNL     1       9.101   0.718  26.123  0.00  0.00    +0.149 HD
ATOM     46  C   UNL     1       7.611  -0.631  25.572  0.00  0.00    +0.242 C 
ATOM     47  O   UNL     1       6.407  -0.833  25.496  0.00  0.00    -0.273 OA
BRANCH  44  48
ATOM     48  C   UNL     1       7.196   1.591  26.534  0.00  0.00    +0.113 C 
BRANCH  48  49
ATOM     49  C   UNL     1       7.381   2.948  25.867  0.00  0.00    +0.114 C 
BRANCH  49  52
ATOM     50  N   UNL     1       5.507   4.378  25.258  0.00  0.00    -0.314 N 
ATOM     51  H   UNL     1       5.664   4.824  26.156  0.00  0.00    +0.149 HD
ATOM     52  C   UNL     1       6.205   3.230  24.955  0.00  0.00    +0.215 C 
ATOM     53  O   UNL     1       5.931   2.494  24.012  0.00  0.00    -0.276 OA
BRANCH  50  54
ATOM     54  C   UNL     1       4.385   4.822  24.448  0.00  0.00    +0.115 C 
BRANCH  54  55
ATOM     55  C   UNL     1       4.791   5.686  23.250  0.00  0.00    +0.096 C 
BRANCH  55  56
ATOM     56  S   UNL     1       6.190   6.791  23.641  0.00  0.00    -0.086 S 
BRANCH  56  57
ATOM     57  C   UNL     1       7.458   5.989  22.707  0.00  0.00    +0.199 C 
ATOM     58  O   UNL     1       7.193   5.144  21.860  0.00  0.00    -0.284 OA
BRANCH  57  59
ATOM     59  C   UNL     1       8.872   6.409  23.040  0.00  0.00    +0.155 C 
BRANCH  59  60
ATOM     60  S   UNL     1       9.609   5.361  24.335  0.00  0.00    -0.152 S 
BRANCH  60  61
ATOM     61  C   UNL     1      11.331   5.244  23.729  0.00  0.00    +0.069 C 
BRANCH  61  62
ATOM     62  C   UNL     1      11.614   3.787  23.359  0.00  0.00    +0.011 C 
BRANCH  62  63
ATOM     63  C   UNL     1      10.456   2.854  23.728  0.00  0.00    +0.001 C 
BRANCH  63  65
ATOM     64  C   UNL     1       8.881   2.133  21.880  0.00  0.00    +0.004 C 
ATOM     65  C   UNL     1      10.192   1.855  22.597  0.00  0.00    -0.003 C 
ENDBRANCH  63  65
ENDBRANCH  62  63
ENDBRANCH  61  62
ENDBRANCH  60  61
ENDBRANCH  59  60
ENDBRANCH  57  59
ENDBRANCH  56  57
ENDBRANCH  55  56
ENDBRANCH  54  55
ENDBRANCH  50  54
ENDBRANCH  49  52
ENDBRANCH  48  49
ENDBRANCH  44  48
ENDBRANCH  43  46
BRANCH  43  66
ATOM     66  O   UNL     1       8.693  -2.803  25.995  0.00  0.00    -0.382 OA
ATOM     67  H   UNL     1       9.463  -2.748  26.582  0.00  0.00    +0.210 HD
ENDBRANCH  43  66
ENDBRANCH  40  43
ENDBRANCH  39  40
ENDBRANCH  38  39
ENDBRANCH   1  38
TORSDOF 32
ENDMDL
MODEL 3
REMARK VINA RESULT:      -5.4      2.955      7.732
REMARK  Name = 
REMARK  35 active torsions:
REMARK  status: ('A' for Active; 'I' for Inactive)
REMARK    1  A    between atoms: C_1  and  C_2
REMARK    2  A    between atoms: C_2  and  C_3
REMARK    3  A    between atoms: C_3  and  C_4
REMARK    4  A    between atoms: C_4  and  C_5
REMARK    5  A    between atoms: C_5  and  S_6
REMARK    6  A    between atoms: S_6  and  C_7
REMARK    7  A    between atoms: C_7  and  C_8
REMARK    8  A    between atoms: C_8  and  S_10
REMARK    9  A    between atoms: S_10  and  C_11
REMARK   10  A    between atoms: C_11  and  C_12
REMARK   11  A    between atoms: C_12  and  N_13
REMARK   12  A    between atoms: C_14  and  C_16
REMARK   13  A    between atoms: C_16  and  C_17
REMARK   14  A    between atoms: C_17  and  N_18
REMARK   15  A    between atoms: C_19  and  C_21
REMARK   16  A    between atoms: C_21  and  O_23
REMARK   17  A    between atoms: C_21  and  C_24
REMARK   18  A    between atoms: C_24  and  C_25
REMARK   19  A    between atoms: C_24  and  C_26
REMARK   20  A    between atoms: C_24  and  C_27
REMARK   21  A    between atoms: C_27  and  O_28
REMARK   22  A    between atoms: O_28  and  P_29
REMARK   23  A    between atoms: P_29  and  O_30
REMARK   24  A    between atoms: P_29  and  O_32
REMARK   25  A    between atoms: O_32  and  P_33
REMARK   26  A    between atoms: P_33  and  O_34
REMARK   27  A    between atoms: P_33  and  O_36
REMARK   28  A    between atoms: O_36  and  C_37
REMARK   29  A    between atoms: C_37  and  C_38
REMARK   30  A    between atoms: C_41  and  N_53
REMARK   31  A    between atoms: C_43  and  O_45
REMARK   32  A    between atoms: C_46  and  O_48
REMARK   33  A    between atoms: O_48  and  P_49
REMARK   34  A    between atoms: P_49  and  O_50
REMARK   35  A    between atoms: P_49  and  O_51
REMARK                            x       y       z     vdW  Elec       q    Type
REMARK                         _______ _______ _______ _____ _____    ______ ____
ROOT
ATOM      1  P   UNL     1       6.284  -5.356  22.049  0.00  0.00    +0.483 P 
ATOM      2  O   UNL     1       6.068  -5.509  20.541  0.00  0.00    -0.227 OA
ENDROOT
BRANCH   1   3
ATOM      3  O   UNL     1       7.850  -6.052  21.811  0.00  0.00    -0.302 OA
ATOM      4  H   UNL     1       7.863  -6.738  22.511  0.00  0.00    +0.222 HD
ENDBRANCH   1   3
BRANCH   1   5
ATOM      5  O   UNL     1       4.718  -4.660  22.287  0.00  0.00    -0.186 OA
BRANCH   5   6
ATOM      6  P   UNL     1       3.922  -5.464  23.597  0.00  0.00    +0.483 P 
ATOM      7  O   UNL     1       5.241  -5.963  24.182  0.00  0.00    -0.227 OA
BRANCH   6   8
ATOM      8  O   UNL     1       3.383  -6.652  22.623  0.00  0.00    -0.302 OA
ATOM      9  H   UNL     1       2.488  -6.459  22.286  0.00  0.00    +0.222 HD
ENDBRANCH   6   8
BRANCH   6  10
ATOM     10  O   UNL     1       3.126  -6.268  24.905  0.00  0.00    -0.284 OA
BRANCH  10  11
ATOM     11  C   UNL     1       2.072  -5.487  25.460  0.00  0.00    +0.206 C 
BRANCH  11  12
ATOM     12  C   UNL     1       2.388  -4.958  26.870  0.00  0.00    +0.179 C 
ATOM     13  C   UNL     1       3.840  -5.129  27.299  0.00  0.00    +0.194 C 
ATOM     14  C   UNL     1       4.472  -3.757  27.158  0.00  0.00    +0.196 C 
ATOM     15  C   UNL     1       3.325  -2.844  26.707  0.00  0.00    +0.253 C 
ATOM     16  O   UNL     1       2.094  -3.550  26.949  0.00  0.00    -0.346 OA
BRANCH  15  17
ATOM     17  N   UNL     1       3.319  -1.582  27.436  0.00  0.00    -0.286 N 
ATOM     18  C   UNL     1       4.185  -0.549  27.188  0.00  0.00    +0.167 A 
ATOM     19  N   UNL     1       5.135  -0.493  26.239  0.00  0.00    -0.216 NA
ATOM     20  C   UNL     1       5.791   0.688  26.303  0.00  0.00    +0.225 A 
ATOM     21  N   UNL     1       5.604   1.707  27.169  0.00  0.00    -0.219 NA
ATOM     22  C   UNL     1       4.657   1.580  28.125  0.00  0.00    +0.147 A 
ATOM     23  N   UNL     1       4.491   2.627  29.022  0.00  0.00    -0.341 N 
ATOM     24  H   UNL     1       3.586   2.641  29.479  0.00  0.00    +0.144 HD
ATOM     25  H   UNL     1       4.860   3.501  28.670  0.00  0.00    +0.144 HD
ATOM     26  C   UNL     1       3.879   0.408  28.140  0.00  0.00    +0.147 A 
ATOM     27  N   UNL     1       2.839  -0.016  28.942  0.00  0.00    -0.231 NA
ATOM     28  C   UNL     1       2.530  -1.216  28.492  0.00  0.00    +0.203 A 
ENDBRANCH  15  17
BRANCH  14  29
ATOM     29  O   UNL     1       5.571  -3.828  26.247  0.00  0.00    -0.385 OA
ATOM     30  H   UNL     1       5.799  -2.904  26.013  0.00  0.00    +0.210 HD
ENDBRANCH  14  29
BRANCH  13  31
ATOM     31  O   UNL     1       3.829  -5.537  28.675  0.00  0.00    -0.278 OA
BRANCH  31  32
ATOM     32  P   UNL     1       5.054  -6.370  29.284  0.00  0.00    +0.473 P 
ATOM     33  O   UNL     1       6.250  -5.576  29.678  0.00  0.00    -0.228 OA
BRANCH  32  34
ATOM     34  O   UNL     1       5.320  -7.517  28.214  0.00  0.00    -0.303 OA
ATOM     35  H   UNL     1       4.545  -8.101  28.091  0.00  0.00    +0.222 HD
ENDBRANCH  32  34
BRANCH  32  36
ATOM     36  O   UNL     1       4.343  -7.141  30.485  0.00  0.00    -0.303 OA
ATOM     37  H   UNL     1       3.535  -6.683  30.771  0.00  0.00    +0.222 HD
ENDBRANCH  32  36
ENDBRANCH  31  32
ENDBRANCH  13  31
ENDBRANCH  11  12
ENDBRANCH  10  11
ENDBRANCH   6  10
ENDBRANCH   5   6
ENDBRANCH   1   5
BRANCH   1  38
ATOM     38  O   UNL     1       6.993  -3.895  22.304  0.00  0.00    -0.286 OA
BRANCH  38  39
ATOM     39  C   UNL     1       7.750  -3.619  23.478  0.00  0.00    +0.181 C 
BRANCH  39  40
ATOM     40  C   UNL     1       8.211  -2.154  23.721  0.00  0.00    +0.024 C 
ATOM     41  C   UNL     1       7.123  -1.138  23.299  0.00  0.00    +0.016 C 
ATOM     42  C   UNL     1       8.373  -1.948  25.247  0.00  0.00    +0.016 C 
BRANCH  40  43
ATOM     43  C   UNL     1       9.545  -1.804  23.004  0.00  0.00    +0.208 C 
BRANCH  43  46
ATOM     44  N   UNL     1       9.733   0.522  22.189  0.00  0.00    -0.313 N 
ATOM     45  H   UNL     1       9.310   0.173  21.340  0.00  0.00    +0.149 HD
ATOM     46  C   UNL     1      10.019  -0.340  23.231  0.00  0.00    +0.242 C 
ATOM     47  O   UNL     1      10.574   0.058  24.246  0.00  0.00    -0.273 OA
BRANCH  44  48
ATOM     48  C   UNL     1      10.193   1.899  22.235  0.00  0.00    +0.113 C 
BRANCH  48  49
ATOM     49  C   UNL     1       9.174   2.851  22.850  0.00  0.00    +0.114 C 
BRANCH  49  52
ATOM     50  N   UNL     1       6.798   2.655  23.344  0.00  0.00    -0.314 N 
ATOM     51  H   UNL     1       7.071   2.820  24.308  0.00  0.00    +0.149 HD
ATOM     52  C   UNL     1       7.781   2.463  22.399  0.00  0.00    +0.215 C 
ATOM     53  O   UNL     1       7.566   2.037  21.268  0.00  0.00    -0.276 OA
BRANCH  50  54
ATOM     54  C   UNL     1       5.400   2.386  23.054  0.00  0.00    +0.115 C 
BRANCH  54  55
ATOM     55  C   UNL     1       4.520   3.639  23.034  0.00  0.00    +0.096 C 
BRANCH  55  56
ATOM     56  S   UNL     1       4.303   4.355  24.699  0.00  0.00    -0.086 S 
BRANCH  56  57
ATOM     57  C   UNL     1       4.492   6.066  24.302  0.00  0.00    +0.199 C 
ATOM     58  O   UNL     1       3.653   6.667  23.640  0.00  0.00    -0.284 OA
BRANCH  57  59
ATOM     59  C   UNL     1       5.754   6.717  24.821  0.00  0.00    +0.155 C 
BRANCH  59  60
ATOM     60  S   UNL     1       7.082   6.724  23.574  0.00  0.00    -0.152 S 
BRANCH  60  61
ATOM     61  C   UNL     1       8.553   6.849  24.654  0.00  0.00    +0.069 C 
BRANCH  61  62
ATOM     62  C   UNL     1       9.803   6.687  23.788  0.00  0.00    +0.011 C 
BRANCH  62  63
ATOM     63  C   UNL     1      10.758   5.621  24.331  0.00  0.00    +0.001 C 
BRANCH  63  65
ATOM     64  C   UNL     1      12.818   5.049  22.973  0.00  0.00    +0.004 C 
ATOM     65  C   UNL     1      12.210   5.985  24.004  0.00  0.00    -0.003 C 
ENDBRANCH  63  65
ENDBRANCH  62  63
ENDBRANCH  61  62
ENDBRANCH  60  61
ENDBRANCH  59  60
ENDBRANCH  57  59
ENDBRANCH  56  57
ENDBRANCH  55  56
ENDBRANCH  54  55
ENDBRANCH  50  54
ENDBRANCH  49  52
ENDBRANCH  48  49
ENDBRANCH  44  48
ENDBRANCH  43  46
BRANCH  43  66
ATOM     66  O   UNL     1      10.568  -2.738  23.353  0.00  0.00    -0.382 OA
ATOM     67  H   UNL     1      10.654  -3.372  22.624  0.00  0.00    +0.210 HD
ENDBRANCH  43  66
ENDBRANCH  40  43
ENDBRANCH  39  40
ENDBRANCH  38  39
ENDBRANCH   1  38
TORSDOF 32
ENDMDL
MODEL 4
REMARK VINA RESULT:      -5.3      3.217      7.604
REMARK  Name = 
REMARK  35 active torsions:
REMARK  status: ('A' for Active; 'I' for Inactive)
REMARK    1  A    between atoms: C_1  and  C_2
REMARK    2  A    between atoms: C_2  and  C_3
REMARK    3  A    between atoms: C_3  and  C_4
REMARK    4  A    between atoms: C_4  and  C_5
REMARK    5  A    between atoms: C_5  and  S_6
REMARK    6  A    between atoms: S_6  and  C_7
REMARK    7  A    between atoms: C_7  and  C_8
REMARK    8  A    between atoms: C_8  and  S_10
REMARK    9  A    between atoms: S_10  and  C_11
REMARK   10  A    between atoms: C_11  and  C_12
REMARK   11  A    between atoms: C_12  and  N_13
REMARK   12  A    between atoms: C_14  and  C_16
REMARK   13  A    between atoms: C_16  and  C_17
REMARK   14  A    between atoms: C_17  and  N_18
REMARK   15  A    between atoms: C_19  and  C_21
REMARK   16  A    between atoms: C_21  and  O_23
REMARK   17  A    between atoms: C_21  and  C_24
REMARK   18  A    between atoms: C_24  and  C_25
REMARK   19  A    between atoms: C_24  and  C_26
REMARK   20  A    between atoms: C_24  and  C_27
REMARK   21  A    between atoms: C_27  and  O_28
REMARK   22  A    between atoms: O_28  and  P_29
REMARK   23  A    between atoms: P_29  and  O_30
REMARK   24  A    between atoms: P_29  and  O_32
REMARK   25  A    between atoms: O_32  and  P_33
REMARK   26  A    between atoms: P_33  and  O_34
REMARK   27  A    between atoms: P_33  and  O_36
REMARK   28  A    between atoms: O_36  and  C_37
REMARK   29  A    between atoms: C_37  and  C_38
REMARK   30  A    between atoms: C_41  and  N_53
REMARK   31  A    between atoms: C_43  and  O_45
REMARK   32  A    between atoms: C_46  and  O_48
REMARK   33  A    between atoms: O_48  and  P_49
REMARK   34  A    between atoms: P_49  and  O_50
REMARK   35  A    between atoms: P_49  and  O_51
REMARK                            x       y       z     vdW  Elec       q    Type
REMARK                         _______ _______ _______ _____ _____    ______ ____
ROOT
ATOM      1  P   UNL     1       8.821  -5.319  25.167  0.00  0.00    +0.483 P 
ATOM      2  O   UNL     1       8.898  -6.006  23.800  0.00  0.00    -0.227 OA
ENDROOT
BRANCH   1   3
ATOM      3  O   UNL     1      10.548  -5.227  25.125  0.00  0.00    -0.302 OA
ATOM      4  H   UNL     1      10.715  -5.194  24.159  0.00  0.00    +0.222 HD
ENDBRANCH   1   3
BRANCH   1   5
ATOM      5  O   UNL     1       7.094  -5.412  25.210  0.00  0.00    -0.186 OA
BRANCH   5   6
ATOM      6  P   UNL     1       6.548  -5.246  26.843  0.00  0.00    +0.483 P 
ATOM      7  O   UNL     1       7.901  -5.664  27.412  0.00  0.00    -0.227 OA
BRANCH   6   8
ATOM      8  O   UNL     1       5.658  -6.606  26.750  0.00  0.00    -0.302 OA
ATOM      9  H   UNL     1       5.781  -7.056  25.894  0.00  0.00    +0.222 HD
ENDBRANCH   6   8
BRANCH   6  10
ATOM     10  O   UNL     1       6.000  -5.079  28.475  0.00  0.00    -0.284 OA
BRANCH  10  11
ATOM     11  C   UNL     1       4.990  -4.085  28.610  0.00  0.00    +0.206 C 
BRANCH  11  12
ATOM     12  C   UNL     1       4.862  -3.180  27.371  0.00  0.00    +0.179 C 
ATOM     13  C   UNL     1       3.434  -2.986  26.875  0.00  0.00    +0.194 C 
ATOM     14  C   UNL     1       3.025  -1.601  27.341  0.00  0.00    +0.196 C 
ATOM     15  C   UNL     1       4.271  -1.041  28.038  0.00  0.00    +0.253 C 
ATOM     16  O   UNL     1       5.385  -1.869  27.657  0.00  0.00    -0.346 OA
BRANCH  15  17
ATOM     17  N   UNL     1       4.531   0.340  27.650  0.00  0.00    -0.286 N 
ATOM     18  C   UNL     1       5.493   1.130  28.225  0.00  0.00    +0.167 A 
ATOM     19  N   UNL     1       6.365   0.781  29.186  0.00  0.00    -0.216 NA
ATOM     20  C   UNL     1       7.159   1.830  29.499  0.00  0.00    +0.225 A 
ATOM     21  N   UNL     1       7.138   3.081  28.993  0.00  0.00    -0.219 NA
ATOM     22  C   UNL     1       6.215   3.384  28.054  0.00  0.00    +0.147 A 
ATOM     23  N   UNL     1       6.190   4.681  27.558  0.00  0.00    -0.341 N 
ATOM     24  H   UNL     1       5.740   4.770  26.654  0.00  0.00    +0.144 HD
ATOM     25  H   UNL     1       7.065   5.169  27.704  0.00  0.00    +0.144 HD
ATOM     26  C   UNL     1       5.351   2.364  27.615  0.00  0.00    +0.147 A 
ATOM     27  N   UNL     1       4.341   2.332  26.674  0.00  0.00    -0.231 NA
ATOM     28  C   UNL     1       3.871   1.101  26.725  0.00  0.00    +0.203 A 
ENDBRANCH  15  17
BRANCH  14  29
ATOM     29  O   UNL     1       1.869  -1.700  28.177  0.00  0.00    -0.385 OA
ATOM     30  H   UNL     1       2.190  -1.669  29.102  0.00  0.00    +0.210 HD
ENDBRANCH  14  29
BRANCH  13  31
ATOM     31  O   UNL     1       3.473  -3.041  25.442  0.00  0.00    -0.278 OA
BRANCH  31  32
ATOM     32  P   UNL     1       2.987  -4.356  24.668  0.00  0.00    +0.473 P 
ATOM     33  O   UNL     1       3.182  -5.645  25.387  0.00  0.00    -0.228 OA
BRANCH  32  34
ATOM     34  O   UNL     1       3.690  -4.257  23.244  0.00  0.00    -0.303 OA
ATOM     35  H   UNL     1       4.552  -4.718  23.220  0.00  0.00    +0.222 HD
ENDBRANCH  32  34
BRANCH  32  36
ATOM     36  O   UNL     1       1.466  -3.993  24.355  0.00  0.00    -0.303 OA
ATOM     37  H   UNL     1       1.069  -4.632  23.738  0.00  0.00    +0.222 HD
ENDBRANCH  32  36
ENDBRANCH  31  32
ENDBRANCH  13  31
ENDBRANCH  11  12
ENDBRANCH  10  11
ENDBRANCH   6  10
ENDBRANCH   5   6
ENDBRANCH   1   5
BRANCH   1  38
ATOM     38  O   UNL     1       8.747  -3.698  24.906  0.00  0.00    -0.286 OA
BRANCH  38  39
ATOM     39  C   UNL     1       9.082  -2.756  25.918  0.00  0.00    +0.181 C 
BRANCH  39  40
ATOM     40  C   UNL     1       8.792  -1.253  25.641  0.00  0.00    +0.024 C 
ATOM     41  C   UNL     1       7.372  -1.046  25.066  0.00  0.00    +0.016 C 
ATOM     42  C   UNL     1       8.781  -0.508  26.998  0.00  0.00    +0.016 C 
BRANCH  40  43
ATOM     43  C   UNL     1       9.832  -0.592  24.693  0.00  0.00    +0.208 C 
BRANCH  43  46
ATOM     44  N   UNL     1       9.038   1.049  23.024  0.00  0.00    -0.313 N 
ATOM     45  H   UNL     1       9.154   1.732  23.759  0.00  0.00    +0.149 HD
ATOM     46  C   UNL     1       9.285  -0.289  23.270  0.00  0.00    +0.242 C 
ATOM     47  O   UNL     1       9.103  -1.135  22.403  0.00  0.00    -0.273 OA
BRANCH  44  48
ATOM     48  C   UNL     1       8.447   1.461  21.762  0.00  0.00    +0.113 C 
BRANCH  48  49
ATOM     49  C   UNL     1       7.836   2.855  21.814  0.00  0.00    +0.114 C 
BRANCH  49  52
ATOM     50  N   UNL     1       5.502   3.533  21.961  0.00  0.00    -0.314 N 
ATOM     51  H   UNL     1       5.741   4.210  21.244  0.00  0.00    +0.149 HD
ATOM     52  C   UNL     1       6.512   2.802  22.546  0.00  0.00    +0.215 C 
ATOM     53  O   UNL     1       6.366   2.132  23.565  0.00  0.00    -0.276 OA
BRANCH  50  54
ATOM     54  C   UNL     1       4.155   3.544  22.507  0.00  0.00    +0.115 C 
BRANCH  54  55
ATOM     55  C   UNL     1       3.892   4.698  23.479  0.00  0.00    +0.096 C 
BRANCH  55  56
ATOM     56  S   UNL     1       4.259   6.324  22.735  0.00  0.00    -0.086 S 
BRANCH  56  57
ATOM     57  C   UNL     1       5.998   6.392  23.038  0.00  0.00    +0.199 C 
ATOM     58  O   UNL     1       6.803   6.527  22.124  0.00  0.00    -0.284 OA
BRANCH  57  59
ATOM     59  C   UNL     1       6.410   6.257  24.487  0.00  0.00    +0.155 C 
BRANCH  59  60
ATOM     60  S   UNL     1       7.985   7.107  24.831  0.00  0.00    -0.152 S 
BRANCH  60  61
ATOM     61  C   UNL     1       9.151   5.702  24.721  0.00  0.00    +0.069 C 
BRANCH  61  62
ATOM     62  C   UNL     1      10.101   5.954  23.549  0.00  0.00    +0.011 C 
BRANCH  62  63
ATOM     63  C   UNL     1      11.572   5.934  23.974  0.00  0.00    +0.001 C 
BRANCH  63  65
ATOM     64  C   UNL     1      13.352   5.601  22.204  0.00  0.00    +0.004 C 
ATOM     65  C   UNL     1      12.359   4.924  23.133  0.00  0.00    -0.003 C 
ENDBRANCH  63  65
ENDBRANCH  62  63
ENDBRANCH  61  62
ENDBRANCH  60  61
ENDBRANCH  59  60
ENDBRANCH  57  59
ENDBRANCH  56  57
ENDBRANCH  55  56
ENDBRANCH  54  55
ENDBRANCH  50  54
ENDBRANCH  49  52
ENDBRANCH  48  49
ENDBRANCH  44  48
ENDBRANCH  43  46
BRANCH  43  66
ATOM     66  O   UNL     1      10.393   0.577  25.291  0.00  0.00    -0.382 OA
ATOM     67  H   UNL     1      11.347   0.574  25.114  0.00  0.00    +0.210 HD
ENDBRANCH  43  66
ENDBRANCH  40  43
ENDBRANCH  39  40
ENDBRANCH  38  39
ENDBRANCH   1  38
TORSDOF 32
ENDMDL
MODEL 5
REMARK VINA RESULT:      -5.3      3.391      7.597
REMARK  Name = 
REMARK  35 active torsions:
REMARK  status: ('A' for Active; 'I' for Inactive)
REMARK    1  A    between atoms: C_1  and  C_2
REMARK    2  A    between atoms: C_2  and  C_3
REMARK    3  A    between atoms: C_3  and  C_4
REMARK    4  A    between atoms: C_4  and  C_5
REMARK    5  A    between atoms: C_5  and  S_6
REMARK    6  A    between atoms: S_6  and  C_7
REMARK    7  A    between atoms: C_7  and  C_8
REMARK    8  A    between atoms: C_8  and  S_10
REMARK    9  A    between atoms: S_10  and  C_11
REMARK   10  A    between atoms: C_11  and  C_12
REMARK   11  A    between atoms: C_12  and  N_13
REMARK   12  A    between atoms: C_14  and  C_16
REMARK   13  A    between atoms: C_16  and  C_17
REMARK   14  A    between atoms: C_17  and  N_18
REMARK   15  A    between atoms: C_19  and  C_21
REMARK   16  A    between atoms: C_21  and  O_23
REMARK   17  A    between atoms: C_21  and  C_24
REMARK   18  A    between atoms: C_24  and  C_25
REMARK   19  A    between atoms: C_24  and  C_26
REMARK   20  A    between atoms: C_24  and  C_27
REMARK   21  A    between atoms: C_27  and  O_28
REMARK   22  A    between atoms: O_28  and  P_29
REMARK   23  A    between atoms: P_29  and  O_30
REMARK   24  A    between atoms: P_29  and  O_32
REMARK   25  A    between atoms: O_32  and  P_33
REMARK   26  A    between atoms: P_33  and  O_34
REMARK   27  A    between atoms: P_33  and  O_36
REMARK   28  A    between atoms: O_36  and  C_37
REMARK   29  A    between atoms: C_37  and  C_38
REMARK   30  A    between atoms: C_41  and  N_53
REMARK   31  A    between atoms: C_43  and  O_45
REMARK   32  A    between atoms: C_46  and  O_48
REMARK   33  A    between atoms: O_48  and  P_49
REMARK   34  A    between atoms: P_49  and  O_50
REMARK   35  A    between atoms: P_49  and  O_51
REMARK                            x       y       z     vdW  Elec       q    Type
REMARK                         _______ _______ _______ _____ _____    ______ ____
ROOT
ATOM      1  P   UNL     1       6.242  -5.219  21.979  0.00  0.00    +0.483 P 
ATOM      2  O   UNL     1       5.899  -5.673  20.557  0.00  0.00    -0.227 OA
ENDROOT
BRANCH   1   3
ATOM      3  O   UNL     1       7.828  -5.854  21.709  0.00  0.00    -0.302 OA
ATOM      4  H   UNL     1       7.878  -5.835  20.730  0.00  0.00    +0.222 HD
ENDBRANCH   1   3
BRANCH   1   5
ATOM      5  O   UNL     1       4.655  -4.586  22.250  0.00  0.00    -0.186 OA
BRANCH   5   6
ATOM      6  P   UNL     1       4.013  -5.244  23.715  0.00  0.00    +0.483 P 
ATOM      7  O   UNL     1       5.399  -5.608  24.240  0.00  0.00    -0.227 OA
BRANCH   6   8
ATOM      8  O   UNL     1       3.457  -6.569  22.951  0.00  0.00    -0.302 OA
ATOM      9  H   UNL     1       4.163  -7.013  22.445  0.00  0.00    +0.222 HD
ENDBRANCH   6   8
BRANCH   6  10
ATOM     10  O   UNL     1       3.370  -5.902  25.180  0.00  0.00    -0.284 OA
BRANCH  10  11
ATOM     11  C   UNL     1       2.399  -5.049  25.777  0.00  0.00    +0.206 C 
BRANCH  11  12
ATOM     12  C   UNL     1       2.817  -4.533  27.165  0.00  0.00    +0.179 C 
ATOM     13  C   UNL     1       4.243  -4.887  27.569  0.00  0.00    +0.194 C 
ATOM     14  C   UNL     1       5.048  -3.616  27.378  0.00  0.00    +0.196 C 
ATOM     15  C   UNL     1       4.024  -2.569  26.927  0.00  0.00    +0.253 C 
ATOM     16  O   UNL     1       2.715  -3.097  27.214  0.00  0.00    -0.346 OA
BRANCH  15  17
ATOM     17  N   UNL     1       4.204  -1.301  27.623  0.00  0.00    -0.286 N 
ATOM     18  C   UNL     1       4.572  -0.133  27.006  0.00  0.00    +0.167 A 
ATOM     19  N   UNL     1       4.786   0.062  25.694  0.00  0.00    -0.216 NA
ATOM     20  C   UNL     1       5.136   1.348  25.463  0.00  0.00    +0.225 A 
ATOM     21  N   UNL     1       5.292   2.349  26.355  0.00  0.00    -0.219 NA
ATOM     22  C   UNL     1       5.097   2.085  27.666  0.00  0.00    +0.147 A 
ATOM     23  N   UNL     1       5.283   3.119  28.574  0.00  0.00    -0.341 N 
ATOM     24  H   UNL     1       4.812   2.980  29.462  0.00  0.00    +0.144 HD
ATOM     25  H   UNL     1       5.221   4.031  28.141  0.00  0.00    +0.144 HD
ATOM     26  C   UNL     1       4.693   0.788  28.032  0.00  0.00    +0.147 A 
ATOM     27  N   UNL     1       4.389   0.209  29.247  0.00  0.00    -0.231 NA
ATOM     28  C   UNL     1       4.103  -1.046  28.963  0.00  0.00    +0.203 A 
ENDBRANCH  15  17
BRANCH  14  29
ATOM     29  O   UNL     1       6.106  -3.856  26.447  0.00  0.00    -0.385 OA
ATOM     30  H   UNL     1       5.726  -4.404  25.729  0.00  0.00    +0.210 HD
ENDBRANCH  14  29
BRANCH  13  31
ATOM     31  O   UNL     1       4.211  -5.258  28.955  0.00  0.00    -0.278 OA
BRANCH  31  32
ATOM     32  P   UNL     1       5.153  -6.431  29.503  0.00  0.00    +0.473 P 
ATOM     33  O   UNL     1       6.430  -5.999  30.136  0.00  0.00    -0.228 OA
BRANCH  32  34
ATOM     34  O   UNL     1       5.306  -7.422  28.268  0.00  0.00    -0.303 OA
ATOM     35  H   UNL     1       5.311  -8.361  28.540  0.00  0.00    +0.222 HD
ENDBRANCH  32  34
BRANCH  32  36
ATOM     36  O   UNL     1       4.157  -7.205  30.478  0.00  0.00    -0.303 OA
ATOM     37  H   UNL     1       4.252  -8.169  30.389  0.00  0.00    +0.222 HD
ENDBRANCH  32  36
ENDBRANCH  31  32
ENDBRANCH  13  31
ENDBRANCH  11  12
ENDBRANCH  10  11
ENDBRANCH   6  10
ENDBRANCH   5   6
ENDBRANCH   1   5
BRANCH   1  38
ATOM     38  O   UNL     1       6.854  -3.697  21.881  0.00  0.00    -0.286 OA
BRANCH  38  39
ATOM     39  C   UNL     1       8.012  -3.302  22.610  0.00  0.00    +0.181 C 
BRANCH  39  40
ATOM     40  C   UNL     1       8.084  -1.837  23.127  0.00  0.00    +0.024 C 
ATOM     41  C   UNL     1       6.702  -1.146  23.068  0.00  0.00    +0.016 C 
ATOM     42  C   UNL     1       8.443  -1.876  24.632  0.00  0.00    +0.016 C 
BRANCH  40  43
ATOM     43  C   UNL     1       9.125  -0.969  22.366  0.00  0.00    +0.208 C 
BRANCH  43  46
ATOM     44  N   UNL     1       9.005   1.287  23.370  0.00  0.00    -0.313 N 
ATOM     45  H   UNL     1       8.130   1.373  22.872  0.00  0.00    +0.149 HD
ATOM     46  C   UNL     1       9.773   0.145  23.235  0.00  0.00    +0.242 C 
ATOM     47  O   UNL     1      10.858   0.045  23.793  0.00  0.00    -0.273 OA
BRANCH  44  48
ATOM     48  C   UNL     1       9.527   2.437  24.087  0.00  0.00    +0.113 C 
BRANCH  48  49
ATOM     49  C   UNL     1       8.440   3.281  24.740  0.00  0.00    +0.114 C 
BRANCH  49  52
ATOM     50  N   UNL     1       6.409   4.488  24.156  0.00  0.00    -0.314 N 
ATOM     51  H   UNL     1       6.156   4.367  25.131  0.00  0.00    +0.149 HD
ATOM     52  C   UNL     1       7.523   3.840  23.672  0.00  0.00    +0.215 C 
ATOM     53  O   UNL     1       7.786   3.734  22.478  0.00  0.00    -0.276 OA
BRANCH  50  54
ATOM     54  C   UNL     1       5.455   5.130  23.266  0.00  0.00    +0.115 C 
BRANCH  54  55
ATOM     55  C   UNL     1       4.034   5.203  23.834  0.00  0.00    +0.096 C 
BRANCH  55  56
ATOM     56  S   UNL     1       2.766   5.182  22.521  0.00  0.00    -0.086 S 
BRANCH  56  57
ATOM     57  C   UNL     1       2.364   3.462  22.540  0.00  0.00    +0.199 C 
ATOM     58  O   UNL     1       2.552   2.770  23.533  0.00  0.00    -0.284 OA
BRANCH  57  59
ATOM     59  C   UNL     1       1.791   2.915  21.251  0.00  0.00    +0.155 C 
BRANCH  59  60
ATOM     60  S   UNL     1       1.011   4.217  20.243  0.00  0.00    -0.152 S 
BRANCH  60  61
ATOM     61  C   UNL     1       1.903   3.993  18.662  0.00  0.00    +0.069 C 
BRANCH  61  62
ATOM     62  C   UNL     1       1.162   4.775  17.576  0.00  0.00    +0.011 C 
BRANCH  62  63
ATOM     63  C   UNL     1       1.888   6.066  17.186  0.00  0.00    +0.001 C 
BRANCH  63  65
ATOM     64  C   UNL     1       2.384   4.990  14.948  0.00  0.00    +0.004 C 
ATOM     65  C   UNL     1       1.895   6.238  15.664  0.00  0.00    -0.003 C 
ENDBRANCH  63  65
ENDBRANCH  62  63
ENDBRANCH  61  62
ENDBRANCH  60  61
ENDBRANCH  59  60
ENDBRANCH  57  59
ENDBRANCH  56  57
ENDBRANCH  55  56
ENDBRANCH  54  55
ENDBRANCH  50  54
ENDBRANCH  49  52
ENDBRANCH  48  49
ENDBRANCH  44  48
ENDBRANCH  43  46
BRANCH  43  66
ATOM     66  O   UNL     1      10.119  -1.791  21.753  0.00  0.00    -0.382 OA
ATOM     67  H   UNL     1      10.967  -1.321  21.804  0.00  0.00    +0.210 HD
ENDBRANCH  43  66
ENDBRANCH  40  43
ENDBRANCH  39  40
ENDBRANCH  38  39
ENDBRANCH   1  38
TORSDOF 32
ENDMDL
MODEL 6
REMARK VINA RESULT:      -5.1      2.951      8.499
REMARK  Name = 
REMARK  35 active torsions:
REMARK  status: ('A' for Active; 'I' for Inactive)
REMARK    1  A    between atoms: C_1  and  C_2
REMARK    2  A    between atoms: C_2  and  C_3
REMARK    3  A    between atoms: C_3  and  C_4
REMARK    4  A    between atoms: C_4  and  C_5
REMARK    5  A    between atoms: C_5  and  S_6
REMARK    6  A    between atoms: S_6  and  C_7
REMARK    7  A    between atoms: C_7  and  C_8
REMARK    8  A    between atoms: C_8  and  S_10
REMARK    9  A    between atoms: S_10  and  C_11
REMARK   10  A    between atoms: C_11  and  C_12
REMARK   11  A    between atoms: C_12  and  N_13
REMARK   12  A    between atoms: C_14  and  C_16
REMARK   13  A    between atoms: C_16  and  C_17
REMARK   14  A    between atoms: C_17  and  N_18
REMARK   15  A    between atoms: C_19  and  C_21
REMARK   16  A    between atoms: C_21  and  O_23
REMARK   17  A    between atoms: C_21  and  C_24
REMARK   18  A    between atoms: C_24  and  C_25
REMARK   19  A    between atoms: C_24  and  C_26
REMARK   20  A    between atoms: C_24  and  C_27
REMARK   21  A    between atoms: C_27  and  O_28
REMARK   22  A    between atoms: O_28  and  P_29
REMARK   23  A    between atoms: P_29  and  O_30
REMARK   24  A    between atoms: P_29  and  O_32
REMARK   25  A    between atoms: O_32  and  P_33
REMARK   26  A    between atoms: P_33  and  O_34
REMARK   27  A    between atoms: P_33  and  O_36
REMARK   28  A    between atoms: O_36  and  C_37
REMARK   29  A    between atoms: C_37  and  C_38
REMARK   30  A    between atoms: C_41  and  N_53
REMARK   31  A    between atoms: C_43  and  O_45
REMARK   32  A    between atoms: C_46  and  O_48
REMARK   33  A    between atoms: O_48  and  P_49
REMARK   34  A    between atoms: P_49  and  O_50
REMARK   35  A    between atoms: P_49  and  O_51
REMARK                            x       y       z     vdW  Elec       q    Type
REMARK                         _______ _______ _______ _____ _____    ______ ____
ROOT
ATOM      1  P   UNL     1       9.716  -1.942  23.103  0.00  0.00    +0.483 P 
ATOM      2  O   UNL     1       8.724  -3.037  22.696  0.00  0.00    -0.227 OA
ENDROOT
BRANCH   1   3
ATOM      3  O   UNL     1       9.619  -1.368  21.474  0.00  0.00    -0.302 OA
ATOM      4  H   UNL     1       8.910  -0.694  21.550  0.00  0.00    +0.222 HD
ENDBRANCH   1   3
BRANCH   1   5
ATOM      5  O   UNL     1       9.813  -2.518  24.731  0.00  0.00    -0.186 OA
BRANCH   5   6
ATOM      6  P   UNL     1       8.775  -3.890  24.921  0.00  0.00    +0.483 P 
ATOM      7  O   UNL     1       8.554  -3.604  26.404  0.00  0.00    -0.227 OA
BRANCH   6   8
ATOM      8  O   UNL     1      10.028  -4.927  24.844  0.00  0.00    -0.302 OA
ATOM      9  H   UNL     1      10.484  -4.873  23.983  0.00  0.00    +0.222 HD
ENDBRANCH   6   8
BRANCH   6  10
ATOM     10  O   UNL     1       7.739  -5.261  25.111  0.00  0.00    -0.284 OA
BRANCH  10  11
ATOM     11  C   UNL     1       6.703  -5.031  26.060  0.00  0.00    +0.206 C 
BRANCH  11  12
ATOM     12  C   UNL     1       5.417  -4.468  25.429  0.00  0.00    +0.179 C 
ATOM     13  C   UNL     1       4.165  -5.294  25.699  0.00  0.00    +0.194 C 
ATOM     14  C   UNL     1       3.403  -4.541  26.772  0.00  0.00    +0.196 C 
ATOM     15  C   UNL     1       4.233  -3.277  27.026  0.00  0.00    +0.253 C 
ATOM     16  O   UNL     1       5.157  -3.142  25.930  0.00  0.00    -0.346 OA
BRANCH  15  17
ATOM     17  N   UNL     1       3.395  -2.087  27.109  0.00  0.00    -0.286 N 
ATOM     18  C   UNL     1       3.797  -0.902  27.670  0.00  0.00    +0.167 A 
ATOM     19  N   UNL     1       5.003  -0.616  28.189  0.00  0.00    -0.216 NA
ATOM     20  C   UNL     1       5.024   0.655  28.650  0.00  0.00    +0.225 A 
ATOM     21  N   UNL     1       4.027   1.565  28.651  0.00  0.00    -0.219 NA
ATOM     22  C   UNL     1       2.824   1.209  28.146  0.00  0.00    +0.147 A 
ATOM     23  N   UNL     1       1.801   2.148  28.174  0.00  0.00    -0.341 N 
ATOM     24  H   UNL     1       1.059   1.971  27.505  0.00  0.00    +0.144 HD
ATOM     25  H   UNL     1       2.147   3.095  28.261  0.00  0.00    +0.144 HD
ATOM     26  C   UNL     1       2.686  -0.080  27.601  0.00  0.00    +0.147 A 
ATOM     27  N   UNL     1       1.631  -0.734  26.996  0.00  0.00    -0.231 NA
ATOM     28  C   UNL     1       2.093  -1.937  26.717  0.00  0.00    +0.203 A 
ENDBRANCH  15  17
BRANCH  14  29
ATOM     29  O   UNL     1       3.232  -5.381  27.916  0.00  0.00    -0.385 OA
ATOM     30  H   UNL     1       3.514  -6.280  27.647  0.00  0.00    +0.210 HD
ENDBRANCH  14  29
BRANCH  13  31
ATOM     31  O   UNL     1       3.410  -5.329  24.479  0.00  0.00    -0.278 OA
BRANCH  31  32
ATOM     32  P   UNL     1       3.913  -6.211  23.240  0.00  0.00    +0.473 P 
ATOM     33  O   UNL     1       4.838  -5.532  22.291  0.00  0.00    -0.228 OA
BRANCH  32  34
ATOM     34  O   UNL     1       2.575  -6.783  22.596  0.00  0.00    -0.303 OA
ATOM     35  H   UNL     1       2.728  -7.196  21.723  0.00  0.00    +0.222 HD
ENDBRANCH  32  34
BRANCH  32  36
ATOM     36  O   UNL     1       4.535  -7.476  23.985  0.00  0.00    -0.303 OA
ATOM     37  H   UNL     1       4.398  -8.291  23.473  0.00  0.00    +0.222 HD
ENDBRANCH  32  36
ENDBRANCH  31  32
ENDBRANCH  13  31
ENDBRANCH  11  12
ENDBRANCH  10  11
ENDBRANCH   6  10
ENDBRANCH   5   6
ENDBRANCH   1   5
BRANCH   1  38
ATOM     38  O   UNL     1       8.842  -0.640  23.595  0.00  0.00    -0.286 OA
BRANCH  38  39
ATOM     39  C   UNL     1       9.411   0.389  24.398  0.00  0.00    +0.181 C 
BRANCH  39  40
ATOM     40  C   UNL     1       9.400   1.841  23.841  0.00  0.00    +0.024 C 
ATOM     41  C   UNL     1       8.725   2.822  24.828  0.00  0.00    +0.016 C 
ATOM     42  C   UNL     1      10.866   2.328  23.740  0.00  0.00    +0.016 C 
BRANCH  40  43
ATOM     43  C   UNL     1       8.715   1.959  22.451  0.00  0.00    +0.208 C 
BRANCH  43  46
ATOM     44  N   UNL     1       7.975   4.302  22.181  0.00  0.00    -0.313 N 
ATOM     45  H   UNL     1       8.960   4.522  22.129  0.00  0.00    +0.149 HD
ATOM     46  C   UNL     1       7.562   3.001  22.401  0.00  0.00    +0.242 C 
ATOM     47  O   UNL     1       6.375   2.726  22.515  0.00  0.00    -0.273 OA
BRANCH  44  48
ATOM     48  C   UNL     1       7.008   5.386  22.194  0.00  0.00    +0.113 C 
BRANCH  48  49
ATOM     49  C   UNL     1       7.634   6.744  22.483  0.00  0.00    +0.114 C 
BRANCH  49  52
ATOM     50  N   UNL     1       8.271   6.711  24.833  0.00  0.00    -0.314 N 
ATOM     51  H   UNL     1       7.348   7.097  25.001  0.00  0.00    +0.149 HD
ATOM     52  C   UNL     1       8.714   6.591  23.534  0.00  0.00    +0.215 C 
ATOM     53  O   UNL     1       9.879   6.355  23.230  0.00  0.00    -0.276 OA
BRANCH  50  54
ATOM     54  C   UNL     1       9.168   6.536  25.962  0.00  0.00    +0.115 C 
BRANCH  54  55
ATOM     55  C   UNL     1       8.617   7.089  27.280  0.00  0.00    +0.096 C 
BRANCH  55  56
ATOM     56  S   UNL     1       6.793   7.078  27.323  0.00  0.00    -0.086 S 
BRANCH  56  57
ATOM     57  C   UNL     1       6.531   5.437  27.923  0.00  0.00    +0.199 C 
ATOM     58  O   UNL     1       7.372   4.861  28.602  0.00  0.00    -0.284 OA
BRANCH  57  59
ATOM     59  C   UNL     1       5.215   4.805  27.528  0.00  0.00    +0.155 C 
BRANCH  59  60
ATOM     60  S   UNL     1       5.358   3.829  25.996  0.00  0.00    -0.152 S 
BRANCH  60  61
ATOM     61  C   UNL     1       4.530   4.949  24.810  0.00  0.00    +0.069 C 
BRANCH  61  62
ATOM     62  C   UNL     1       3.389   4.182  24.140  0.00  0.00    +0.011 C 
BRANCH  62  63
ATOM     63  C   UNL     1       2.544   5.073  23.226  0.00  0.00    +0.001 C 
BRANCH  63  65
ATOM     64  C   UNL     1       2.380   3.212  21.516  0.00  0.00    +0.004 C 
ATOM     65  C   UNL     1       2.733   4.669  21.760  0.00  0.00    -0.003 C 
ENDBRANCH  63  65
ENDBRANCH  62  63
ENDBRANCH  61  62
ENDBRANCH  60  61
ENDBRANCH  59  60
ENDBRANCH  57  59
ENDBRANCH  56  57
ENDBRANCH  55  56
ENDBRANCH  54  55
ENDBRANCH  50  54
ENDBRANCH  49  52
ENDBRANCH  48  49
ENDBRANCH  44  48
ENDBRANCH  43  46
BRANCH  43  66
ATOM     66  O   UNL     1       9.681   2.207  21.429  0.00  0.00    -0.382 OA
ATOM     67  H   UNL     1      10.448   2.635  21.841  0.00  0.00    +0.210 HD
ENDBRANCH  43  66
ENDBRANCH  40  43
ENDBRANCH  39  40
ENDBRANCH  38  39
ENDBRANCH   1  38
TORSDOF 32
ENDMDL
MODEL 7
REMARK VINA RESULT:      -5.0      2.521      9.252
REMARK  Name = 
REMARK  35 active torsions:
REMARK  status: ('A' for Active; 'I' for Inactive)
REMARK    1  A    between atoms: C_1  and  C_2
REMARK    2  A    between atoms: C_2  and  C_3
REMARK    3  A    between atoms: C_3  and  C_4
REMARK    4  A    between atoms: C_4  and  C_5
REMARK    5  A    between atoms: C_5  and  S_6
REMARK    6  A    between atoms: S_6  and  C_7
REMARK    7  A    between atoms: C_7  and  C_8
REMARK    8  A    between atoms: C_8  and  S_10
REMARK    9  A    between atoms: S_10  and  C_11
REMARK   10  A    between atoms: C_11  and  C_12
REMARK   11  A    between atoms: C_12  and  N_13
REMARK   12  A    between atoms: C_14  and  C_16
REMARK   13  A    between atoms: C_16  and  C_17
REMARK   14  A    between atoms: C_17  and  N_18
REMARK   15  A    between atoms: C_19  and  C_21
REMARK   16  A    between atoms: C_21  and  O_23
REMARK   17  A    between atoms: C_21  and  C_24
REMARK   18  A    between atoms: C_24  and  C_25
REMARK   19  A    between atoms: C_24  and  C_26
REMARK   20  A    between atoms: C_24  and  C_27
REMARK   21  A    between atoms: C_27  and  O_28
REMARK   22  A    between atoms: O_28  and  P_29
REMARK   23  A    between atoms: P_29  and  O_30
REMARK   24  A    between atoms: P_29  and  O_32
REMARK   25  A    between atoms: O_32  and  P_33
REMARK   26  A    between atoms: P_33  and  O_34
REMARK   27  A    between atoms: P_33  and  O_36
REMARK   28  A    between atoms: O_36  and  C_37
REMARK   29  A    between atoms: C_37  and  C_38
REMARK   30  A    between atoms: C_41  and  N_53
REMARK   31  A    between atoms: C_43  and  O_45
REMARK   32  A    between atoms: C_46  and  O_48
REMARK   33  A    between atoms: O_48  and  P_49
REMARK   34  A    between atoms: P_49  and  O_50
REMARK   35  A    between atoms: P_49  and  O_51
REMARK                            x       y       z     vdW  Elec       q    Type
REMARK                         _______ _______ _______ _____ _____    ______ ____
ROOT
ATOM      1  P   UNL     1       9.820  -1.931  22.991  0.00  0.00    +0.483 P 
ATOM      2  O   UNL     1       8.729  -2.669  22.209  0.00  0.00    -0.227 OA
ENDROOT
BRANCH   1   3
ATOM      3  O   UNL     1      10.109  -1.011  21.555  0.00  0.00    -0.302 OA
ATOM      4  H   UNL     1      10.787  -0.376  21.868  0.00  0.00    +0.222 HD
ENDBRANCH   1   3
BRANCH   1   5
ATOM      5  O   UNL     1       9.531  -2.852  24.427  0.00  0.00    -0.186 OA
BRANCH   5   6
ATOM      6  P   UNL     1       8.175  -3.897  24.179  0.00  0.00    +0.483 P 
ATOM      7  O   UNL     1       7.715  -3.758  25.628  0.00  0.00    -0.227 OA
BRANCH   6   8
ATOM      8  O   UNL     1       9.123  -5.220  24.131  0.00  0.00    -0.302 OA
ATOM      9  H   UNL     1       9.261  -5.527  23.216  0.00  0.00    +0.222 HD
ENDBRANCH   6   8
BRANCH   6  10
ATOM     10  O   UNL     1       6.819  -4.942  23.931  0.00  0.00    -0.284 OA
BRANCH  10  11
ATOM     11  C   UNL     1       6.334  -5.499  25.148  0.00  0.00    +0.206 C 
BRANCH  11  12
ATOM     12  C   UNL     1       4.849  -5.189  25.407  0.00  0.00    +0.179 C 
ATOM     13  C   UNL     1       4.013  -6.395  25.819  0.00  0.00    +0.194 C 
ATOM     14  C   UNL     1       3.813  -6.259  27.317  0.00  0.00    +0.196 C 
ATOM     15  C   UNL     1       4.500  -4.938  27.684  0.00  0.00    +0.253 C 
ATOM     16  O   UNL     1       4.721  -4.214  26.460  0.00  0.00    -0.346 OA
BRANCH  15  17
ATOM     17  N   UNL     1       3.683  -4.137  28.587  0.00  0.00    -0.286 N 
ATOM     18  C   UNL     1       2.583  -3.420  28.194  0.00  0.00    +0.167 A 
ATOM     19  N   UNL     1       2.051  -3.356  26.962  0.00  0.00    -0.216 NA
ATOM     20  C   UNL     1       0.970  -2.544  26.961  0.00  0.00    +0.225 A 
ATOM     21  N   UNL     1       0.443  -1.845  27.988  0.00  0.00    -0.219 NA
ATOM     22  C   UNL     1       1.042  -1.921  29.198  0.00  0.00    +0.147 A 
ATOM     23  N   UNL     1       0.502  -1.178  30.240  0.00  0.00    -0.341 N 
ATOM     24  H   UNL     1       0.755  -1.516  31.163  0.00  0.00    +0.144 HD
ATOM     25  H   UNL     1      -0.463  -0.923  30.075  0.00  0.00    +0.144 HD
ATOM     26  C   UNL     1       2.159  -2.764  29.336  0.00  0.00    +0.147 A 
ATOM     27  N   UNL     1       2.964  -3.084  30.411  0.00  0.00    -0.231 NA
ATOM     28  C   UNL     1       3.870  -3.909  29.923  0.00  0.00    +0.203 A 
ENDBRANCH  15  17
BRANCH  14  29
ATOM     29  O   UNL     1       4.344  -7.411  27.976  0.00  0.00    -0.385 OA
ATOM     30  H   UNL     1       5.307  -7.257  28.075  0.00  0.00    +0.210 HD
ENDBRANCH  14  29
BRANCH  13  31
ATOM     31  O   UNL     1       2.757  -6.293  25.134  0.00  0.00    -0.278 OA
BRANCH  31  32
ATOM     32  P   UNL     1       1.970  -7.613  24.682  0.00  0.00    +0.473 P 
ATOM     33  O   UNL     1       0.504  -7.618  24.941  0.00  0.00    -0.228 OA
BRANCH  32  34
ATOM     34  O   UNL     1       2.785  -8.805  25.349  0.00  0.00    -0.303 OA
ATOM     35  H   UNL     1       3.729  -8.585  25.481  0.00  0.00    +0.222 HD
ENDBRANCH  32  34
BRANCH  32  36
ATOM     36  O   UNL     1       2.373  -7.706  23.142  0.00  0.00    -0.303 OA
ATOM     37  H   UNL     1       1.874  -7.066  22.606  0.00  0.00    +0.222 HD
ENDBRANCH  32  36
ENDBRANCH  31  32
ENDBRANCH  13  31
ENDBRANCH  11  12
ENDBRANCH  10  11
ENDBRANCH   6  10
ENDBRANCH   5   6
ENDBRANCH   1   5
BRANCH   1  38
ATOM     38  O   UNL     1       9.129  -0.607  23.678  0.00  0.00    -0.286 OA
BRANCH  38  39
ATOM     39  C   UNL     1       9.900   0.519  24.085  0.00  0.00    +0.181 C 
BRANCH  39  40
ATOM     40  C   UNL     1       9.408   1.932  23.659  0.00  0.00    +0.024 C 
ATOM     41  C   UNL     1       8.718   2.669  24.831  0.00  0.00    +0.016 C 
ATOM     42  C   UNL     1      10.651   2.793  23.328  0.00  0.00    +0.016 C 
BRANCH  40  43
ATOM     43  C   UNL     1       8.452   1.905  22.435  0.00  0.00    +0.208 C 
BRANCH  43  46
ATOM     44  N   UNL     1       7.951   4.299  22.072  0.00  0.00    -0.313 N 
ATOM     45  H   UNL     1       8.945   4.401  21.923  0.00  0.00    +0.149 HD
ATOM     46  C   UNL     1       7.420   3.068  22.413  0.00  0.00    +0.242 C 
ATOM     47  O   UNL     1       6.225   2.938  22.645  0.00  0.00    -0.273 OA
BRANCH  44  48
ATOM     48  C   UNL     1       7.113   5.485  22.095  0.00  0.00    +0.113 C 
BRANCH  48  49
ATOM     49  C   UNL     1       7.856   6.734  22.550  0.00  0.00    +0.114 C 
BRANCH  49  52
ATOM     50  N   UNL     1       7.770   6.409  24.961  0.00  0.00    -0.314 N 
ATOM     51  H   UNL     1       6.826   6.776  24.892  0.00  0.00    +0.149 HD
ATOM     52  C   UNL     1       8.580   6.449  23.850  0.00  0.00    +0.215 C 
ATOM     53  O   UNL     1       9.791   6.247  23.881  0.00  0.00    -0.276 OA
BRANCH  50  54
ATOM     54  C   UNL     1       8.297   6.093  26.278  0.00  0.00    +0.115 C 
BRANCH  54  55
ATOM     55  C   UNL     1       7.221   5.962  27.360  0.00  0.00    +0.096 C 
BRANCH  55  56
ATOM     56  S   UNL     1       6.770   4.222  27.676  0.00  0.00    -0.086 S 
BRANCH  56  57
ATOM     57  C   UNL     1       5.544   4.011  26.422  0.00  0.00    +0.199 C 
ATOM     58  O   UNL     1       5.153   4.953  25.743  0.00  0.00    -0.284 OA
BRANCH  57  59
ATOM     59  C   UNL     1       5.013   2.604  26.263  0.00  0.00    +0.155 C 
BRANCH  59  60
ATOM     60  S   UNL     1       3.963   2.108  27.667  0.00  0.00    -0.152 S 
BRANCH  60  61
ATOM     61  C   UNL     1       4.907   0.672  28.297  0.00  0.00    +0.069 C 
BRANCH  61  62
ATOM     62  C   UNL     1       4.765  -0.475  27.295  0.00  0.00    +0.011 C 
BRANCH  62  63
ATOM     63  C   UNL     1       6.112  -0.919  26.719  0.00  0.00    +0.001 C 
BRANCH  63  65
ATOM     64  C   UNL     1       8.601  -0.738  27.151  0.00  0.00    +0.004 C 
ATOM     65  C   UNL     1       7.247  -0.061  27.286  0.00  0.00    -0.003 C 
ENDBRANCH  63  65
ENDBRANCH  62  63
ENDBRANCH  61  62
ENDBRANCH  60  61
ENDBRANCH  59  60
ENDBRANCH  57  59
ENDBRANCH  56  57
ENDBRANCH  55  56
ENDBRANCH  54  55
ENDBRANCH  50  54
ENDBRANCH  49  52
ENDBRANCH  48  49
ENDBRANCH  44  48
ENDBRANCH  43  46
BRANCH  43  66
ATOM     66  O   UNL     1       9.191   1.848  21.214  0.00  0.00    -0.382 OA
ATOM     67  H   UNL     1       9.173   0.931  20.897  0.00  0.00    +0.210 HD
ENDBRANCH  43  66
ENDBRANCH  40  43
ENDBRANCH  39  40
ENDBRANCH  38  39
ENDBRANCH   1  38
TORSDOF 32
ENDMDL
MODEL 8
REMARK VINA RESULT:      -5.0      2.776      7.843
REMARK  Name = 
REMARK  35 active torsions:
REMARK  status: ('A' for Active; 'I' for Inactive)
REMARK    1  A    between atoms: C_1  and  C_2
REMARK    2  A    between atoms: C_2  and  C_3
REMARK    3  A    between atoms: C_3  and  C_4
REMARK    4  A    between atoms: C_4  and  C_5
REMARK    5  A    between atoms: C_5  and  S_6
REMARK    6  A    between atoms: S_6  and  C_7
REMARK    7  A    between atoms: C_7  and  C_8
REMARK    8  A    between atoms: C_8  and  S_10
REMARK    9  A    between atoms: S_10  and  C_11
REMARK   10  A    between atoms: C_11  and  C_12
REMARK   11  A    between atoms: C_12  and  N_13
REMARK   12  A    between atoms: C_14  and  C_16
REMARK   13  A    between atoms: C_16  and  C_17
REMARK   14  A    between atoms: C_17  and  N_18
REMARK   15  A    between atoms: C_19  and  C_21
REMARK   16  A    between atoms: C_21  and  O_23
REMARK   17  A    between atoms: C_21  and  C_24
REMARK   18  A    between atoms: C_24  and  C_25
REMARK   19  A    between atoms: C_24  and  C_26
REMARK   20  A    between atoms: C_24  and  C_27
REMARK   21  A    between atoms: C_27  and  O_28
REMARK   22  A    between atoms: O_28  and  P_29
REMARK   23  A    between atoms: P_29  and  O_30
REMARK   24  A    between atoms: P_29  and  O_32
REMARK   25  A    between atoms: O_32  and  P_33
REMARK   26  A    between atoms: P_33  and  O_34
REMARK   27  A    between atoms: P_33  and  O_36
REMARK   28  A    between atoms: O_36  and  C_37
REMARK   29  A    between atoms: C_37  and  C_38
REMARK   30  A    between atoms: C_41  and  N_53
REMARK   31  A    between atoms: C_43  and  O_45
REMARK   32  A    between atoms: C_46  and  O_48
REMARK   33  A    between atoms: O_48  and  P_49
REMARK   34  A    between atoms: P_49  and  O_50
REMARK   35  A    between atoms: P_49  and  O_51
REMARK                            x       y       z     vdW  Elec       q    Type
REMARK                         _______ _______ _______ _____ _____    ______ ____
ROOT
ATOM      1  P   UNL     1       9.119  -4.646  25.155  0.00  0.00    +0.483 P 
ATOM      2  O   UNL     1       8.726  -5.635  24.053  0.00  0.00    -0.227 OA
ENDROOT
BRANCH   1   3
ATOM      3  O   UNL     1      10.722  -5.286  25.042  0.00  0.00    -0.302 OA
ATOM      4  H   UNL     1      10.741  -5.893  25.811  0.00  0.00    +0.222 HD
ENDBRANCH   1   3
BRANCH   1   5
ATOM      5  O   UNL     1       7.515  -4.007  25.268  0.00  0.00    -0.186 OA
BRANCH   5   6
ATOM      6  P   UNL     1       6.776  -4.558  26.732  0.00  0.00    +0.483 P 
ATOM      7  O   UNL     1       8.125  -4.761  27.418  0.00  0.00    -0.227 OA
BRANCH   6   8
ATOM      8  O   UNL     1       6.387  -5.993  26.069  0.00  0.00    -0.302 OA
ATOM      9  H   UNL     1       6.597  -6.733  26.669  0.00  0.00    +0.222 HD
ENDBRANCH   6   8
BRANCH   6  10
ATOM     10  O   UNL     1       6.037  -5.110  28.195  0.00  0.00    -0.284 OA
BRANCH  10  11
ATOM     11  C   UNL     1       4.672  -4.719  28.293  0.00  0.00    +0.206 C 
BRANCH  11  12
ATOM     12  C   UNL     1       4.245  -3.726  27.198  0.00  0.00    +0.179 C 
ATOM     13  C   UNL     1       2.987  -4.125  26.436  0.00  0.00    +0.194 C 
ATOM     14  C   UNL     1       1.878  -3.254  26.993  0.00  0.00    +0.196 C 
ATOM     15  C   UNL     1       2.572  -2.346  28.016  0.00  0.00    +0.253 C 
ATOM     16  O   UNL     1       3.989  -2.430  27.773  0.00  0.00    -0.346 OA
BRANCH  15  17
ATOM     17  N   UNL     1       2.134  -0.961  27.895  0.00  0.00    -0.286 N 
ATOM     18  C   UNL     1       2.594   0.061  28.684  0.00  0.00    +0.167 A 
ATOM     19  N   UNL     1       3.524  -0.013  29.651  0.00  0.00    -0.216 NA
ATOM     20  C   UNL     1       3.713   1.203  30.212  0.00  0.00    +0.225 A 
ATOM     21  N   UNL     1       3.092   2.366  29.925  0.00  0.00    -0.219 NA
ATOM     22  C   UNL     1       2.139   2.372  28.966  0.00  0.00    +0.147 A 
ATOM     23  N   UNL     1       1.492   3.572  28.697  0.00  0.00    -0.341 N 
ATOM     24  H   UNL     1       1.057   3.611  27.782  0.00  0.00    +0.144 HD
ATOM     25  H   UNL     1       2.023   4.376  29.006  0.00  0.00    +0.144 HD
ATOM     26  C   UNL     1       1.876   1.173  28.281  0.00  0.00    +0.147 A 
ATOM     27  N   UNL     1       1.009   0.850  27.256  0.00  0.00    -0.231 NA
ATOM     28  C   UNL     1       1.191  -0.441  27.052  0.00  0.00    +0.203 A 
ENDBRANCH  15  17
BRANCH  14  29
ATOM     29  O   UNL     1       0.846  -4.082  27.535  0.00  0.00    -0.385 OA
ATOM     30  H   UNL     1       0.250  -3.490  28.040  0.00  0.00    +0.210 HD
ENDBRANCH  14  29
BRANCH  13  31
ATOM     31  O   UNL     1       3.216  -3.822  25.052  0.00  0.00    -0.278 OA
BRANCH  31  32
ATOM     32  P   UNL     1       3.574  -4.988  24.014  0.00  0.00    +0.473 P 
ATOM     33  O   UNL     1       2.635  -5.151  22.870  0.00  0.00    -0.228 OA
BRANCH  32  34
ATOM     34  O   UNL     1       3.770  -6.278  24.924  0.00  0.00    -0.303 OA
ATOM     35  H   UNL     1       3.923  -6.054  25.863  0.00  0.00    +0.222 HD
ENDBRANCH  32  34
BRANCH  32  36
ATOM     36  O   UNL     1       5.063  -4.596  23.601  0.00  0.00    -0.303 OA
ATOM     37  H   UNL     1       5.351  -3.780  24.047  0.00  0.00    +0.222 HD
ENDBRANCH  32  36
ENDBRANCH  31  32
ENDBRANCH  13  31
ENDBRANCH  11  12
ENDBRANCH  10  11
ENDBRANCH   6  10
ENDBRANCH   5   6
ENDBRANCH   1   5
BRANCH   1  38
ATOM     38  O   UNL     1       9.638  -3.268  24.424  0.00  0.00    -0.286 OA
BRANCH  38  39
ATOM     39  C   UNL     1       9.031  -2.006  24.679  0.00  0.00    +0.181 C 
BRANCH  39  40
ATOM     40  C   UNL     1       9.032  -0.951  23.536  0.00  0.00    +0.024 C 
ATOM     41  C   UNL     1       9.764  -1.477  22.279  0.00  0.00    +0.016 C 
ATOM     42  C   UNL     1       7.569  -0.735  23.079  0.00  0.00    +0.016 C 
BRANCH  40  43
ATOM     43  C   UNL     1       9.652   0.410  23.959  0.00  0.00    +0.208 C 
BRANCH  43  46
ATOM     44  N   UNL     1       8.491   2.460  23.208  0.00  0.00    -0.313 N 
ATOM     45  H   UNL     1       7.911   2.333  24.025  0.00  0.00    +0.149 HD
ATOM     46  C   UNL     1       9.476   1.539  22.903  0.00  0.00    +0.242 C 
ATOM     47  O   UNL     1      10.155   1.652  21.891  0.00  0.00    -0.273 OA
BRANCH  44  48
ATOM     48  C   UNL     1       8.167   3.518  22.267  0.00  0.00    +0.113 C 
BRANCH  48  49
ATOM     49  C   UNL     1       6.945   4.330  22.676  0.00  0.00    +0.114 C 
BRANCH  49  52
ATOM     50  N   UNL     1       4.540   4.190  22.331  0.00  0.00    -0.314 N 
ATOM     51  H   UNL     1       4.542   5.191  22.500  0.00  0.00    +0.149 HD
ATOM     52  C   UNL     1       5.700   3.479  22.538  0.00  0.00    +0.215 C 
ATOM     53  O   UNL     1       5.750   2.254  22.584  0.00  0.00    -0.276 OA
BRANCH  50  54
ATOM     54  C   UNL     1       3.265   3.524  22.123  0.00  0.00    +0.115 C 
BRANCH  54  55
ATOM     55  C   UNL     1       2.439   3.357  23.402  0.00  0.00    +0.096 C 
BRANCH  55  56
ATOM     56  S   UNL     1       3.122   4.319  24.794  0.00  0.00    -0.086 S 
BRANCH  56  57
ATOM     57  C   UNL     1       3.934   3.017  25.670  0.00  0.00    +0.199 C 
ATOM     58  O   UNL     1       3.749   1.840  25.385  0.00  0.00    -0.284 OA
BRANCH  57  59
ATOM     59  C   UNL     1       4.848   3.461  26.791  0.00  0.00    +0.155 C 
BRANCH  59  60
ATOM     60  S   UNL     1       6.605   3.361  26.319  0.00  0.00    -0.152 S 
BRANCH  60  61
ATOM     61  C   UNL     1       7.235   4.914  27.050  0.00  0.00    +0.069 C 
BRANCH  61  62
ATOM     62  C   UNL     1       7.515   5.902  25.917  0.00  0.00    +0.011 C 
BRANCH  62  63
ATOM     63  C   UNL     1       9.003   6.238  25.787  0.00  0.00    +0.001 C 
BRANCH  63  65
ATOM     64  C   UNL     1      10.519   5.979  23.775  0.00  0.00    +0.004 C 
ATOM     65  C   UNL     1       9.325   6.710  24.366  0.00  0.00    -0.003 C 
ENDBRANCH  63  65
ENDBRANCH  62  63
ENDBRANCH  61  62
ENDBRANCH  60  61
ENDBRANCH  59  60
ENDBRANCH  57  59
ENDBRANCH  56  57
ENDBRANCH  55  56
ENDBRANCH  54  55
ENDBRANCH  50  54
ENDBRANCH  49  52
ENDBRANCH  48  49
ENDBRANCH  44  48
ENDBRANCH  43  46
BRANCH  43  66
ATOM     66  O   UNL     1       9.160   0.817  25.236  0.00  0.00    -0.382 OA
ATOM     67  H   UNL     1       8.566   0.122  25.562  0.00  0.00    +0.210 HD
ENDBRANCH  43  66
ENDBRANCH  40  43
ENDBRANCH  39  40
ENDBRANCH  38  39
ENDBRANCH   1  38
TORSDOF 32
ENDMDL
MODEL 9
REMARK VINA RESULT:      -4.9      2.901      5.625
REMARK  Name = 
REMARK  35 active torsions:
REMARK  status: ('A' for Active; 'I' for Inactive)
REMARK    1  A    between atoms: C_1  and  C_2
REMARK    2  A    between atoms: C_2  and  C_3
REMARK    3  A    between atoms: C_3  and  C_4
REMARK    4  A    between atoms: C_4  and  C_5
REMARK    5  A    between atoms: C_5  and  S_6
REMARK    6  A    between atoms: S_6  and  C_7
REMARK    7  A    between atoms: C_7  and  C_8
REMARK    8  A    between atoms: C_8  and  S_10
REMARK    9  A    between atoms: S_10  and  C_11
REMARK   10  A    between atoms: C_11  and  C_12
REMARK   11  A    between atoms: C_12  and  N_13
REMARK   12  A    between atoms: C_14  and  C_16
REMARK   13  A    between atoms: C_16  and  C_17
REMARK   14  A    between atoms: C_17  and  N_18
REMARK   15  A    between atoms: C_19  and  C_21
REMARK   16  A    between atoms: C_21  and  O_23
REMARK   17  A    between atoms: C_21  and  C_24
REMARK   18  A    between atoms: C_24  and  C_25
REMARK   19  A    between atoms: C_24  and  C_26
REMARK   20  A    between atoms: C_24  and  C_27
REMARK   21  A    between atoms: C_27  and  O_28
REMARK   22  A    between atoms: O_28  and  P_29
REMARK   23  A    between atoms: P_29  and  O_30
REMARK   24  A    between atoms: P_29  and  O_32
REMARK   25  A    between atoms: O_32  and  P_33
REMARK   26  A    between atoms: P_33  and  O_34
REMARK   27  A    between atoms: P_33  and  O_36
REMARK   28  A    between atoms: O_36  and  C_37
REMARK   29  A    between atoms: C_37  and  C_38
REMARK   30  A    between atoms: C_41  and  N_53
REMARK   31  A    between atoms: C_43  and  O_45
REMARK   32  A    between atoms: C_46  and  O_48
REMARK   33  A    between atoms: O_48  and  P_49
REMARK   34  A    between atoms: P_49  and  O_50
REMARK   35  A    between atoms: P_49  and  O_51
REMARK                            x       y       z     vdW  Elec       q    Type
REMARK                         _______ _______ _______ _____ _____    ______ ____
ROOT
ATOM      1  P   UNL     1       3.816  -6.829  24.936  0.00  0.00    +0.483 P 
ATOM      2  O   UNL     1       3.315  -8.275  24.879  0.00  0.00    -0.227 OA
ENDROOT
BRANCH   1   3
ATOM      3  O   UNL     1       2.671  -6.570  26.206  0.00  0.00    -0.302 OA
ATOM      4  H   UNL     1       2.982  -5.717  26.574  0.00  0.00    +0.222 HD
ENDBRANCH   1   3
BRANCH   1   5
ATOM      5  O   UNL     1       4.961  -7.088  23.665  0.00  0.00    -0.186 OA
BRANCH   5   6
ATOM      6  P   UNL     1       5.234  -5.601  22.823  0.00  0.00    +0.483 P 
ATOM      7  O   UNL     1       3.740  -5.307  22.715  0.00  0.00    -0.227 OA
BRANCH   6   8
ATOM      8  O   UNL     1       5.641  -6.379  21.452  0.00  0.00    -0.302 OA
ATOM      9  H   UNL     1       5.009  -6.191  20.733  0.00  0.00    +0.222 HD
ENDBRANCH   6   8
BRANCH   6  10
ATOM     10  O   UNL     1       5.508  -4.115  21.981  0.00  0.00    -0.284 OA
BRANCH  10  11
ATOM     11  C   UNL     1       5.281  -2.976  22.804  0.00  0.00    +0.206 C 
BRANCH  11  12
ATOM     12  C   UNL     1       6.543  -2.504  23.548  0.00  0.00    +0.179 C 
ATOM     13  C   UNL     1       7.303  -1.380  22.855  0.00  0.00    +0.194 C 
ATOM     14  C   UNL     1       6.956  -0.119  23.622  0.00  0.00    +0.196 C 
ATOM     15  C   UNL     1       6.051  -0.594  24.765  0.00  0.00    +0.253 C 
ATOM     16  O   UNL     1       6.196  -2.024  24.861  0.00  0.00    -0.346 OA
BRANCH  15  17
ATOM     17  N   UNL     1       6.416   0.022  26.035  0.00  0.00    -0.286 N 
ATOM     18  C   UNL     1       6.137   1.323  26.364  0.00  0.00    +0.167 A 
ATOM     19  N   UNL     1       5.468   2.224  25.626  0.00  0.00    -0.216 NA
ATOM     20  C   UNL     1       5.392   3.404  26.283  0.00  0.00    +0.225 A 
ATOM     21  N   UNL     1       5.900   3.727  27.490  0.00  0.00    -0.219 NA
ATOM     22  C   UNL     1       6.594   2.789  28.173  0.00  0.00    +0.147 A 
ATOM     23  N   UNL     1       7.131   3.142  29.404  0.00  0.00    -0.341 N 
ATOM     24  H   UNL     1       7.332   2.354  30.010  0.00  0.00    +0.144 HD
ATOM     25  H   UNL     1       6.672   3.948  29.810  0.00  0.00    +0.144 HD
ATOM     26  C   UNL     1       6.712   1.506  27.610  0.00  0.00    +0.147 A 
ATOM     27  N   UNL     1       7.314   0.342  28.046  0.00  0.00    -0.231 NA
ATOM     28  C   UNL     1       7.117  -0.526  27.073  0.00  0.00    +0.203 A 
ENDBRANCH  15  17
BRANCH  14  29
ATOM     29  O   UNL     1       6.350   0.828  22.737  0.00  0.00    -0.385 OA
ATOM     30  H   UNL     1       5.987   0.314  21.986  0.00  0.00    +0.210 HD
ENDBRANCH  14  29
BRANCH  13  31
ATOM     31  O   UNL     1       8.702  -1.674  22.981  0.00  0.00    -0.278 OA
BRANCH  31  32
ATOM     32  P   UNL     1       9.795  -0.735  22.281  0.00  0.00    +0.473 P 
ATOM     33  O   UNL     1       9.265   0.292  21.343  0.00  0.00    -0.228 OA
BRANCH  32  34
ATOM     34  O   UNL     1      10.845  -1.753  21.655  0.00  0.00    -0.303 OA
ATOM     35  H   UNL     1      11.680  -1.316  21.396  0.00  0.00    +0.222 HD
ENDBRANCH  32  34
BRANCH  32  36
ATOM     36  O   UNL     1      10.561  -0.145  23.549  0.00  0.00    -0.303 OA
ATOM     37  H   UNL     1      11.270   0.464  23.282  0.00  0.00    +0.222 HD
ENDBRANCH  32  36
ENDBRANCH  31  32
ENDBRANCH  13  31
ENDBRANCH  11  12
ENDBRANCH  10  11
ENDBRANCH   6  10
ENDBRANCH   5   6
ENDBRANCH   1   5
BRANCH   1  38
ATOM     38  O   UNL     1       5.030  -6.767  26.043  0.00  0.00    -0.286 OA
BRANCH  38  39
ATOM     39  C   UNL     1       4.776  -6.822  27.443  0.00  0.00    +0.181 C 
BRANCH  39  40
ATOM     40  C   UNL     1       5.256  -5.629  28.318  0.00  0.00    +0.024 C 
ATOM     41  C   UNL     1       6.099  -6.111  29.522  0.00  0.00    +0.016 C 
ATOM     42  C   UNL     1       6.229  -4.773  27.472  0.00  0.00    +0.016 C 
BRANCH  40  43
ATOM     43  C   UNL     1       4.090  -4.738  28.831  0.00  0.00    +0.208 C 
BRANCH  43  46
ATOM     44  N   UNL     1       3.872  -2.310  28.418  0.00  0.00    -0.313 N 
ATOM     45  H   UNL     1       4.143  -2.203  29.386  0.00  0.00    +0.149 HD
ATOM     46  C   UNL     1       3.718  -3.571  27.873  0.00  0.00    +0.242 C 
ATOM     47  O   UNL     1       3.345  -3.718  26.716  0.00  0.00    -0.273 OA
BRANCH  44  48
ATOM     48  C   UNL     1       3.482  -1.135  27.658  0.00  0.00    +0.113 C 
BRANCH  48  49
ATOM     49  C   UNL     1       2.379  -0.327  28.330  0.00  0.00    +0.114 C 
BRANCH  49  52
ATOM     50  N   UNL     1       1.829   1.526  26.849  0.00  0.00    -0.314 N 
ATOM     51  H   UNL     1       1.457   0.812  26.231  0.00  0.00    +0.149 HD
ATOM     52  C   UNL     1       2.530   1.136  27.968  0.00  0.00    +0.215 C 
ATOM     53  O   UNL     1       3.207   1.900  28.649  0.00  0.00    -0.276 OA
BRANCH  50  54
ATOM     54  C   UNL     1       1.822   2.907  26.398  0.00  0.00    +0.115 C 
BRANCH  54  55
ATOM     55  C   UNL     1       1.110   3.115  25.057  0.00  0.00    +0.096 C 
BRANCH  55  56
ATOM     56  S   UNL     1       2.282   3.449  23.699  0.00  0.00    -0.086 S 
BRANCH  56  57
ATOM     57  C   UNL     1       2.514   5.184  23.941  0.00  0.00    +0.199 C 
ATOM     58  O   UNL     1       1.606   5.902  24.343  0.00  0.00    -0.284 OA
BRANCH  57  59
ATOM     59  C   UNL     1       3.893   5.708  23.606  0.00  0.00    +0.155 C 
BRANCH  59  60
ATOM     60  S   UNL     1       4.903   4.465  22.738  0.00  0.00    -0.152 S 
BRANCH  60  61
ATOM     61  C   UNL     1       6.561   5.225  22.880  0.00  0.00    +0.069 C 
BRANCH  61  62
ATOM     62  C   UNL     1       7.611   4.133  22.671  0.00  0.00    +0.011 C 
BRANCH  62  63
ATOM     63  C   UNL     1       8.470   3.900  23.917  0.00  0.00    +0.001 C 
BRANCH  63  65
ATOM     64  C   UNL     1      10.967   3.992  23.509  0.00  0.00    +0.004 C 
ATOM     65  C   UNL     1       9.732   3.109  23.559  0.00  0.00    -0.003 C 
ENDBRANCH  63  65
ENDBRANCH  62  63
ENDBRANCH  61  62
ENDBRANCH  60  61
ENDBRANCH  59  60
ENDBRANCH  57  59
ENDBRANCH  56  57
ENDBRANCH  55  56
ENDBRANCH  54  55
ENDBRANCH  50  54
ENDBRANCH  49  52
ENDBRANCH  48  49
ENDBRANCH  44  48
ENDBRANCH  43  46
BRANCH  43  66
ATOM     66  O   UNL     1       2.946  -5.531  29.148  0.00  0.00    -0.382 OA
ATOM     67  H   UNL     1       3.064  -6.402  28.736  0.00  0.00    +0.210 HD
ENDBRANCH  43  66
ENDBRANCH  40  43
ENDBRANCH  39  40
ENDBRANCH  38  39
ENDBRANCH   1  38
TORSDOF 32
ENDMDL
