MODEL 1
REMARK VINA RESULT:      -6.1      0.000      0.000
REMARK  Name = 
REMARK  22 active torsions:
REMARK  status: ('A' for Active; 'I' for Inactive)
REMARK    1  A    between atoms: C_1  and  C_2
REMARK    2  A    between atoms: N_6  and  C_7
REMARK    3  A    between atoms: C_7  and  C_8
REMARK    4  A    between atoms: C_8  and  C_9
REMARK    5  A    between atoms: C_9  and  C_10
REMARK    6  A    between atoms: C_10  and  C_11
REMARK    7  A    between atoms: C_14  and  C_15
REMARK    8  A    between atoms: C_15  and  C_16
REMARK    9  A    between atoms: N_18  and  CA_19
REMARK   10  A    between atoms: CA_19  and  C_21
REMARK   11  A    between atoms: CA_19  and  C_23
REMARK   12  A    between atoms: C_21  and  O_22
REMARK   13  A    between atoms: N_25  and  C_26
REMARK   14  A    between atoms: C_26  and  C_28
REMARK   15  A    between atoms: C_26  and  C_33
REMARK   16  A    between atoms: C_28  and  C_29
REMARK   17  A    between atoms: C_29  and  C_30
REMARK   18  A    between atoms: C_30  and  C_31
REMARK   19  A    between atoms: C_31  and  N_32
REMARK   20  A    between atoms: N_35  and  C_36
REMARK   21  A    between atoms: C_36  and  C_37
REMARK   22  A    between atoms: C_37  and  C_38
REMARK                            x       y       z     vdW  Elec       q    Type
REMARK                         _______ _______ _______ _____ _____    ______ ____
ROOT
ATOM      1  CA  UNL     1       6.412  -5.449  28.161  0.00  0.00    +0.184 C 
ENDROOT
BRANCH   1   2
ATOM      2  C   UNL     1       4.984  -4.877  28.132  0.00  0.00    +0.236 C 
ATOM      3  N   UNL     1       4.603  -4.287  26.949  0.00  0.00    -0.302 N 
ATOM      4  H   UNL     1       5.194  -4.426  26.137  0.00  0.00    +0.150 HD
ATOM      5  O   UNL     1       4.249  -4.914  29.120  0.00  0.00    -0.274 OA
BRANCH   3   6
ATOM      6  C   UNL     1       3.241  -3.780  26.709  0.00  0.00    +0.159 C 
BRANCH   6   7
ATOM      7  C   UNL     1       3.190  -2.235  26.859  0.00  0.00    +0.233 C 
ATOM      8  N   UNL     1       4.208  -1.697  27.607  0.00  0.00    -0.314 N 
ATOM      9  H   UNL     1       4.800  -2.345  28.127  0.00  0.00    +0.149 HD
ATOM     10  O   UNL     1       2.274  -1.550  26.408  0.00  0.00    -0.274 OA
BRANCH   8  11
ATOM     11  C   UNL     1       4.307  -0.281  27.868  0.00  0.00    +0.104 C 
BRANCH  11  12
ATOM     12  C   UNL     1       5.607   0.303  27.319  0.00  0.00    +0.022 C 
BRANCH  12  13
ATOM     13  C   UNL     1       6.165  -0.426  26.075  0.00  0.00    -0.010 C 
ATOM     14  C   UNL     1       7.268  -1.422  26.473  0.00  0.00    +0.003 C 
ATOM     15  C   UNL     1       8.565  -0.731  26.890  0.00  0.00    +0.000 C 
ATOM     16  C   UNL     1       9.054   0.257  25.834  0.00  0.00    +0.000 C 
ATOM     17  C   UNL     1       7.966   1.241  25.408  0.00  0.00    +0.000 C 
ATOM     18  C   UNL     1       6.696   0.514  24.979  0.00  0.00    +0.003 C 
ENDBRANCH  12  13
ENDBRANCH  11  12
ENDBRANCH   8  11
ENDBRANCH   6   7
BRANCH   6  19
ATOM     19  C   UNL     1       2.735  -4.161  25.306  0.00  0.00    +0.032 C 
BRANCH  19  20
ATOM     20  C   UNL     1       3.856  -4.463  24.312  0.00  0.00    +0.003 C 
BRANCH  20  21
ATOM     21  C   UNL     1       3.682  -5.853  23.691  0.00  0.00    +0.015 C 
BRANCH  21  22
ATOM     22  C   UNL     1       3.343  -6.884  24.767  0.00  0.00    +0.077 C 
BRANCH  22  23
ATOM     23  N   UNL     1       4.535  -7.240  25.525  0.00  0.00    -0.330 NA
ATOM     24  H   UNL     1       4.362  -8.109  26.030  0.00  0.00    +0.118 HD
ATOM     25  H   UNL     1       5.307  -7.430  24.888  0.00  0.00    +0.118 HD
ENDBRANCH  22  23
ENDBRANCH  21  22
ENDBRANCH  20  21
ENDBRANCH  19  20
ENDBRANCH   6  19
ENDBRANCH   3   6
ENDBRANCH   1   2
BRANCH   1  27
ATOM     26  C   UNL     1       8.031  -5.128  26.339  0.00  0.00    +0.218 C 
ATOM     27  N   UNL     1       6.826  -5.652  26.769  0.00  0.00    -0.302 N 
ATOM     28  H   UNL     1       6.080  -5.697  26.083  0.00  0.00    +0.150 HD
ATOM     29  O   UNL     1       8.849  -4.629  27.108  0.00  0.00    -0.275 OA
BRANCH  26  30
ATOM     30  C   UNL     1       8.257  -5.199  24.840  0.00  0.00    +0.130 C 
BRANCH  30  34
ATOM     31  C   UNL     1       8.733  -1.516  22.602  0.00  0.00    -0.047 A 
ATOM     32  C   UNL     1       7.494  -2.169  22.626  0.00  0.00    +0.004 A 
ATOM     33  C   UNL     1       7.314  -3.336  23.378  0.00  0.00    +0.004 A 
ATOM     34  C   UNL     1       8.367  -3.868  24.135  0.00  0.00    -0.039 A 
ATOM     35  C   UNL     1       9.598  -3.194  24.130  0.00  0.00    +0.004 A 
ATOM     36  C   UNL     1       9.775  -2.028  23.381  0.00  0.00    +0.004 A 
BRANCH  31  37
ATOM     37  C   UNL     1       8.932  -0.284  21.752  0.00  0.00    +0.035 C 
BRANCH  37  38
ATOM     38  C   UNL     1      10.170   0.533  22.152  0.00  0.00    +0.006 C 
BRANCH  38  39
ATOM     39  C   UNL     1       9.809   2.012  22.308  0.00  0.00    +0.022 C 
BRANCH  39  40
ATOM     40  C   UNL     1      10.627   2.694  23.403  0.00  0.00    +0.123 C 
BRANCH  40  43
ATOM     41  C   UNL     1      12.451   5.205  23.417  0.00  0.00    +0.086 C 
ATOM     42  C   UNL     1      10.981   5.198  23.616  0.00  0.00    +0.106 A 
ATOM     43  N   UNL     1      10.198   4.067  23.608  0.00  0.00    -0.335 N 
ATOM     44  C   UNL     1       8.900   4.456  23.814  0.00  0.00    +0.107 A 
ATOM     45  C   UNL     1       8.949   5.821  23.934  0.00  0.00    +0.130 A 
ATOM     46  N   UNL     1      10.237   6.270  23.812  0.00  0.00    -0.241 NA
ENDBRANCH  40  43
ENDBRANCH  39  40
ENDBRANCH  38  39
ENDBRANCH  37  38
ENDBRANCH  31  37
ENDBRANCH  30  34
ENDBRANCH  26  30
ENDBRANCH   1  27
BRANCH   1  47
ATOM     47  C   UNL     1       6.400  -6.771  28.933  0.00  0.00    +0.187 C 
BRANCH  47  48
ATOM     48  O   UNL     1       5.330  -7.614  28.509  0.00  0.00    -0.393 OA
ATOM     49  H   UNL     1       5.730  -8.423  28.143  0.00  0.00    +0.209 HD
ENDBRANCH  47  48
ENDBRANCH   1  47
TORSDOF 21
ENDMDL
MODEL 2
REMARK VINA RESULT:      -6.0      1.944      3.593
REMARK  Name = 
REMARK  22 active torsions:
REMARK  status: ('A' for Active; 'I' for Inactive)
REMARK    1  A    between atoms: C_1  and  C_2
REMARK    2  A    between atoms: N_6  and  C_7
REMARK    3  A    between atoms: C_7  and  C_8
REMARK    4  A    between atoms: C_8  and  C_9
REMARK    5  A    between atoms: C_9  and  C_10
REMARK    6  A    between atoms: C_10  and  C_11
REMARK    7  A    between atoms: C_14  and  C_15
REMARK    8  A    between atoms: C_15  and  C_16
REMARK    9  A    between atoms: N_18  and  CA_19
REMARK   10  A    between atoms: CA_19  and  C_21
REMARK   11  A    between atoms: CA_19  and  C_23
REMARK   12  A    between atoms: C_21  and  O_22
REMARK   13  A    between atoms: N_25  and  C_26
REMARK   14  A    between atoms: C_26  and  C_28
REMARK   15  A    between atoms: C_26  and  C_33
REMARK   16  A    between atoms: C_28  and  C_29
REMARK   17  A    between atoms: C_29  and  C_30
REMARK   18  A    between atoms: C_30  and  C_31
REMARK   19  A    between atoms: C_31  and  N_32
REMARK   20  A    between atoms: N_35  and  C_36
REMARK   21  A    between atoms: C_36  and  C_37
REMARK   22  A    between atoms: C_37  and  C_38
REMARK                            x       y       z     vdW  Elec       q    Type
REMARK                         _______ _______ _______ _____ _____    ______ ____
ROOT
ATOM      1  CA  UNL     1       8.535  -4.035  25.572  0.00  0.00    +0.184 C 
ENDROOT
BRANCH   1   2
ATOM      2  C   UNL     1       7.210  -4.169  26.344  0.00  0.00    +0.236 C 
ATOM      3  N   UNL     1       6.088  -3.721  25.684  0.00  0.00    -0.302 N 
ATOM      4  H   UNL     1       6.171  -3.513  24.695  0.00  0.00    +0.150 HD
ATOM      5  O   UNL     1       7.169  -4.613  27.493  0.00  0.00    -0.274 OA
BRANCH   3   6
ATOM      6  C   UNL     1       4.727  -3.866  26.228  0.00  0.00    +0.159 C 
BRANCH   6   7
ATOM      7  C   UNL     1       4.049  -2.479  26.400  0.00  0.00    +0.233 C 
ATOM      8  N   UNL     1       4.812  -1.545  27.056  0.00  0.00    -0.314 N 
ATOM      9  H   UNL     1       5.663  -1.871  27.511  0.00  0.00    +0.149 HD
ATOM     10  O   UNL     1       2.894  -2.252  26.044  0.00  0.00    -0.274 OA
BRANCH   8  11
ATOM     11  C   UNL     1       4.333  -0.210  27.323  0.00  0.00    +0.104 C 
BRANCH  11  12
ATOM     12  C   UNL     1       4.960   0.813  26.378  0.00  0.00    +0.022 C 
BRANCH  12  13
ATOM     13  C   UNL     1       6.290   0.362  25.733  0.00  0.00    -0.010 C 
ATOM     14  C   UNL     1       7.438   1.307  26.125  0.00  0.00    +0.003 C 
ATOM     15  C   UNL     1       7.342   2.669  25.437  0.00  0.00    +0.000 C 
ATOM     16  C   UNL     1       7.215   2.538  23.922  0.00  0.00    +0.000 C 
ATOM     17  C   UNL     1       6.094   1.585  23.512  0.00  0.00    +0.000 C 
ATOM     18  C   UNL     1       6.236   0.232  24.200  0.00  0.00    +0.003 C 
ENDBRANCH  12  13
ENDBRANCH  11  12
ENDBRANCH   8  11
ENDBRANCH   6   7
BRANCH   6  19
ATOM     19  C   UNL     1       3.846  -4.742  25.320  0.00  0.00    +0.032 C 
BRANCH  19  20
ATOM     20  C   UNL     1       3.956  -4.391  23.836  0.00  0.00    +0.003 C 
BRANCH  20  21
ATOM     21  C   UNL     1       4.214  -5.644  22.992  0.00  0.00    +0.015 C 
BRANCH  21  22
ATOM     22  C   UNL     1       5.699  -6.005  23.005  0.00  0.00    +0.077 C 
BRANCH  22  23
ATOM     23  N   UNL     1       6.504  -4.868  22.580  0.00  0.00    -0.330 NA
ATOM     24  H   UNL     1       7.029  -4.512  23.378  0.00  0.00    +0.118 HD
ATOM     25  H   UNL     1       7.197  -5.171  21.896  0.00  0.00    +0.118 HD
ENDBRANCH  22  23
ENDBRANCH  21  22
ENDBRANCH  20  21
ENDBRANCH  19  20
ENDBRANCH   6  19
ENDBRANCH   3   6
ENDBRANCH   1   2
BRANCH   1  27
ATOM     26  C   UNL     1       9.342  -2.709  23.667  0.00  0.00    +0.218 C 
ATOM     27  N   UNL     1       8.276  -3.174  24.414  0.00  0.00    -0.302 N 
ATOM     28  H   UNL     1       7.469  -2.563  24.483  0.00  0.00    +0.150 HD
ATOM     29  O   UNL     1      10.492  -3.108  23.833  0.00  0.00    -0.275 OA
BRANCH  26  30
ATOM     30  C   UNL     1       8.985  -1.654  22.636  0.00  0.00    +0.130 C 
BRANCH  30  34
ATOM     31  C   UNL     1      10.652   2.314  23.159  0.00  0.00    -0.047 A 
ATOM     32  C   UNL     1      10.688   1.392  24.213  0.00  0.00    +0.004 A 
ATOM     33  C   UNL     1      10.192   0.094  24.045  0.00  0.00    +0.004 A 
ATOM     34  C   UNL     1       9.661  -0.315  22.814  0.00  0.00    -0.039 A 
ATOM     35  C   UNL     1       9.654   0.603  21.753  0.00  0.00    +0.004 A 
ATOM     36  C   UNL     1      10.152   1.898  21.921  0.00  0.00    +0.004 A 
BRANCH  31  37
ATOM     37  C   UNL     1      11.148   3.726  23.361  0.00  0.00    +0.035 C 
BRANCH  37  38
ATOM     38  C   UNL     1      10.136   4.624  24.088  0.00  0.00    +0.006 C 
BRANCH  38  39
ATOM     39  C   UNL     1      10.266   6.073  23.614  0.00  0.00    +0.022 C 
BRANCH  39  40
ATOM     40  C   UNL     1       9.131   6.955  24.132  0.00  0.00    +0.123 C 
BRANCH  40  43
ATOM     41  C   UNL     1       6.590   6.304  25.791  0.00  0.00    +0.086 C 
ATOM     42  C   UNL     1       6.703   6.237  24.313  0.00  0.00    +0.106 A 
ATOM     43  N   UNL     1       7.845   6.528  23.604  0.00  0.00    -0.335 N 
ATOM     44  C   UNL     1       7.564   6.364  22.273  0.00  0.00    +0.107 A 
ATOM     45  C   UNL     1       6.249   5.982  22.228  0.00  0.00    +0.130 A 
ATOM     46  N   UNL     1       5.725   5.904  23.492  0.00  0.00    -0.241 NA
ENDBRANCH  40  43
ENDBRANCH  39  40
ENDBRANCH  38  39
ENDBRANCH  37  38
ENDBRANCH  31  37
ENDBRANCH  30  34
ENDBRANCH  26  30
ENDBRANCH   1  27
BRANCH   1  47
ATOM     47  C   UNL     1       8.995  -5.428  25.136  0.00  0.00    +0.187 C 
BRANCH  47  48
ATOM     48  O   UNL     1      10.371  -5.643  25.444  0.00  0.00    -0.393 OA
ATOM     49  H   UNL     1      10.798  -5.978  24.634  0.00  0.00    +0.209 HD
ENDBRANCH  47  48
ENDBRANCH   1  47
TORSDOF 21
ENDMDL
MODEL 3
REMARK VINA RESULT:      -5.6      3.035      8.666
REMARK  Name = 
REMARK  22 active torsions:
REMARK  status: ('A' for Active; 'I' for Inactive)
REMARK    1  A    between atoms: C_1  and  C_2
REMARK    2  A    between atoms: N_6  and  C_7
REMARK    3  A    between atoms: C_7  and  C_8
REMARK    4  A    between atoms: C_8  and  C_9
REMARK    5  A    between atoms: C_9  and  C_10
REMARK    6  A    between atoms: C_10  and  C_11
REMARK    7  A    between atoms: C_14  and  C_15
REMARK    8  A    between atoms: C_15  and  C_16
REMARK    9  A    between atoms: N_18  and  CA_19
REMARK   10  A    between atoms: CA_19  and  C_21
REMARK   11  A    between atoms: CA_19  and  C_23
REMARK   12  A    between atoms: C_21  and  O_22
REMARK   13  A    between atoms: N_25  and  C_26
REMARK   14  A    between atoms: C_26  and  C_28
REMARK   15  A    between atoms: C_26  and  C_33
REMARK   16  A    between atoms: C_28  and  C_29
REMARK   17  A    between atoms: C_29  and  C_30
REMARK   18  A    between atoms: C_30  and  C_31
REMARK   19  A    between atoms: C_31  and  N_32
REMARK   20  A    between atoms: N_35  and  C_36
REMARK   21  A    between atoms: C_36  and  C_37
REMARK   22  A    between atoms: C_37  and  C_38
REMARK                            x       y       z     vdW  Elec       q    Type
REMARK                         _______ _______ _______ _____ _____    ______ ____
ROOT
ATOM      1  CA  UNL     1       6.043   2.547  26.551  0.00  0.00    +0.184 C 
ENDROOT
BRANCH   1   2
ATOM      2  C   UNL     1       6.926   3.785  26.786  0.00  0.00    +0.236 C 
ATOM      3  N   UNL     1       7.257   4.503  25.659  0.00  0.00    -0.302 N 
ATOM      4  H   UNL     1       6.763   4.291  24.800  0.00  0.00    +0.150 HD
ATOM      5  O   UNL     1       7.339   4.086  27.907  0.00  0.00    -0.274 OA
BRANCH   3   6
ATOM      6  C   UNL     1       8.006   5.770  25.708  0.00  0.00    +0.159 C 
BRANCH   6   7
ATOM      7  C   UNL     1       9.348   5.650  24.935  0.00  0.00    +0.233 C 
ATOM      8  N   UNL     1       9.502   4.483  24.229  0.00  0.00    -0.314 N 
ATOM      9  H   UNL     1       8.823   3.740  24.398  0.00  0.00    +0.149 HD
ATOM     10  O   UNL     1      10.236   6.498  25.003  0.00  0.00    -0.274 OA
BRANCH   8  11
ATOM     11  C   UNL     1      10.695   4.193  23.470  0.00  0.00    +0.104 C 
BRANCH  11  12
ATOM     12  C   UNL     1      10.739   2.732  23.029  0.00  0.00    +0.022 C 
BRANCH  12  13
ATOM     13  C   UNL     1       9.506   1.897  23.441  0.00  0.00    -0.010 C 
ATOM     14  C   UNL     1       9.926   0.671  24.270  0.00  0.00    +0.003 C 
ATOM     15  C   UNL     1      10.614  -0.403  23.429  0.00  0.00    +0.000 C 
ATOM     16  C   UNL     1       9.778  -0.805  22.217  0.00  0.00    +0.000 C 
ATOM     17  C   UNL     1       9.331   0.400  21.392  0.00  0.00    +0.000 C 
ATOM     18  C   UNL     1       8.631   1.439  22.261  0.00  0.00    +0.003 C 
ENDBRANCH  12  13
ENDBRANCH  11  12
ENDBRANCH   8  11
ENDBRANCH   6   7
BRANCH   6  19
ATOM     19  C   UNL     1       7.191   6.932  25.113  0.00  0.00    +0.032 C 
BRANCH  19  20
ATOM     20  C   UNL     1       6.165   6.490  24.070  0.00  0.00    +0.003 C 
BRANCH  20  21
ATOM     21  C   UNL     1       6.489   7.081  22.693  0.00  0.00    +0.015 C 
BRANCH  21  22
ATOM     22  C   UNL     1       7.307   6.094  21.863  0.00  0.00    +0.077 C 
BRANCH  22  23
ATOM     23  N   UNL     1       6.968   4.723  22.221  0.00  0.00    -0.330 NA
ATOM     24  H   UNL     1       7.141   4.116  21.420  0.00  0.00    +0.118 HD
ATOM     25  H   UNL     1       7.585   4.396  22.964  0.00  0.00    +0.118 HD
ENDBRANCH  22  23
ENDBRANCH  21  22
ENDBRANCH  20  21
ENDBRANCH  19  20
ENDBRANCH   6  19
ENDBRANCH   3   6
ENDBRANCH   1   2
BRANCH   1  27
ATOM     26  C   UNL     1       6.686   0.188  26.799  0.00  0.00    +0.218 C 
ATOM     27  N   UNL     1       6.940   1.428  26.244  0.00  0.00    -0.302 N 
ATOM     28  H   UNL     1       7.913   1.665  26.089  0.00  0.00    +0.150 HD
ATOM     29  O   UNL     1       5.654  -0.064  27.418  0.00  0.00    -0.275 OA
BRANCH  26  30
ATOM     30  C   UNL     1       7.789  -0.836  26.601  0.00  0.00    +0.130 C 
BRANCH  30  34
ATOM     31  C   UNL     1       7.326  -3.454  23.175  0.00  0.00    -0.047 A 
ATOM     32  C   UNL     1       8.197  -3.805  24.215  0.00  0.00    +0.004 A 
ATOM     33  C   UNL     1       8.325  -2.990  25.346  0.00  0.00    +0.004 A 
ATOM     34  C   UNL     1       7.573  -1.814  25.469  0.00  0.00    -0.039 A 
ATOM     35  C   UNL     1       6.681  -1.483  24.438  0.00  0.00    +0.004 A 
ATOM     36  C   UNL     1       6.552  -2.298  23.310  0.00  0.00    +0.004 A 
BRANCH  31  37
ATOM     37  C   UNL     1       7.227  -4.314  21.939  0.00  0.00    +0.035 C 
BRANCH  37  38
ATOM     38  C   UNL     1       6.772  -5.751  22.236  0.00  0.00    +0.006 C 
BRANCH  38  39
ATOM     39  C   UNL     1       5.271  -5.788  22.533  0.00  0.00    +0.022 C 
BRANCH  39  40
ATOM     40  C   UNL     1       4.977  -6.210  23.971  0.00  0.00    +0.123 C 
BRANCH  40  43
ATOM     41  C   UNL     1       6.060  -5.476  26.786  0.00  0.00    +0.086 C 
ATOM     42  C   UNL     1       5.028  -4.724  26.029  0.00  0.00    +0.106 A 
ATOM     43  N   UNL     1       4.565  -5.077  24.783  0.00  0.00    -0.335 N 
ATOM     44  C   UNL     1       3.632  -4.146  24.405  0.00  0.00    +0.107 A 
ATOM     45  C   UNL     1       3.571  -3.256  25.446  0.00  0.00    +0.130 A 
ATOM     46  N   UNL     1       4.436  -3.621  26.445  0.00  0.00    -0.241 NA
ENDBRANCH  40  43
ENDBRANCH  39  40
ENDBRANCH  38  39
ENDBRANCH  37  38
ENDBRANCH  31  37
ENDBRANCH  30  34
ENDBRANCH  26  30
ENDBRANCH   1  27
BRANCH   1  47
ATOM     47  C   UNL     1       5.093   2.831  25.386  0.00  0.00    +0.187 C 
BRANCH  47  48
ATOM     48  O   UNL     1       5.697   2.521  24.131  0.00  0.00    -0.393 OA
ATOM     49  H   UNL     1       6.492   1.990  24.319  0.00  0.00    +0.209 HD
ENDBRANCH  47  48
ENDBRANCH   1  47
TORSDOF 21
ENDMDL
MODEL 4
REMARK VINA RESULT:      -5.5      2.308      8.005
REMARK  Name = 
REMARK  22 active torsions:
REMARK  status: ('A' for Active; 'I' for Inactive)
REMARK    1  A    between atoms: C_1  and  C_2
REMARK    2  A    between atoms: N_6  and  C_7
REMARK    3  A    between atoms: C_7  and  C_8
REMARK    4  A    between atoms: C_8  and  C_9
REMARK    5  A    between atoms: C_9  and  C_10
REMARK    6  A    between atoms: C_10  and  C_11
REMARK    7  A    between atoms: C_14  and  C_15
REMARK    8  A    between atoms: C_15  and  C_16
REMARK    9  A    between atoms: N_18  and  CA_19
REMARK   10  A    between atoms: CA_19  and  C_21
REMARK   11  A    between atoms: CA_19  and  C_23
REMARK   12  A    between atoms: C_21  and  O_22
REMARK   13  A    between atoms: N_25  and  C_26
REMARK   14  A    between atoms: C_26  and  C_28
REMARK   15  A    between atoms: C_26  and  C_33
REMARK   16  A    between atoms: C_28  and  C_29
REMARK   17  A    between atoms: C_29  and  C_30
REMARK   18  A    between atoms: C_30  and  C_31
REMARK   19  A    between atoms: C_31  and  N_32
REMARK   20  A    between atoms: N_35  and  C_36
REMARK   21  A    between atoms: C_36  and  C_37
REMARK   22  A    between atoms: C_37  and  C_38
REMARK                            x       y       z     vdW  Elec       q    Type
REMARK                         _______ _______ _______ _____ _____    ______ ____
ROOT
ATOM      1  CA  UNL     1       8.573  -4.706  24.262  0.00  0.00    +0.184 C 
ENDROOT
BRANCH   1   2
ATOM      2  C   UNL     1       9.067  -3.264  24.052  0.00  0.00    +0.236 C 
ATOM      3  N   UNL     1       8.100  -2.286  24.122  0.00  0.00    -0.302 N 
ATOM      4  H   UNL     1       7.189  -2.546  24.481  0.00  0.00    +0.150 HD
ATOM      5  O   UNL     1      10.247  -3.011  23.799  0.00  0.00    -0.274 OA
BRANCH   3   6
ATOM      6  C   UNL     1       8.409  -0.848  24.049  0.00  0.00    +0.159 C 
BRANCH   6   7
ATOM      7  C   UNL     1       7.122  -0.019  23.782  0.00  0.00    +0.233 C 
ATOM      8  N   UNL     1       7.281   1.016  22.895  0.00  0.00    -0.314 N 
ATOM      9  H   UNL     1       8.233   1.257  22.621  0.00  0.00    +0.149 HD
ATOM     10  O   UNL     1       6.062  -0.224  24.370  0.00  0.00    -0.274 OA
BRANCH   8  11
ATOM     11  C   UNL     1       6.197   1.904  22.545  0.00  0.00    +0.104 C 
BRANCH  11  12
ATOM     12  C   UNL     1       6.703   3.303  22.202  0.00  0.00    +0.022 C 
BRANCH  12  13
ATOM     13  C   UNL     1       6.445   4.366  23.293  0.00  0.00    -0.010 C 
ATOM     14  C   UNL     1       6.162   5.740  22.663  0.00  0.00    +0.003 C 
ATOM     15  C   UNL     1       7.410   6.382  22.058  0.00  0.00    +0.000 C 
ATOM     16  C   UNL     1       8.561   6.450  23.059  0.00  0.00    +0.000 C 
ATOM     17  C   UNL     1       8.844   5.099  23.714  0.00  0.00    +0.000 C 
ATOM     18  C   UNL     1       7.580   4.501  24.323  0.00  0.00    +0.003 C 
ENDBRANCH  12  13
ENDBRANCH  11  12
ENDBRANCH   8  11
ENDBRANCH   6   7
BRANCH   6  19
ATOM     19  C   UNL     1       9.067  -0.344  25.345  0.00  0.00    +0.032 C 
BRANCH  19  20
ATOM     20  C   UNL     1      10.105   0.755  25.118  0.00  0.00    +0.003 C 
BRANCH  20  21
ATOM     21  C   UNL     1      10.671   0.692  23.695  0.00  0.00    +0.015 C 
BRANCH  21  22
ATOM     22  C   UNL     1      10.628   2.071  23.039  0.00  0.00    +0.077 C 
BRANCH  22  23
ATOM     23  N   UNL     1      10.024   1.989  21.716  0.00  0.00    -0.330 NA
ATOM     24  H   UNL     1       9.588   2.883  21.492  0.00  0.00    +0.118 HD
ATOM     25  H   UNL     1      10.748   1.842  21.014  0.00  0.00    +0.118 HD
ENDBRANCH  22  23
ENDBRANCH  21  22
ENDBRANCH  20  21
ENDBRANCH  19  20
ENDBRANCH   6  19
ENDBRANCH   3   6
ENDBRANCH   1   2
BRANCH   1  27
ATOM     26  C   UNL     1       6.524  -5.332  23.057  0.00  0.00    +0.218 C 
ATOM     27  N   UNL     1       7.112  -4.687  24.128  0.00  0.00    -0.302 N 
ATOM     28  H   UNL     1       6.643  -3.855  24.471  0.00  0.00    +0.150 HD
ATOM     29  O   UNL     1       7.156  -6.054  22.289  0.00  0.00    -0.275 OA
BRANCH  26  30
ATOM     30  C   UNL     1       5.039  -5.064  22.890  0.00  0.00    +0.130 C 
BRANCH  30  34
ATOM     31  C   UNL     1       2.396  -5.614  26.282  0.00  0.00    -0.047 A 
ATOM     32  C   UNL     1       3.286  -6.631  25.913  0.00  0.00    +0.004 A 
ATOM     33  C   UNL     1       4.174  -6.451  24.846  0.00  0.00    +0.004 A 
ATOM     34  C   UNL     1       4.202  -5.244  24.134  0.00  0.00    -0.039 A 
ATOM     35  C   UNL     1       3.328  -4.219  24.527  0.00  0.00    +0.004 A 
ATOM     36  C   UNL     1       2.444  -4.399  25.594  0.00  0.00    +0.004 A 
BRANCH  31  37
ATOM     37  C   UNL     1       1.410  -5.832  27.404  0.00  0.00    +0.035 C 
BRANCH  37  38
ATOM     38  C   UNL     1       1.753  -5.038  28.674  0.00  0.00    +0.006 C 
BRANCH  38  39
ATOM     39  C   UNL     1       3.058  -5.546  29.289  0.00  0.00    +0.022 C 
BRANCH  39  40
ATOM     40  C   UNL     1       3.971  -4.404  29.732  0.00  0.00    +0.123 C 
BRANCH  40  43
ATOM     41  C   UNL     1       6.202  -5.773  28.064  0.00  0.00    +0.086 C 
ATOM     42  C   UNL     1       5.668  -4.406  27.844  0.00  0.00    +0.106 A 
ATOM     43  N   UNL     1       4.681  -3.823  28.604  0.00  0.00    -0.335 N 
ATOM     44  C   UNL     1       4.449  -2.571  28.098  0.00  0.00    +0.107 A 
ATOM     45  C   UNL     1       5.311  -2.445  27.040  0.00  0.00    +0.130 A 
ATOM     46  N   UNL     1       6.061  -3.582  26.891  0.00  0.00    -0.241 NA
ENDBRANCH  40  43
ENDBRANCH  39  40
ENDBRANCH  38  39
ENDBRANCH  37  38
ENDBRANCH  31  37
ENDBRANCH  30  34
ENDBRANCH  26  30
ENDBRANCH   1  27
BRANCH   1  47
ATOM     47  C   UNL     1       8.995  -5.175  25.656  0.00  0.00    +0.187 C 
BRANCH  47  48
ATOM     48  O   UNL     1       9.057  -4.087  26.577  0.00  0.00    -0.393 OA
ATOM     49  H   UNL     1       9.967  -3.740  26.550  0.00  0.00    +0.209 HD
ENDBRANCH  47  48
ENDBRANCH   1  47
TORSDOF 21
ENDMDL
MODEL 5
REMARK VINA RESULT:      -5.5      1.909      2.631
REMARK  Name = 
REMARK  22 active torsions:
REMARK  status: ('A' for Active; 'I' for Inactive)
REMARK    1  A    between atoms: C_1  and  C_2
REMARK    2  A    between atoms: N_6  and  C_7
REMARK    3  A    between atoms: C_7  and  C_8
REMARK    4  A    between atoms: C_8  and  C_9
REMARK    5  A    between atoms: C_9  and  C_10
REMARK    6  A    between atoms: C_10  and  C_11
REMARK    7  A    between atoms: C_14  and  C_15
REMARK    8  A    between atoms: C_15  and  C_16
REMARK    9  A    between atoms: N_18  and  CA_19
REMARK   10  A    between atoms: CA_19  and  C_21
REMARK   11  A    between atoms: CA_19  and  C_23
REMARK   12  A    between atoms: C_21  and  O_22
REMARK   13  A    between atoms: N_25  and  C_26
REMARK   14  A    between atoms: C_26  and  C_28
REMARK   15  A    between atoms: C_26  and  C_33
REMARK   16  A    between atoms: C_28  and  C_29
REMARK   17  A    between atoms: C_29  and  C_30
REMARK   18  A    between atoms: C_30  and  C_31
REMARK   19  A    between atoms: C_31  and  N_32
REMARK   20  A    between atoms: N_35  and  C_36
REMARK   21  A    between atoms: C_36  and  C_37
REMARK   22  A    between atoms: C_37  and  C_38
REMARK                            x       y       z     vdW  Elec       q    Type
REMARK                         _______ _______ _______ _____ _____    ______ ____
ROOT
ATOM      1  CA  UNL     1       5.735  -5.766  24.076  0.00  0.00    +0.184 C 
ENDROOT
BRANCH   1   2
ATOM      2  C   UNL     1       4.950  -5.995  25.380  0.00  0.00    +0.236 C 
ATOM      3  N   UNL     1       3.769  -5.298  25.494  0.00  0.00    -0.302 N 
ATOM      4  H   UNL     1       3.406  -4.840  24.666  0.00  0.00    +0.150 HD
ATOM      5  O   UNL     1       5.377  -6.726  26.275  0.00  0.00    -0.274 OA
BRANCH   3   6
ATOM      6  C   UNL     1       2.842  -5.474  26.625  0.00  0.00    +0.159 C 
BRANCH   6   7
ATOM      7  C   UNL     1       2.862  -4.231  27.557  0.00  0.00    +0.233 C 
ATOM      8  N   UNL     1       3.982  -3.446  27.442  0.00  0.00    -0.314 N 
ATOM      9  H   UNL     1       4.761  -3.818  26.899  0.00  0.00    +0.149 HD
ATOM     10  O   UNL     1       1.981  -4.003  28.384  0.00  0.00    -0.274 OA
BRANCH   8  11
ATOM     11  C   UNL     1       4.179  -2.263  28.245  0.00  0.00    +0.104 C 
BRANCH  11  12
ATOM     12  C   UNL     1       4.761  -1.116  27.423  0.00  0.00    +0.022 C 
BRANCH  12  13
ATOM     13  C   UNL     1       5.703  -1.555  26.280  0.00  0.00    -0.010 C 
ATOM     14  C   UNL     1       7.160  -1.627  26.768  0.00  0.00    +0.003 C 
ATOM     15  C   UNL     1       7.772  -0.246  27.003  0.00  0.00    +0.000 C 
ATOM     16  C   UNL     1       7.633   0.658  25.781  0.00  0.00    +0.000 C 
ATOM     17  C   UNL     1       6.196   0.724  25.266  0.00  0.00    +0.000 C 
ATOM     18  C   UNL     1       5.628  -0.670  25.024  0.00  0.00    +0.003 C 
ENDBRANCH  12  13
ENDBRANCH  11  12
ENDBRANCH   8  11
ENDBRANCH   6   7
BRANCH   6  19
ATOM     19  C   UNL     1       1.400  -5.711  26.142  0.00  0.00    +0.032 C 
BRANCH  19  20
ATOM     20  C   UNL     1       1.246  -5.653  24.622  0.00  0.00    +0.003 C 
BRANCH  20  21
ATOM     21  C   UNL     1       0.691  -6.973  24.074  0.00  0.00    +0.015 C 
BRANCH  21  22
ATOM     22  C   UNL     1       1.425  -8.162  24.693  0.00  0.00    +0.077 C 
BRANCH  22  23
ATOM     23  N   UNL     1       2.748  -8.310  24.101  0.00  0.00    -0.330 NA
ATOM     24  H   UNL     1       2.737  -9.093  23.449  0.00  0.00    +0.118 HD
ATOM     25  H   UNL     1       2.975  -7.484  23.549  0.00  0.00    +0.118 HD
ENDBRANCH  22  23
ENDBRANCH  21  22
ENDBRANCH  20  21
ENDBRANCH  19  20
ENDBRANCH   6  19
ENDBRANCH   3   6
ENDBRANCH   1   2
BRANCH   1  27
ATOM     26  C   UNL     1       8.032  -4.928  23.826  0.00  0.00    +0.218 C 
ATOM     27  N   UNL     1       6.768  -4.766  24.362  0.00  0.00    -0.302 N 
ATOM     28  H   UNL     1       6.714  -4.314  25.269  0.00  0.00    +0.150 HD
ATOM     29  O   UNL     1       8.293  -5.792  22.992  0.00  0.00    -0.275 OA
BRANCH  26  30
ATOM     30  C   UNL     1       9.078  -3.967  24.361  0.00  0.00    +0.130 C 
BRANCH  30  34
ATOM     31  C   UNL     1       9.177  -0.030  22.548  0.00  0.00    -0.047 A 
ATOM     32  C   UNL     1       8.162  -0.934  22.211  0.00  0.00    +0.004 A 
ATOM     33  C   UNL     1       8.093  -2.192  22.819  0.00  0.00    +0.004 A 
ATOM     34  C   UNL     1       9.030  -2.569  23.790  0.00  0.00    -0.039 A 
ATOM     35  C   UNL     1      10.028  -1.649  24.145  0.00  0.00    +0.004 A 
ATOM     36  C   UNL     1      10.094  -0.392  23.539  0.00  0.00    +0.004 A 
BRANCH  31  37
ATOM     37  C   UNL     1       9.271   1.308  21.855  0.00  0.00    +0.035 C 
BRANCH  37  38
ATOM     38  C   UNL     1       7.975   2.128  21.945  0.00  0.00    +0.006 C 
BRANCH  38  39
ATOM     39  C   UNL     1       8.266   3.534  22.476  0.00  0.00    +0.022 C 
BRANCH  39  40
ATOM     40  C   UNL     1       9.070   3.506  23.775  0.00  0.00    +0.123 C 
BRANCH  40  43
ATOM     41  C   UNL     1       9.318   6.564  24.239  0.00  0.00    +0.086 C 
ATOM     42  C   UNL     1      10.425   5.650  23.867  0.00  0.00    +0.106 A 
ATOM     43  N   UNL     1      10.284   4.297  23.664  0.00  0.00    -0.335 N 
ATOM     44  C   UNL     1      11.518   3.792  23.347  0.00  0.00    +0.107 A 
ATOM     45  C   UNL     1      12.366   4.868  23.376  0.00  0.00    +0.130 A 
ATOM     46  N   UNL     1      11.683   6.012  23.697  0.00  0.00    -0.241 NA
ENDBRANCH  40  43
ENDBRANCH  39  40
ENDBRANCH  38  39
ENDBRANCH  37  38
ENDBRANCH  31  37
ENDBRANCH  30  34
ENDBRANCH  26  30
ENDBRANCH   1  27
BRANCH   1  47
ATOM     47  C   UNL     1       4.768  -5.271  22.998  0.00  0.00    +0.187 C 
BRANCH  47  48
ATOM     48  O   UNL     1       3.946  -6.329  22.507  0.00  0.00    -0.393 OA
ATOM     49  H   UNL     1       4.521  -6.925  21.994  0.00  0.00    +0.209 HD
ENDBRANCH  47  48
ENDBRANCH   1  47
TORSDOF 21
ENDMDL
MODEL 6
REMARK VINA RESULT:      -5.5      2.173      5.045
REMARK  Name = 
REMARK  22 active torsions:
REMARK  status: ('A' for Active; 'I' for Inactive)
REMARK    1  A    between atoms: C_1  and  C_2
REMARK    2  A    between atoms: N_6  and  C_7
REMARK    3  A    between atoms: C_7  and  C_8
REMARK    4  A    between atoms: C_8  and  C_9
REMARK    5  A    between atoms: C_9  and  C_10
REMARK    6  A    between atoms: C_10  and  C_11
REMARK    7  A    between atoms: C_14  and  C_15
REMARK    8  A    between atoms: C_15  and  C_16
REMARK    9  A    between atoms: N_18  and  CA_19
REMARK   10  A    between atoms: CA_19  and  C_21
REMARK   11  A    between atoms: CA_19  and  C_23
REMARK   12  A    between atoms: C_21  and  O_22
REMARK   13  A    between atoms: N_25  and  C_26
REMARK   14  A    between atoms: C_26  and  C_28
REMARK   15  A    between atoms: C_26  and  C_33
REMARK   16  A    between atoms: C_28  and  C_29
REMARK   17  A    between atoms: C_29  and  C_30
REMARK   18  A    between atoms: C_30  and  C_31
REMARK   19  A    between atoms: C_31  and  N_32
REMARK   20  A    between atoms: N_35  and  C_36
REMARK   21  A    between atoms: C_36  and  C_37
REMARK   22  A    between atoms: C_37  and  C_38
REMARK                            x       y       z     vdW  Elec       q    Type
REMARK                         _______ _______ _______ _____ _____    ______ ____
ROOT
ATOM      1  CA  UNL     1       3.501  -5.167  24.485  0.00  0.00    +0.184 C 
ENDROOT
BRANCH   1   2
ATOM      2  C   UNL     1       4.676  -5.040  23.500  0.00  0.00    +0.236 C 
ATOM      3  N   UNL     1       5.869  -4.624  24.045  0.00  0.00    -0.302 N 
ATOM      4  H   UNL     1       5.948  -4.609  25.056  0.00  0.00    +0.150 HD
ATOM      5  O   UNL     1       4.541  -5.261  22.294  0.00  0.00    -0.274 OA
BRANCH   3   6
ATOM      6  C   UNL     1       7.120  -4.547  23.272  0.00  0.00    +0.159 C 
BRANCH   6   7
ATOM      7  C   UNL     1       7.380  -3.095  22.782  0.00  0.00    +0.233 C 
ATOM      8  N   UNL     1       8.627  -2.884  22.250  0.00  0.00    -0.314 N 
ATOM      9  H   UNL     1       9.319  -3.624  22.368  0.00  0.00    +0.149 HD
ATOM     10  O   UNL     1       6.562  -2.187  22.923  0.00  0.00    -0.274 OA
BRANCH   8  11
ATOM     11  C   UNL     1       9.048  -1.592  21.763  0.00  0.00    +0.104 C 
BRANCH  11  12
ATOM     12  C   UNL     1       9.973  -0.892  22.756  0.00  0.00    +0.022 C 
BRANCH  12  13
ATOM     13  C   UNL     1       9.252   0.007  23.785  0.00  0.00    -0.010 C 
ATOM     14  C   UNL     1       8.273   0.966  23.086  0.00  0.00    +0.003 C 
ATOM     15  C   UNL     1       8.985   2.081  22.321  0.00  0.00    +0.000 C 
ATOM     16  C   UNL     1       9.978   2.836  23.201  0.00  0.00    +0.000 C 
ATOM     17  C   UNL     1      10.945   1.900  23.923  0.00  0.00    +0.000 C 
ATOM     18  C   UNL     1      10.198   0.814  24.691  0.00  0.00    +0.003 C 
ENDBRANCH  12  13
ENDBRANCH  11  12
ENDBRANCH   8  11
ENDBRANCH   6   7
BRANCH   6  19
ATOM     19  C   UNL     1       8.328  -5.015  24.103  0.00  0.00    +0.032 C 
BRANCH  19  20
ATOM     20  C   UNL     1       8.581  -4.166  25.348  0.00  0.00    +0.003 C 
BRANCH  20  21
ATOM     21  C   UNL     1       8.579  -5.031  26.614  0.00  0.00    +0.015 C 
BRANCH  21  22
ATOM     22  C   UNL     1       7.202  -5.012  27.276  0.00  0.00    +0.077 C 
BRANCH  22  23
ATOM     23  N   UNL     1       6.393  -6.127  26.803  0.00  0.00    -0.330 NA
ATOM     24  H   UNL     1       6.288  -6.059  25.791  0.00  0.00    +0.118 HD
ATOM     25  H   UNL     1       6.877  -7.006  26.981  0.00  0.00    +0.118 HD
ENDBRANCH  22  23
ENDBRANCH  21  22
ENDBRANCH  20  21
ENDBRANCH  19  20
ENDBRANCH   6  19
ENDBRANCH   3   6
ENDBRANCH   1   2
BRANCH   1  27
ATOM     26  C   UNL     1       3.617  -3.324  26.108  0.00  0.00    +0.218 C 
ATOM     27  N   UNL     1       3.952  -4.622  25.770  0.00  0.00    -0.302 N 
ATOM     28  H   UNL     1       4.843  -4.964  26.112  0.00  0.00    +0.150 HD
ATOM     29  O   UNL     1       2.826  -2.651  25.451  0.00  0.00    -0.275 OA
BRANCH  26  30
ATOM     30  C   UNL     1       4.315  -2.788  27.344  0.00  0.00    +0.130 C 
BRANCH  30  34
ATOM     31  C   UNL     1       6.062   1.179  27.254  0.00  0.00    -0.047 A 
ATOM     32  C   UNL     1       6.617   0.149  26.483  0.00  0.00    +0.004 A 
ATOM     33  C   UNL     1       6.039  -1.125  26.470  0.00  0.00    +0.004 A 
ATOM     34  C   UNL     1       4.883  -1.394  27.216  0.00  0.00    -0.039 A 
ATOM     35  C   UNL     1       4.315  -0.351  27.964  0.00  0.00    +0.004 A 
ATOM     36  C   UNL     1       4.892   0.922  27.974  0.00  0.00    +0.004 A 
BRANCH  31  37
ATOM     37  C   UNL     1       6.718   2.538  27.299  0.00  0.00    +0.035 C 
BRANCH  37  38
ATOM     38  C   UNL     1       7.514   2.868  26.028  0.00  0.00    +0.006 C 
BRANCH  38  39
ATOM     39  C   UNL     1       6.647   3.650  25.039  0.00  0.00    +0.022 C 
BRANCH  39  40
ATOM     40  C   UNL     1       6.742   5.159  25.255  0.00  0.00    +0.123 C 
BRANCH  40  43
ATOM     41  C   UNL     1       7.354   5.836  22.288  0.00  0.00    +0.086 C 
ATOM     42  C   UNL     1       8.288   6.005  23.427  0.00  0.00    +0.106 A 
ATOM     43  N   UNL     1       7.990   5.692  24.733  0.00  0.00    -0.335 N 
ATOM     44  C   UNL     1       9.089   5.990  25.496  0.00  0.00    +0.107 A 
ATOM     45  C   UNL     1      10.016   6.481  24.614  0.00  0.00    +0.130 A 
ATOM     46  N   UNL     1       9.514   6.485  23.339  0.00  0.00    -0.241 NA
ENDBRANCH  40  43
ENDBRANCH  39  40
ENDBRANCH  38  39
ENDBRANCH  37  38
ENDBRANCH  31  37
ENDBRANCH  30  34
ENDBRANCH  26  30
ENDBRANCH   1  27
BRANCH   1  47
ATOM     47  C   UNL     1       3.120  -6.644  24.613  0.00  0.00    +0.187 C 
BRANCH  47  48
ATOM     48  O   UNL     1       4.182  -7.496  24.187  0.00  0.00    -0.393 OA
ATOM     49  H   UNL     1       4.059  -8.354  24.632  0.00  0.00    +0.209 HD
ENDBRANCH  47  48
ENDBRANCH   1  47
TORSDOF 21
ENDMDL
MODEL 7
REMARK VINA RESULT:      -5.5      2.506      3.379
REMARK  Name = 
REMARK  22 active torsions:
REMARK  status: ('A' for Active; 'I' for Inactive)
REMARK    1  A    between atoms: C_1  and  C_2
REMARK    2  A    between atoms: N_6  and  C_7
REMARK    3  A    between atoms: C_7  and  C_8
REMARK    4  A    between atoms: C_8  and  C_9
REMARK    5  A    between atoms: C_9  and  C_10
REMARK    6  A    between atoms: C_10  and  C_11
REMARK    7  A    between atoms: C_14  and  C_15
REMARK    8  A    between atoms: C_15  and  C_16
REMARK    9  A    between atoms: N_18  and  CA_19
REMARK   10  A    between atoms: CA_19  and  C_21
REMARK   11  A    between atoms: CA_19  and  C_23
REMARK   12  A    between atoms: C_21  and  O_22
REMARK   13  A    between atoms: N_25  and  C_26
REMARK   14  A    between atoms: C_26  and  C_28
REMARK   15  A    between atoms: C_26  and  C_33
REMARK   16  A    between atoms: C_28  and  C_29
REMARK   17  A    between atoms: C_29  and  C_30
REMARK   18  A    between atoms: C_30  and  C_31
REMARK   19  A    between atoms: C_31  and  N_32
REMARK   20  A    between atoms: N_35  and  C_36
REMARK   21  A    between atoms: C_36  and  C_37
REMARK   22  A    between atoms: C_37  and  C_38
REMARK                            x       y       z     vdW  Elec       q    Type
REMARK                         _______ _______ _______ _____ _____    ______ ____
ROOT
ATOM      1  CA  UNL     1       6.408  -5.944  23.044  0.00  0.00    +0.184 C 
ENDROOT
BRANCH   1   2
ATOM      2  C   UNL     1       5.070  -6.091  23.789  0.00  0.00    +0.236 C 
ATOM      3  N   UNL     1       4.291  -4.958  23.845  0.00  0.00    -0.302 N 
ATOM      4  H   UNL     1       4.547  -4.177  23.252  0.00  0.00    +0.150 HD
ATOM      5  O   UNL     1       4.742  -7.148  24.333  0.00  0.00    -0.274 OA
BRANCH   3   6
ATOM      6  C   UNL     1       2.938  -4.944  24.426  0.00  0.00    +0.159 C 
BRANCH   6   7
ATOM      7  C   UNL     1       2.719  -3.672  25.290  0.00  0.00    +0.233 C 
ATOM      8  N   UNL     1       3.722  -3.411  26.190  0.00  0.00    -0.314 N 
ATOM      9  H   UNL     1       4.423  -4.137  26.335  0.00  0.00    +0.149 HD
ATOM     10  O   UNL     1       1.698  -2.990  25.228  0.00  0.00    -0.274 OA
BRANCH   8  11
ATOM     11  C   UNL     1       3.676  -2.282  27.089  0.00  0.00    +0.104 C 
BRANCH  11  12
ATOM     12  C   UNL     1       4.396  -1.069  26.505  0.00  0.00    +0.022 C 
BRANCH  12  13
ATOM     13  C   UNL     1       5.752  -1.386  25.836  0.00  0.00    -0.010 C 
ATOM     14  C   UNL     1       6.920  -1.063  26.783  0.00  0.00    +0.003 C 
ATOM     15  C   UNL     1       7.139   0.439  26.960  0.00  0.00    +0.000 C 
ATOM     16  C   UNL     1       7.286   1.159  25.622  0.00  0.00    +0.000 C 
ATOM     17  C   UNL     1       6.147   0.833  24.658  0.00  0.00    +0.000 C 
ATOM     18  C   UNL     1       5.974  -0.672  24.490  0.00  0.00    +0.003 C 
ENDBRANCH  12  13
ENDBRANCH  11  12
ENDBRANCH   8  11
ENDBRANCH   6   7
BRANCH   6  19
ATOM     19  C   UNL     1       1.853  -4.998  23.336  0.00  0.00    +0.032 C 
BRANCH  19  20
ATOM     20  C   UNL     1       0.958  -6.234  23.422  0.00  0.00    +0.003 C 
BRANCH  20  21
ATOM     21  C   UNL     1       1.627  -7.446  22.766  0.00  0.00    +0.015 C 
BRANCH  21  22
ATOM     22  C   UNL     1       0.636  -8.188  21.870  0.00  0.00    +0.077 C 
BRANCH  22  23
ATOM     23  N   UNL     1       1.312  -8.729  20.699  0.00  0.00    -0.330 NA
ATOM     24  H   UNL     1       0.861  -8.373  19.858  0.00  0.00    +0.118 HD
ATOM     25  H   UNL     1       2.274  -8.395  20.669  0.00  0.00    +0.118 HD
ENDBRANCH  22  23
ENDBRANCH  21  22
ENDBRANCH  20  21
ENDBRANCH  19  20
ENDBRANCH   6  19
ENDBRANCH   3   6
ENDBRANCH   1   2
BRANCH   1  27
ATOM     26  C   UNL     1       8.358  -4.902  24.119  0.00  0.00    +0.218 C 
ATOM     27  N   UNL     1       7.085  -4.766  23.598  0.00  0.00    -0.302 N 
ATOM     28  H   UNL     1       6.488  -4.072  24.033  0.00  0.00    +0.150 HD
ATOM     29  O   UNL     1       9.016  -5.934  24.003  0.00  0.00    -0.275 OA
BRANCH  26  30
ATOM     30  C   UNL     1       8.874  -3.684  24.863  0.00  0.00    +0.130 C 
BRANCH  30  34
ATOM     31  C   UNL     1       9.402  -0.126  22.442  0.00  0.00    -0.047 A 
ATOM     32  C   UNL     1       9.928  -0.178  23.739  0.00  0.00    +0.004 A 
ATOM     33  C   UNL     1       9.802  -1.335  24.516  0.00  0.00    +0.004 A 
ATOM     34  C   UNL     1       9.159  -2.472  24.008  0.00  0.00    -0.039 A 
ATOM     35  C   UNL     1       8.659  -2.424  22.698  0.00  0.00    +0.004 A 
ATOM     36  C   UNL     1       8.788  -1.269  21.922  0.00  0.00    +0.004 A 
BRANCH  31  37
ATOM     37  C   UNL     1       9.502   1.140  21.626  0.00  0.00    +0.035 C 
BRANCH  37  38
ATOM     38  C   UNL     1       8.211   1.973  21.640  0.00  0.00    +0.006 C 
BRANCH  38  39
ATOM     39  C   UNL     1       8.314   3.106  22.664  0.00  0.00    +0.022 C 
BRANCH  39  40
ATOM     40  C   UNL     1       7.322   4.232  22.380  0.00  0.00    +0.123 C 
BRANCH  40  43
ATOM     41  C   UNL     1       8.811   6.685  23.563  0.00  0.00    +0.086 C 
ATOM     42  C   UNL     1       7.608   6.038  24.141  0.00  0.00    +0.106 A 
ATOM     43  N   UNL     1       6.971   4.948  23.596  0.00  0.00    -0.335 N 
ATOM     44  C   UNL     1       5.903   4.643  24.399  0.00  0.00    +0.107 A 
ATOM     45  C   UNL     1       5.933   5.573  25.405  0.00  0.00    +0.130 A 
ATOM     46  N   UNL     1       6.990   6.430  25.239  0.00  0.00    -0.241 NA
ENDBRANCH  40  43
ENDBRANCH  39  40
ENDBRANCH  38  39
ENDBRANCH  37  38
ENDBRANCH  31  37
ENDBRANCH  30  34
ENDBRANCH  26  30
ENDBRANCH   1  27
BRANCH   1  47
ATOM     47  C   UNL     1       6.125  -5.768  21.550  0.00  0.00    +0.187 C 
BRANCH  47  48
ATOM     48  O   UNL     1       5.810  -4.413  21.234  0.00  0.00    -0.393 OA
ATOM     49  H   UNL     1       4.904  -4.247  21.553  0.00  0.00    +0.209 HD
ENDBRANCH  47  48
ENDBRANCH   1  47
TORSDOF 21
ENDMDL
MODEL 8
REMARK VINA RESULT:      -5.4      2.038      3.512
REMARK  Name = 
REMARK  22 active torsions:
REMARK  status: ('A' for Active; 'I' for Inactive)
REMARK    1  A    between atoms: C_1  and  C_2
REMARK    2  A    between atoms: N_6  and  C_7
REMARK    3  A    between atoms: C_7  and  C_8
REMARK    4  A    between atoms: C_8  and  C_9
REMARK    5  A    between atoms: C_9  and  C_10
REMARK    6  A    between atoms: C_10  and  C_11
REMARK    7  A    between atoms: C_14  and  C_15
REMARK    8  A    between atoms: C_15  and  C_16
REMARK    9  A    between atoms: N_18  and  CA_19
REMARK   10  A    between atoms: CA_19  and  C_21
REMARK   11  A    between atoms: CA_19  and  C_23
REMARK   12  A    between atoms: C_21  and  O_22
REMARK   13  A    between atoms: N_25  and  C_26
REMARK   14  A    between atoms: C_26  and  C_28
REMARK   15  A    between atoms: C_26  and  C_33
REMARK   16  A    between atoms: C_28  and  C_29
REMARK   17  A    between atoms: C_29  and  C_30
REMARK   18  A    between atoms: C_30  and  C_31
REMARK   19  A    between atoms: C_31  and  N_32
REMARK   20  A    between atoms: N_35  and  C_36
REMARK   21  A    between atoms: C_36  and  C_37
REMARK   22  A    between atoms: C_37  and  C_38
REMARK                            x       y       z     vdW  Elec       q    Type
REMARK                         _______ _______ _______ _____ _____    ______ ____
ROOT
ATOM      1  CA  UNL     1       8.992  -3.769  25.287  0.00  0.00    +0.184 C 
ENDROOT
BRANCH   1   2
ATOM      2  C   UNL     1       7.655  -3.994  26.013  0.00  0.00    +0.236 C 
ATOM      3  N   UNL     1       6.527  -3.876  25.234  0.00  0.00    -0.302 N 
ATOM      4  H   UNL     1       6.647  -3.837  24.228  0.00  0.00    +0.150 HD
ATOM      5  O   UNL     1       7.602  -4.225  27.223  0.00  0.00    -0.274 OA
BRANCH   3   6
ATOM      6  C   UNL     1       5.172  -4.158  25.737  0.00  0.00    +0.159 C 
BRANCH   6   7
ATOM      7  C   UNL     1       4.417  -2.841  26.067  0.00  0.00    +0.233 C 
ATOM      8  N   UNL     1       5.069  -2.010  26.944  0.00  0.00    -0.314 N 
ATOM      9  H   UNL     1       5.887  -2.385  27.424  0.00  0.00    +0.149 HD
ATOM     10  O   UNL     1       3.293  -2.590  25.636  0.00  0.00    -0.274 OA
BRANCH   8  11
ATOM     11  C   UNL     1       4.507  -0.754  27.378  0.00  0.00    +0.104 C 
BRANCH  11  12
ATOM     12  C   UNL     1       5.195   0.433  26.708  0.00  0.00    +0.022 C 
BRANCH  12  13
ATOM     13  C   UNL     1       6.587   0.778  27.283  0.00  0.00    -0.010 C 
ATOM     14  C   UNL     1       6.519   0.970  28.807  0.00  0.00    +0.003 C 
ATOM     15  C   UNL     1       5.817   2.267  29.208  0.00  0.00    +0.000 C 
ATOM     16  C   UNL     1       6.424   3.484  28.515  0.00  0.00    +0.000 C 
ATOM     17  C   UNL     1       6.523   3.304  27.002  0.00  0.00    +0.000 C 
ATOM     18  C   UNL     1       7.247   2.012  26.642  0.00  0.00    +0.003 C 
ENDBRANCH  12  13
ENDBRANCH  11  12
ENDBRANCH   8  11
ENDBRANCH   6   7
BRANCH   6  19
ATOM     19  C   UNL     1       4.346  -4.963  24.718  0.00  0.00    +0.032 C 
BRANCH  19  20
ATOM     20  C   UNL     1       4.580  -4.539  23.268  0.00  0.00    +0.003 C 
BRANCH  20  21
ATOM     21  C   UNL     1       5.077  -5.717  22.423  0.00  0.00    +0.015 C 
BRANCH  21  22
ATOM     22  C   UNL     1       6.433  -5.394  21.797  0.00  0.00    +0.077 C 
BRANCH  22  23
ATOM     23  N   UNL     1       7.514  -5.780  22.693  0.00  0.00    -0.330 NA
ATOM     24  H   UNL     1       7.130  -6.320  23.468  0.00  0.00    +0.118 HD
ATOM     25  H   UNL     1       8.161  -6.400  22.208  0.00  0.00    +0.118 HD
ENDBRANCH  22  23
ENDBRANCH  21  22
ENDBRANCH  20  21
ENDBRANCH  19  20
ENDBRANCH   6  19
ENDBRANCH   3   6
ENDBRANCH   1   2
BRANCH   1  27
ATOM     26  C   UNL     1       9.473  -2.273  23.397  0.00  0.00    +0.218 C 
ATOM     27  N   UNL     1       8.679  -3.261  23.948  0.00  0.00    -0.302 N 
ATOM     28  H   UNL     1       7.697  -3.248  23.694  0.00  0.00    +0.150 HD
ATOM     29  O   UNL     1      10.525  -1.904  23.913  0.00  0.00    -0.275 OA
BRANCH  26  30
ATOM     30  C   UNL     1       8.934  -1.664  22.115  0.00  0.00    +0.130 C 
BRANCH  30  34
ATOM     31  C   UNL     1       7.111   2.268  22.250  0.00  0.00    -0.047 A 
ATOM     32  C   UNL     1       6.748   1.292  23.188  0.00  0.00    +0.004 A 
ATOM     33  C   UNL     1       7.358   0.033  23.182  0.00  0.00    +0.004 A 
ATOM     34  C   UNL     1       8.357  -0.274  22.248  0.00  0.00    -0.039 A 
ATOM     35  C   UNL     1       8.737   0.717  21.330  0.00  0.00    +0.004 A 
ATOM     36  C   UNL     1       8.128   1.975  21.338  0.00  0.00    +0.004 A 
BRANCH  31  37
ATOM     37  C   UNL     1       6.416   3.608  22.234  0.00  0.00    +0.035 C 
BRANCH  37  38
ATOM     38  C   UNL     1       7.389   4.793  22.142  0.00  0.00    +0.006 C 
BRANCH  38  39
ATOM     39  C   UNL     1       7.583   5.436  23.517  0.00  0.00    +0.022 C 
BRANCH  39  40
ATOM     40  C   UNL     1       8.550   4.642  24.394  0.00  0.00    +0.123 C 
BRANCH  40  43
ATOM     41  C   UNL     1      10.598   2.377  23.838  0.00  0.00    +0.086 C 
ATOM     42  C   UNL     1      10.853   3.832  23.698  0.00  0.00    +0.106 A 
ATOM     43  N   UNL     1       9.926   4.815  23.956  0.00  0.00    -0.335 N 
ATOM     44  C   UNL     1      10.519   6.025  23.708  0.00  0.00    +0.107 A 
ATOM     45  C   UNL     1      11.793   5.724  23.301  0.00  0.00    +0.130 A 
ATOM     46  N   UNL     1      11.991   4.368  23.299  0.00  0.00    -0.241 NA
ENDBRANCH  40  43
ENDBRANCH  39  40
ENDBRANCH  38  39
ENDBRANCH  37  38
ENDBRANCH  31  37
ENDBRANCH  30  34
ENDBRANCH  26  30
ENDBRANCH   1  27
BRANCH   1  47
ATOM     47  C   UNL     1       9.744  -5.101  25.212  0.00  0.00    +0.187 C 
BRANCH  47  48
ATOM     48  O   UNL     1       8.931  -6.185  25.658  0.00  0.00    -0.393 OA
ATOM     49  H   UNL     1       8.535  -6.592  24.867  0.00  0.00    +0.209 HD
ENDBRANCH  47  48
ENDBRANCH   1  47
TORSDOF 21
ENDMDL
MODEL 9
REMARK VINA RESULT:      -5.3      2.282      8.178
REMARK  Name = 
REMARK  22 active torsions:
REMARK  status: ('A' for Active; 'I' for Inactive)
REMARK    1  A    between atoms: C_1  and  C_2
REMARK    2  A    between atoms: N_6  and  C_7
REMARK    3  A    between atoms: C_7  and  C_8
REMARK    4  A    between atoms: C_8  and  C_9
REMARK    5  A    between atoms: C_9  and  C_10
REMARK    6  A    between atoms: C_10  and  C_11
REMARK    7  A    between atoms: C_14  and  C_15
REMARK    8  A    between atoms: C_15  and  C_16
REMARK    9  A    between atoms: N_18  and  CA_19
REMARK   10  A    between atoms: CA_19  and  C_21
REMARK   11  A    between atoms: CA_19  and  C_23
REMARK   12  A    between atoms: C_21  and  O_22
REMARK   13  A    between atoms: N_25  and  C_26
REMARK   14  A    between atoms: C_26  and  C_28
REMARK   15  A    between atoms: C_26  and  C_33
REMARK   16  A    between atoms: C_28  and  C_29
REMARK   17  A    between atoms: C_29  and  C_30
REMARK   18  A    between atoms: C_30  and  C_31
REMARK   19  A    between atoms: C_31  and  N_32
REMARK   20  A    between atoms: N_35  and  C_36
REMARK   21  A    between atoms: C_36  and  C_37
REMARK   22  A    between atoms: C_37  and  C_38
REMARK                            x       y       z     vdW  Elec       q    Type
REMARK                         _______ _______ _______ _____ _____    ______ ____
ROOT
ATOM      1  CA  UNL     1       8.744  -4.466  24.520  0.00  0.00    +0.184 C 
ENDROOT
BRANCH   1   2
ATOM      2  C   UNL     1       9.371  -3.109  24.155  0.00  0.00    +0.236 C 
ATOM      3  N   UNL     1       8.558  -2.012  24.328  0.00  0.00    -0.302 N 
ATOM      4  H   UNL     1       7.695  -2.138  24.845  0.00  0.00    +0.150 HD
ATOM      5  O   UNL     1      10.513  -3.021  23.701  0.00  0.00    -0.274 OA
BRANCH   3   6
ATOM      6  C   UNL     1       9.024  -0.629  24.128  0.00  0.00    +0.159 C 
BRANCH   6   7
ATOM      7  C   UNL     1       8.040   0.162  23.223  0.00  0.00    +0.233 C 
ATOM      8  N   UNL     1       8.534   1.345  22.736  0.00  0.00    -0.314 N 
ATOM      9  H   UNL     1       9.413   1.683  23.127  0.00  0.00    +0.149 HD
ATOM     10  O   UNL     1       6.884  -0.203  23.016  0.00  0.00    -0.274 OA
BRANCH   8  11
ATOM     11  C   UNL     1       7.751   2.219  21.896  0.00  0.00    +0.104 C 
BRANCH  11  12
ATOM     12  C   UNL     1       7.465   3.553  22.583  0.00  0.00    +0.022 C 
BRANCH  12  13
ATOM     13  C   UNL     1       8.221   3.766  23.914  0.00  0.00    -0.010 C 
ATOM     14  C   UNL     1       7.305   4.413  24.967  0.00  0.00    +0.003 C 
ATOM     15  C   UNL     1       7.013   5.883  24.673  0.00  0.00    +0.000 C 
ATOM     16  C   UNL     1       8.291   6.692  24.468  0.00  0.00    +0.000 C 
ATOM     17  C   UNL     1       9.226   6.054  23.442  0.00  0.00    +0.000 C 
ATOM     18  C   UNL     1       9.511   4.595  23.780  0.00  0.00    +0.003 C 
ENDBRANCH  12  13
ENDBRANCH  11  12
ENDBRANCH   8  11
ENDBRANCH   6   7
BRANCH   6  19
ATOM     19  C   UNL     1       9.179   0.114  25.466  0.00  0.00    +0.032 C 
BRANCH  19  20
ATOM     20  C   UNL     1       7.866   0.680  26.008  0.00  0.00    +0.003 C 
BRANCH  20  21
ATOM     21  C   UNL     1       7.173  -0.326  26.933  0.00  0.00    +0.015 C 
BRANCH  21  22
ATOM     22  C   UNL     1       5.817  -0.735  26.361  0.00  0.00    +0.077 C 
BRANCH  22  23
ATOM     23  N   UNL     1       5.940  -1.958  25.579  0.00  0.00    -0.330 NA
ATOM     24  H   UNL     1       6.198  -1.718  24.622  0.00  0.00    +0.118 HD
ATOM     25  H   UNL     1       6.702  -2.527  25.944  0.00  0.00    +0.118 HD
ENDBRANCH  22  23
ENDBRANCH  21  22
ENDBRANCH  20  21
ENDBRANCH  19  20
ENDBRANCH   6  19
ENDBRANCH   3   6
ENDBRANCH   1   2
BRANCH   1  27
ATOM     26  C   UNL     1       6.890  -5.118  23.044  0.00  0.00    +0.218 C 
ATOM     27  N   UNL     1       7.328  -4.405  24.144  0.00  0.00    -0.302 N 
ATOM     28  H   UNL     1       6.852  -3.531  24.338  0.00  0.00    +0.150 HD
ATOM     29  O   UNL     1       7.601  -5.927  22.452  0.00  0.00    -0.275 OA
BRANCH  26  30
ATOM     30  C   UNL     1       5.468  -4.811  22.612  0.00  0.00    +0.130 C 
BRANCH  30  34
ATOM     31  C   UNL     1       2.217  -6.807  24.673  0.00  0.00    -0.047 A 
ATOM     32  C   UNL     1       3.480  -7.410  24.602  0.00  0.00    +0.004 A 
ATOM     33  C   UNL     1       4.549  -6.759  23.977  0.00  0.00    +0.004 A 
ATOM     34  C   UNL     1       4.383  -5.483  23.421  0.00  0.00    -0.039 A 
ATOM     35  C   UNL     1       3.124  -4.871  23.520  0.00  0.00    +0.004 A 
ATOM     36  C   UNL     1       2.058  -5.521  24.147  0.00  0.00    +0.004 A 
BRANCH  31  37
ATOM     37  C   UNL     1       1.057  -7.534  25.309  0.00  0.00    +0.035 C 
BRANCH  37  38
ATOM     38  C   UNL     1       0.654  -6.954  26.673  0.00  0.00    +0.006 C 
BRANCH  38  39
ATOM     39  C   UNL     1       1.675  -7.342  27.744  0.00  0.00    +0.022 C 
BRANCH  39  40
ATOM     40  C   UNL     1       2.295  -6.120  28.421  0.00  0.00    +0.123 C 
BRANCH  40  43
ATOM     41  C   UNL     1       3.144  -3.499  26.991  0.00  0.00    +0.086 C 
ATOM     42  C   UNL     1       4.017  -4.672  27.244  0.00  0.00    +0.106 A 
ATOM     43  N   UNL     1       3.610  -5.824  27.877  0.00  0.00    -0.335 N 
ATOM     44  C   UNL     1       4.686  -6.671  27.935  0.00  0.00    +0.107 A 
ATOM     45  C   UNL     1       5.712  -5.990  27.332  0.00  0.00    +0.130 A 
ATOM     46  N   UNL     1       5.289  -4.758  26.907  0.00  0.00    -0.241 NA
ENDBRANCH  40  43
ENDBRANCH  39  40
ENDBRANCH  38  39
ENDBRANCH  37  38
ENDBRANCH  31  37
ENDBRANCH  30  34
ENDBRANCH  26  30
ENDBRANCH   1  27
BRANCH   1  47
ATOM     47  C   UNL     1       8.909  -4.698  26.024  0.00  0.00    +0.187 C 
BRANCH  47  48
ATOM     48  O   UNL     1       8.222  -3.705  26.784  0.00  0.00    -0.393 OA
ATOM     49  H   UNL     1       8.768  -2.898  26.763  0.00  0.00    +0.209 HD
ENDBRANCH  47  48
ENDBRANCH   1  47
TORSDOF 21
ENDMDL
