MODEL 1
REMARK VINA RESULT:      -6.3      0.000      0.000
REMARK  Name = 
REMARK  3 active torsions:
REMARK  status: ('A' for Active; 'I' for Inactive)
REMARK    1  A    between atoms: C_2  and  C_19
REMARK    2  A    between atoms: C_8  and  S_15
REMARK    3  A    between atoms: S_15  and  N_16
REMARK                            x       y       z     vdW  Elec       q    Type
REMARK                         _______ _______ _______ _____ _____    ______ ____
ROOT
ATOM      1  C   UNL     1       7.348  -5.200  24.219  0.00  0.00    +0.192 C 
ATOM      2  N   UNL     1       6.450  -5.050  23.086  0.00  0.00    -0.167 NA
ATOM      3  H   UNL     1       6.815  -5.410  22.208  0.00  0.00    +0.150 HD
ATOM      4  S   UNL     1       5.784  -3.536  22.890  0.00  0.00    +0.062 S 
ATOM      5  O   UNL     1       4.836  -3.318  23.958  0.00  0.00    -0.153 OA
ATOM      6  O   UNL     1       5.430  -3.417  21.495  0.00  0.00    -0.153 OA
ATOM      7  C   UNL     1       7.141  -2.464  23.203  0.00  0.00    +0.128 A 
ATOM      8  C   UNL     1       8.324  -2.997  23.715  0.00  0.00    +0.057 A 
ATOM      9  C   UNL     1       9.404  -2.118  23.875  0.00  0.00    +0.047 A 
ATOM     10  C   UNL     1       9.270  -0.737  23.654  0.00  0.00    +0.069 A 
ATOM     11  C   UNL     1       8.043  -0.226  23.231  0.00  0.00    +0.125 A 
ATOM     12 CL   UNL     1      10.669   0.229  23.956  0.00  0.00    -0.081 Cl
ATOM     13  C   UNL     1       6.978  -1.095  22.969  0.00  0.00    +0.060 A 
ATOM     14  N   UNL     1       8.517  -4.358  23.951  0.00  0.00    -0.324 N 
ATOM     15  H   UNL     1       9.277  -4.547  24.607  0.00  0.00    +0.148 HD
ENDROOT
BRANCH   1  16
ATOM     16  C   UNL     1       6.717  -4.992  25.635  0.00  0.00    +0.207 C 
ATOM     17 CL   UNL     1       7.987  -5.168  26.901  0.00  0.00    -0.101 Cl
ATOM     18 CL   UNL     1       5.430  -6.184  25.969  0.00  0.00    -0.101 Cl
ENDBRANCH   1  16
BRANCH  11  19
ATOM     19  S   UNL     1       7.766   1.509  23.075  0.00  0.00    +0.057 S 
ATOM     20  O   UNL     1       8.479   1.988  21.914  0.00  0.00    -0.153 OA
ATOM     21  O   UNL     1       7.897   2.135  24.368  0.00  0.00    -0.153 OA
BRANCH  19  22
ATOM     22  N   UNL     1       6.147   1.573  22.639  0.00  0.00    -0.203 NA
ATOM     23  H   UNL     1       6.035   1.308  21.659  0.00  0.00    +0.144 HD
ATOM     24  H   UNL     1       5.756   2.487  22.871  0.00  0.00    +0.144 HD
ENDBRANCH  19  22
ENDBRANCH  11  19
TORSDOF 3
ENDMDL
MODEL 2
REMARK VINA RESULT:      -6.3      2.892      3.337
REMARK  Name = 
REMARK  3 active torsions:
REMARK  status: ('A' for Active; 'I' for Inactive)
REMARK    1  A    between atoms: C_2  and  C_19
REMARK    2  A    between atoms: C_8  and  S_15
REMARK    3  A    between atoms: S_15  and  N_16
REMARK                            x       y       z     vdW  Elec       q    Type
REMARK                         _______ _______ _______ _____ _____    ______ ____
ROOT
ATOM      1  C   UNL     1       7.011  -5.077  26.713  0.00  0.00    +0.192 C 
ATOM      2  N   UNL     1       8.327  -5.624  26.431  0.00  0.00    -0.167 NA
ATOM      3  H   UNL     1       8.975  -5.589  27.216  0.00  0.00    +0.150 HD
ATOM      4  S   UNL     1       9.046  -5.088  25.028  0.00  0.00    +0.062 S 
ATOM      5  O   UNL     1       8.325  -5.650  23.909  0.00  0.00    -0.153 OA
ATOM      6  O   UNL     1      10.469  -5.252  25.202  0.00  0.00    -0.153 OA
ATOM      7  C   UNL     1       8.689  -3.366  25.035  0.00  0.00    +0.128 A 
ATOM      8  C   UNL     1       7.792  -2.862  25.976  0.00  0.00    +0.057 A 
ATOM      9  C   UNL     1       7.597  -1.473  25.994  0.00  0.00    +0.047 A 
ATOM     10  C   UNL     1       8.178  -0.635  25.027  0.00  0.00    +0.069 A 
ATOM     11  C   UNL     1       8.997  -1.188  24.043  0.00  0.00    +0.125 A 
ATOM     12 CL   UNL     1       7.796   1.045  25.138  0.00  0.00    -0.081 Cl
ATOM     13  C   UNL     1       9.285  -2.557  24.063  0.00  0.00    +0.060 A 
ATOM     14  N   UNL     1       7.188  -3.644  26.961  0.00  0.00    -0.324 N 
ATOM     15  H   UNL     1       6.342  -3.219  27.347  0.00  0.00    +0.148 HD
ENDROOT
BRANCH   1  16
ATOM     16  C   UNL     1       5.884  -5.416  25.682  0.00  0.00    +0.207 C 
ATOM     17 CL   UNL     1       4.707  -4.055  25.593  0.00  0.00    -0.101 Cl
ATOM     18 CL   UNL     1       4.992  -6.895  26.138  0.00  0.00    -0.101 Cl
ENDBRANCH   1  16
BRANCH  11  19
ATOM     19  S   UNL     1       9.638  -0.216  22.718  0.00  0.00    +0.057 S 
ATOM     20  O   UNL     1      10.714   0.602  23.224  0.00  0.00    -0.153 OA
ATOM     21  O   UNL     1       8.546   0.338  21.957  0.00  0.00    -0.153 OA
BRANCH  19  22
ATOM     22  N   UNL     1      10.392  -1.371  21.762  0.00  0.00    -0.203 NA
ATOM     23  H   UNL     1      10.105  -1.265  20.788  0.00  0.00    +0.144 HD
ATOM     24  H   UNL     1      10.232  -2.304  22.145  0.00  0.00    +0.144 HD
ENDBRANCH  19  22
ENDBRANCH  11  19
TORSDOF 3
ENDMDL
MODEL 3
REMARK VINA RESULT:      -6.2      3.788      6.495
REMARK  Name = 
REMARK  3 active torsions:
REMARK  status: ('A' for Active; 'I' for Inactive)
REMARK    1  A    between atoms: C_2  and  C_19
REMARK    2  A    between atoms: C_8  and  S_15
REMARK    3  A    between atoms: S_15  and  N_16
REMARK                            x       y       z     vdW  Elec       q    Type
REMARK                         _______ _______ _______ _____ _____    ______ ____
ROOT
ATOM      1  C   UNL     1       8.898  -2.441  23.446  0.00  0.00    +0.192 C 
ATOM      2  N   UNL     1       9.724  -3.457  24.075  0.00  0.00    -0.167 NA
ATOM      3  H   UNL     1      10.201  -4.076  23.422  0.00  0.00    +0.150 HD
ATOM      4  S   UNL     1       9.002  -4.315  25.305  0.00  0.00    +0.062 S 
ATOM      5  O   UNL     1       8.836  -3.431  26.435  0.00  0.00    -0.153 OA
ATOM      6  O   UNL     1       9.699  -5.576  25.396  0.00  0.00    -0.153 OA
ATOM      7  C   UNL     1       7.390  -4.626  24.676  0.00  0.00    +0.128 A 
ATOM      8  C   UNL     1       6.983  -3.988  23.505  0.00  0.00    +0.057 A 
ATOM      9  C   UNL     1       5.720  -4.325  22.998  0.00  0.00    +0.047 A 
ATOM     10  C   UNL     1       4.845  -5.170  23.701  0.00  0.00    +0.069 A 
ATOM     11  C   UNL     1       5.252  -5.718  24.918  0.00  0.00    +0.125 A 
ATOM     12 CL   UNL     1       3.298  -5.442  22.985  0.00  0.00    -0.081 Cl
ATOM     13  C   UNL     1       6.545  -5.475  25.396  0.00  0.00    +0.060 A 
ATOM     14  N   UNL     1       7.807  -3.141  22.762  0.00  0.00    -0.324 N 
ATOM     15  H   UNL     1       7.287  -2.517  22.143  0.00  0.00    +0.148 HD
ENDROOT
BRANCH   1  16
ATOM     16  C   UNL     1       8.429  -1.263  24.363  0.00  0.00    +0.207 C 
ATOM     17 CL   UNL     1       7.295  -0.196  23.457  0.00  0.00    -0.101 Cl
ATOM     18 CL   UNL     1       9.805  -0.269  24.918  0.00  0.00    -0.101 Cl
ENDBRANCH   1  16
BRANCH  11  19
ATOM     19  S   UNL     1       4.153  -6.667  25.919  0.00  0.00    +0.057 S 
ATOM     20  O   UNL     1       3.835  -7.892  25.223  0.00  0.00    -0.153 OA
ATOM     21  O   UNL     1       3.132  -5.806  26.461  0.00  0.00    -0.153 OA
BRANCH  19  22
ATOM     22  N   UNL     1       5.146  -7.142  27.187  0.00  0.00    -0.203 NA
ATOM     23  H   UNL     1       6.030  -6.632  27.152  0.00  0.00    +0.144 HD
ATOM     24  H   UNL     1       5.250  -8.157  27.191  0.00  0.00    +0.144 HD
ENDBRANCH  19  22
ENDBRANCH  11  19
TORSDOF 3
ENDMDL
MODEL 4
REMARK VINA RESULT:      -6.0      3.170      6.308
REMARK  Name = 
REMARK  3 active torsions:
REMARK  status: ('A' for Active; 'I' for Inactive)
REMARK    1  A    between atoms: C_2  and  C_19
REMARK    2  A    between atoms: C_8  and  S_15
REMARK    3  A    between atoms: S_15  and  N_16
REMARK                            x       y       z     vdW  Elec       q    Type
REMARK                         _______ _______ _______ _____ _____    ______ ____
ROOT
ATOM      1  C   UNL     1       7.670   0.132  23.005  0.00  0.00    +0.192 C 
ATOM      2  N   UNL     1       8.901  -0.616  22.819  0.00  0.00    -0.167 NA
ATOM      3  H   UNL     1       8.982  -1.077  21.915  0.00  0.00    +0.150 HD
ATOM      4  S   UNL     1       9.317  -1.643  24.062  0.00  0.00    +0.062 S 
ATOM      5  O   UNL     1       9.711  -0.840  25.197  0.00  0.00    -0.153 OA
ATOM      6  O   UNL     1      10.167  -2.661  23.493  0.00  0.00    -0.153 OA
ATOM      7  C   UNL     1       7.782  -2.387  24.489  0.00  0.00    +0.128 A 
ATOM      8  C   UNL     1       6.606  -1.885  23.934  0.00  0.00    +0.057 A 
ATOM      9  C   UNL     1       5.415  -2.558  24.242  0.00  0.00    +0.047 A 
ATOM     10  C   UNL     1       5.383  -3.613  25.169  0.00  0.00    +0.069 A 
ATOM     11  C   UNL     1       6.569  -4.029  25.775  0.00  0.00    +0.125 A 
ATOM     12 CL   UNL     1       3.834  -4.303  25.495  0.00  0.00    -0.081 Cl
ATOM     13  C   UNL     1       7.784  -3.438  25.411  0.00  0.00    +0.060 A 
ATOM     14  N   UNL     1       6.575  -0.842  23.007  0.00  0.00    -0.324 N 
ATOM     15  H   UNL     1       5.663  -0.385  22.948  0.00  0.00    +0.148 HD
ENDROOT
BRANCH   1  16
ATOM     16  C   UNL     1       7.642   1.133  24.208  0.00  0.00    +0.207 C 
ATOM     17 CL   UNL     1       6.066   2.006  24.240  0.00  0.00    -0.101 Cl
ATOM     18 CL   UNL     1       8.948   2.345  24.091  0.00  0.00    -0.101 Cl
ENDBRANCH   1  16
BRANCH  11  19
ATOM     19  S   UNL     1       6.578  -5.247  27.051  0.00  0.00    +0.057 S 
ATOM     20  O   UNL     1       5.986  -6.459  26.536  0.00  0.00    -0.153 OA
ATOM     21  O   UNL     1       6.147  -4.649  28.290  0.00  0.00    -0.153 OA
BRANCH  19  22
ATOM     22  N   UNL     1       8.214  -5.598  27.195  0.00  0.00    -0.203 NA
ATOM     23  H   UNL     1       8.632  -5.717  26.271  0.00  0.00    +0.144 HD
ATOM     24  H   UNL     1       8.349  -6.395  27.819  0.00  0.00    +0.144 HD
ENDBRANCH  19  22
ENDBRANCH  11  19
TORSDOF 3
ENDMDL
MODEL 5
REMARK VINA RESULT:      -6.0      2.687      5.914
REMARK  Name = 
REMARK  3 active torsions:
REMARK  status: ('A' for Active; 'I' for Inactive)
REMARK    1  A    between atoms: C_2  and  C_19
REMARK    2  A    between atoms: C_8  and  S_15
REMARK    3  A    between atoms: S_15  and  N_16
REMARK                            x       y       z     vdW  Elec       q    Type
REMARK                         _______ _______ _______ _____ _____    ______ ____
ROOT
ATOM      1  C   UNL     1      10.221   0.141  24.288  0.00  0.00    +0.192 C 
ATOM      2  N   UNL     1       9.677   0.345  25.620  0.00  0.00    -0.167 NA
ATOM      3  H   UNL     1      10.223  -0.078  26.367  0.00  0.00    +0.150 HD
ATOM      4  S   UNL     1       8.054   0.019  25.794  0.00  0.00    +0.062 S 
ATOM      5  O   UNL     1       7.310   1.038  25.090  0.00  0.00    -0.153 OA
ATOM      6  O   UNL     1       7.839  -0.281  27.190  0.00  0.00    -0.153 OA
ATOM      7  C   UNL     1       7.850  -1.468  24.879  0.00  0.00    +0.128 A 
ATOM      8  C   UNL     1       8.901  -1.927  24.085  0.00  0.00    +0.057 A 
ATOM      9  C   UNL     1       8.721  -3.156  23.435  0.00  0.00    +0.047 A 
ATOM     10  C   UNL     1       7.493  -3.838  23.472  0.00  0.00    +0.069 A 
ATOM     11  C   UNL     1       6.433  -3.300  24.202  0.00  0.00    +0.125 A 
ATOM     12 CL   UNL     1       7.402  -5.307  22.570  0.00  0.00    -0.081 Cl
ATOM     13  C   UNL     1       6.618  -2.125  24.940  0.00  0.00    +0.060 A 
ATOM     14  N   UNL     1      10.143  -1.296  24.011  0.00  0.00    -0.324 N 
ATOM     15  H   UNL     1      10.671  -1.548  23.173  0.00  0.00    +0.148 HD
ENDROOT
BRANCH   1  16
ATOM     16  C   UNL     1       9.635   1.047  23.154  0.00  0.00    +0.207 C 
ATOM     17 CL   UNL     1       9.759   0.198  21.569  0.00  0.00    -0.101 Cl
ATOM     18 CL   UNL     1      10.513   2.597  23.025  0.00  0.00    -0.101 Cl
ENDBRANCH   1  16
BRANCH  11  19
ATOM     19  S   UNL     1       4.826  -4.028  24.173  0.00  0.00    +0.057 S 
ATOM     20  O   UNL     1       4.834  -5.200  25.016  0.00  0.00    -0.153 OA
ATOM     21  O   UNL     1       4.339  -4.062  22.816  0.00  0.00    -0.153 OA
BRANCH  19  22
ATOM     22  N   UNL     1       3.910  -2.901  25.016  0.00  0.00    -0.203 NA
ATOM     23  H   UNL     1       4.371  -1.990  25.002  0.00  0.00    +0.144 HD
ATOM     24  H   UNL     1       3.701  -3.248  25.953  0.00  0.00    +0.144 HD
ENDBRANCH  19  22
ENDBRANCH  11  19
TORSDOF 3
ENDMDL
MODEL 6
REMARK VINA RESULT:      -5.8      2.740      3.116
REMARK  Name = 
REMARK  3 active torsions:
REMARK  status: ('A' for Active; 'I' for Inactive)
REMARK    1  A    between atoms: C_2  and  C_19
REMARK    2  A    between atoms: C_8  and  S_15
REMARK    3  A    between atoms: S_15  and  N_16
REMARK                            x       y       z     vdW  Elec       q    Type
REMARK                         _______ _______ _______ _____ _____    ______ ____
ROOT
ATOM      1  C   UNL     1       7.914  -3.390  25.686  0.00  0.00    +0.192 C 
ATOM      2  N   UNL     1       9.077  -3.610  24.845  0.00  0.00    -0.167 NA
ATOM      3  H   UNL     1       9.956  -3.693  25.353  0.00  0.00    +0.150 HD
ATOM      4  S   UNL     1       9.227  -2.590  23.538  0.00  0.00    +0.062 S 
ATOM      5  O   UNL     1       8.194  -2.923  22.584  0.00  0.00    -0.153 OA
ATOM      6  O   UNL     1      10.628  -2.560  23.193  0.00  0.00    -0.153 OA
ATOM      7  C   UNL     1       8.796  -1.023  24.210  0.00  0.00    +0.128 A 
ATOM      8  C   UNL     1       8.258  -0.959  25.495  0.00  0.00    +0.057 A 
ATOM      9  C   UNL     1       8.002   0.316  26.019  0.00  0.00    +0.047 A 
ATOM     10  C   UNL     1       8.158   1.476  25.243  0.00  0.00    +0.069 A 
ATOM     11  C   UNL     1       8.612   1.366  23.928  0.00  0.00    +0.125 A 
ATOM     12 CL   UNL     1       7.743   2.970  26.002  0.00  0.00    -0.081 Cl
ATOM     13  C   UNL     1       8.967   0.114  23.415  0.00  0.00    +0.060 A 
ATOM     14  N   UNL     1       8.084  -2.076  26.313  0.00  0.00    -0.324 N 
ATOM     15  H   UNL     1       7.403  -1.923  27.060  0.00  0.00    +0.148 HD
ENDROOT
BRANCH   1  16
ATOM     16  C   UNL     1       6.519  -3.604  25.010  0.00  0.00    +0.207 C 
ATOM     17 CL   UNL     1       5.209  -3.082  26.133  0.00  0.00    -0.101 Cl
ATOM     18 CL   UNL     1       6.242  -5.318  24.591  0.00  0.00    -0.101 Cl
ENDBRANCH   1  16
BRANCH  11  19
ATOM     19  S   UNL     1       8.691   2.765  22.856  0.00  0.00    +0.057 S 
ATOM     20  O   UNL     1       9.639   3.709  23.398  0.00  0.00    -0.153 OA
ATOM     21  O   UNL     1       7.356   3.152  22.472  0.00  0.00    -0.153 OA
BRANCH  19  22
ATOM     22  N   UNL     1       9.448   2.130  21.499  0.00  0.00    -0.203 NA
ATOM     23  H   UNL     1       9.368   1.112  21.494  0.00  0.00    +0.144 HD
ATOM     24  H   UNL     1      10.408   2.474  21.438  0.00  0.00    +0.144 HD
ENDBRANCH  19  22
ENDBRANCH  11  19
TORSDOF 3
ENDMDL
MODEL 7
REMARK VINA RESULT:      -5.8      3.042      6.173
REMARK  Name = 
REMARK  3 active torsions:
REMARK  status: ('A' for Active; 'I' for Inactive)
REMARK    1  A    between atoms: C_2  and  C_19
REMARK    2  A    between atoms: C_8  and  S_15
REMARK    3  A    between atoms: S_15  and  N_16
REMARK                            x       y       z     vdW  Elec       q    Type
REMARK                         _______ _______ _______ _____ _____    ______ ____
ROOT
ATOM      1  C   UNL     1       9.561   0.659  23.799  0.00  0.00    +0.192 C 
ATOM      2  N   UNL     1       9.046   1.202  25.043  0.00  0.00    -0.167 NA
ATOM      3  H   UNL     1       9.758   1.396  25.745  0.00  0.00    +0.150 HD
ATOM      4  S   UNL     1       7.750   0.392  25.703  0.00  0.00    +0.062 S 
ATOM      5  O   UNL     1       6.598   0.625  24.864  0.00  0.00    -0.153 OA
ATOM      6  O   UNL     1       7.757   0.681  27.117  0.00  0.00    -0.153 OA
ATOM      7  C   UNL     1       8.189  -1.296  25.488  0.00  0.00    +0.128 A 
ATOM      8  C   UNL     1       9.296  -1.616  24.703  0.00  0.00    +0.057 A 
ATOM      9  C   UNL     1       9.655  -2.969  24.622  0.00  0.00    +0.047 A 
ATOM     10  C   UNL     1       8.863  -3.976  25.200  0.00  0.00    +0.069 A 
ATOM     11  C   UNL     1       7.710  -3.625  25.901  0.00  0.00    +0.125 A 
ATOM     12 CL   UNL     1       9.396  -5.602  24.963  0.00  0.00    -0.081 Cl
ATOM     13  C   UNL     1       7.384  -2.276  26.078  0.00  0.00    +0.060 A 
ATOM     14  N   UNL     1      10.120  -0.660  24.108  0.00  0.00    -0.324 N 
ATOM     15  H   UNL     1      10.666  -1.031  23.328  0.00  0.00    +0.148 HD
ENDROOT
BRANCH   1  16
ATOM     16  C   UNL     1       8.581   0.671  22.579  0.00  0.00    +0.207 C 
ATOM     17 CL   UNL     1       9.277  -0.293  21.225  0.00  0.00    -0.101 Cl
ATOM     18 CL   UNL     1       8.283   2.329  21.985  0.00  0.00    -0.101 Cl
ENDBRANCH   1  16
BRANCH  11  19
ATOM     19  S   UNL     1       6.598  -4.844  26.524  0.00  0.00    +0.057 S 
ATOM     20  O   UNL     1       6.213  -5.716  25.439  0.00  0.00    -0.153 OA
ATOM     21  O   UNL     1       5.626  -4.215  27.383  0.00  0.00    -0.153 OA
BRANCH  19  22
ATOM     22  N   UNL     1       7.602  -5.781  27.489  0.00  0.00    -0.203 NA
ATOM     23  H   UNL     1       7.421  -6.773  27.329  0.00  0.00    +0.144 HD
ATOM     24  H   UNL     1       7.519  -5.494  28.466  0.00  0.00    +0.144 HD
ENDBRANCH  19  22
ENDBRANCH  11  19
TORSDOF 3
ENDMDL
MODEL 8
REMARK VINA RESULT:      -5.7      4.585      6.147
REMARK  Name = 
REMARK  3 active torsions:
REMARK  status: ('A' for Active; 'I' for Inactive)
REMARK    1  A    between atoms: C_2  and  C_19
REMARK    2  A    between atoms: C_8  and  S_15
REMARK    3  A    between atoms: S_15  and  N_16
REMARK                            x       y       z     vdW  Elec       q    Type
REMARK                         _______ _______ _______ _____ _____    ______ ____
ROOT
ATOM      1  C   UNL     1       9.838   0.251  24.723  0.00  0.00    +0.192 C 
ATOM      2  N   UNL     1      10.929   1.110  24.295  0.00  0.00    -0.167 NA
ATOM      3  H   UNL     1      11.505   1.470  25.053  0.00  0.00    +0.150 HD
ATOM      4  S   UNL     1      10.519   2.315  23.221  0.00  0.00    +0.062 S 
ATOM      5  O   UNL     1      10.206   1.701  21.951  0.00  0.00    -0.153 OA
ATOM      6  O   UNL     1      11.513   3.353  23.363  0.00  0.00    -0.153 OA
ATOM      7  C   UNL     1       9.001   2.921  23.868  0.00  0.00    +0.128 A 
ATOM      8  C   UNL     1       8.377   2.225  24.903  0.00  0.00    +0.057 A 
ATOM      9  C   UNL     1       7.210   2.786  25.439  0.00  0.00    +0.047 A 
ATOM     10  C   UNL     1       6.618   3.931  24.880  0.00  0.00    +0.069 A 
ATOM     11  C   UNL     1       7.222   4.549  23.784  0.00  0.00    +0.125 A 
ATOM     12 CL   UNL     1       5.147   4.469  25.607  0.00  0.00    -0.081 Cl
ATOM     13  C   UNL     1       8.439   4.065  23.293  0.00  0.00    +0.060 A 
ATOM     14  N   UNL     1       8.918   1.085  25.500  0.00  0.00    -0.324 N 
ATOM     15  H   UNL     1       8.221   0.522  25.992  0.00  0.00    +0.148 HD
ENDROOT
BRANCH   1  16
ATOM     16  C   UNL     1       9.147  -0.600  23.606  0.00  0.00    +0.207 C 
ATOM     17 CL   UNL     1       7.653  -1.366  24.258  0.00  0.00    -0.101 Cl
ATOM     18 CL   UNL     1      10.218  -1.896  23.003  0.00  0.00    -0.101 Cl
ENDBRANCH   1  16
BRANCH  11  19
ATOM     19  S   UNL     1       6.457   5.899  22.946  0.00  0.00    +0.057 S 
ATOM     20  O   UNL     1       6.703   7.108  23.696  0.00  0.00    -0.153 OA
ATOM     21  O   UNL     1       5.133   5.515  22.523  0.00  0.00    -0.153 OA
BRANCH  19  22
ATOM     22  N   UNL     1       7.408   6.049  21.571  0.00  0.00    -0.203 NA
ATOM     23  H   UNL     1       6.819   6.174  20.747  0.00  0.00    +0.144 HD
ATOM     24  H   UNL     1       8.057   5.263  21.505  0.00  0.00    +0.144 HD
ENDBRANCH  19  22
ENDBRANCH  11  19
TORSDOF 3
ENDMDL
MODEL 9
REMARK VINA RESULT:      -5.7      2.719      6.180
REMARK  Name = 
REMARK  3 active torsions:
REMARK  status: ('A' for Active; 'I' for Inactive)
REMARK    1  A    between atoms: C_2  and  C_19
REMARK    2  A    between atoms: C_8  and  S_15
REMARK    3  A    between atoms: S_15  and  N_16
REMARK                            x       y       z     vdW  Elec       q    Type
REMARK                         _______ _______ _______ _____ _____    ______ ____
ROOT
ATOM      1  C   UNL     1       7.324   1.490  23.201  0.00  0.00    +0.192 C 
ATOM      2  N   UNL     1       8.478   1.231  22.358  0.00  0.00    -0.167 NA
ATOM      3  H   UNL     1       8.270   1.178  21.363  0.00  0.00    +0.150 HD
ATOM      4  S   UNL     1       9.455  -0.029  22.839  0.00  0.00    +0.062 S 
ATOM      5  O   UNL     1      10.144   0.370  24.045  0.00  0.00    -0.153 OA
ATOM      6  O   UNL     1      10.147  -0.490  21.660  0.00  0.00    -0.153 OA
ATOM      7  C   UNL     1       8.298  -1.265  23.313  0.00  0.00    +0.128 A 
ATOM      8  C   UNL     1       6.947  -0.934  23.403  0.00  0.00    +0.057 A 
ATOM      9  C   UNL     1       6.053  -1.970  23.708  0.00  0.00    +0.047 A 
ATOM     10  C   UNL     1       6.504  -3.260  24.037  0.00  0.00    +0.069 A 
ATOM     11  C   UNL     1       7.872  -3.531  24.026  0.00  0.00    +0.125 A 
ATOM     12 CL   UNL     1       5.290  -4.415  24.454  0.00  0.00    -0.081 Cl
ATOM     13  C   UNL     1       8.777  -2.540  23.630  0.00  0.00    +0.060 A 
ATOM     14  N   UNL     1       6.440   0.327  23.086  0.00  0.00    -0.324 N 
ATOM     15  H   UNL     1       5.524   0.506  23.501  0.00  0.00    +0.148 HD
ENDROOT
BRANCH   1  16
ATOM     16  C   UNL     1       7.625   1.925  24.674  0.00  0.00    +0.207 C 
ATOM     17 CL   UNL     1       6.082   2.260  25.541  0.00  0.00    -0.101 Cl
ATOM     18 CL   UNL     1       8.630   3.401  24.736  0.00  0.00    -0.101 Cl
ENDBRANCH   1  16
BRANCH  11  19
ATOM     19  S   UNL     1       8.512  -5.083  24.568  0.00  0.00    +0.057 S 
ATOM     20  O   UNL     1       8.447  -6.018  23.469  0.00  0.00    -0.153 OA
ATOM     21  O   UNL     1       7.981  -5.394  25.871  0.00  0.00    -0.153 OA
BRANCH  19  22
ATOM     22  N   UNL     1      10.147  -4.750  24.749  0.00  0.00    -0.203 NA
ATOM     23  H   UNL     1      10.295  -3.743  24.828  0.00  0.00    +0.144 HD
ATOM     24  H   UNL     1      10.682  -5.192  24.000  0.00  0.00    +0.144 HD
ENDBRANCH  19  22
ENDBRANCH  11  19
TORSDOF 3
ENDMDL
