MODEL 1
REMARK VINA RESULT:      -3.8      0.000      0.000
REMARK  Name = 
REMARK  1 active torsions:
REMARK  status: ('A' for Active; 'I' for Inactive)
REMARK    1  A    between atoms: N_1  and  C_2
REMARK                            x       y       z     vdW  Elec       q    Type
REMARK                         _______ _______ _______ _____ _____    ______ ____
ROOT
ATOM      1  C   UNL     1       9.888   0.924  22.214  0.00  0.00    +0.027 A 
ATOM      2  C   UNL     1      10.304   0.680  23.520  0.00  0.00    +0.042 A 
ATOM      3  C   UNL     1      10.238  -0.615  24.011  0.00  0.00    +0.112 A 
ATOM      4  N   UNL     1       9.822  -1.673  23.286  0.00  0.00    -0.263 NA
ATOM      5  C   UNL     1       9.485  -1.424  22.004  0.00  0.00    +0.112 A 
ATOM      6  C   UNL     1       9.522  -0.164  21.426  0.00  0.00    +0.042 A 
ENDROOT
BRANCH   1   7
ATOM      7  N   UNL     1      10.057   2.190  21.640  0.00  0.00    -0.358 N 
ATOM      8  H   UNL     1      10.802   2.738  22.061  0.00  0.00    +0.142 HD
ATOM      9  H   UNL     1       9.197   2.721  21.548  0.00  0.00    +0.142 HD
ENDBRANCH   1   7
TORSDOF 1
ENDMDL
MODEL 2
REMARK VINA RESULT:      -3.6      1.501      2.798
REMARK  Name = 
REMARK  1 active torsions:
REMARK  status: ('A' for Active; 'I' for Inactive)
REMARK    1  A    between atoms: N_1  and  C_2
REMARK                            x       y       z     vdW  Elec       q    Type
REMARK                         _______ _______ _______ _____ _____    ______ ____
ROOT
ATOM      1  C   UNL     1       9.882  -0.000  22.185  0.00  0.00    +0.027 A 
ATOM      2  C   UNL     1       9.818   1.354  21.870  0.00  0.00    +0.042 A 
ATOM      3  C   UNL     1      10.185   2.282  22.833  0.00  0.00    +0.112 A 
ATOM      4  N   UNL     1      10.636   1.952  24.061  0.00  0.00    -0.263 NA
ATOM      5  C   UNL     1      10.750   0.633  24.322  0.00  0.00    +0.112 A 
ATOM      6  C   UNL     1      10.411  -0.365  23.420  0.00  0.00    +0.042 A 
ENDROOT
BRANCH   1   7
ATOM      7  N   UNL     1       9.643  -0.969  21.202  0.00  0.00    -0.358 N 
ATOM      8  H   UNL     1       9.643  -1.923  21.554  0.00  0.00    +0.142 HD
ATOM      9  H   UNL     1      10.218  -0.867  20.372  0.00  0.00    +0.142 HD
ENDBRANCH   1   7
TORSDOF 1
ENDMDL
MODEL 3
REMARK VINA RESULT:      -3.6      1.522      2.553
REMARK  Name = 
REMARK  1 active torsions:
REMARK  status: ('A' for Active; 'I' for Inactive)
REMARK    1  A    between atoms: N_1  and  C_2
REMARK                            x       y       z     vdW  Elec       q    Type
REMARK                         _______ _______ _______ _____ _____    ______ ____
ROOT
ATOM      1  C   UNL     1       9.979   0.024  22.106  0.00  0.00    +0.027 A 
ATOM      2  C   UNL     1      10.382  -0.384  23.375  0.00  0.00    +0.042 A 
ATOM      3  C   UNL     1      10.704   0.581  24.316  0.00  0.00    +0.112 A 
ATOM      4  N   UNL     1      10.621   1.908  24.090  0.00  0.00    -0.263 NA
ATOM      5  C   UNL     1      10.166   2.281  22.876  0.00  0.00    +0.112 A 
ATOM      6  C   UNL     1       9.818   1.387  21.875  0.00  0.00    +0.042 A 
ENDROOT
BRANCH   1   7
ATOM      7  N   UNL     1       9.524  -0.913  21.171  0.00  0.00    -0.358 N 
ATOM      8  H   UNL     1       8.883  -0.531  20.481  0.00  0.00    +0.142 HD
ATOM      9  H   UNL     1       9.174  -1.773  21.582  0.00  0.00    +0.142 HD
ENDBRANCH   1   7
TORSDOF 1
ENDMDL
MODEL 4
REMARK VINA RESULT:      -3.3      1.575      2.400
REMARK  Name = 
REMARK  1 active torsions:
REMARK  status: ('A' for Active; 'I' for Inactive)
REMARK    1  A    between atoms: N_1  and  C_2
REMARK                            x       y       z     vdW  Elec       q    Type
REMARK                         _______ _______ _______ _____ _____    ______ ____
ROOT
ATOM      1  C   UNL     1      10.328   0.273  23.907  0.00  0.00    +0.027 A 
ATOM      2  C   UNL     1      10.047   1.333  23.051  0.00  0.00    +0.042 A 
ATOM      3  C   UNL     1       9.642   1.056  21.754  0.00  0.00    +0.112 A 
ATOM      4  N   UNL     1       9.470  -0.192  21.272  0.00  0.00    -0.263 NA
ATOM      5  C   UNL     1       9.686  -1.204  22.138  0.00  0.00    +0.112 A 
ATOM      6  C   UNL     1      10.089  -1.021  23.453  0.00  0.00    +0.042 A 
ENDROOT
BRANCH   1   7
ATOM      7  N   UNL     1      10.615   0.508  25.258  0.00  0.00    -0.358 N 
ATOM      8  H   UNL     1      10.248   1.388  25.611  0.00  0.00    +0.142 HD
ATOM      9  H   UNL     1      11.591   0.376  25.502  0.00  0.00    +0.142 HD
ENDBRANCH   1   7
TORSDOF 1
ENDMDL
MODEL 5
REMARK VINA RESULT:      -3.3      1.396      2.669
REMARK  Name = 
REMARK  1 active torsions:
REMARK  status: ('A' for Active; 'I' for Inactive)
REMARK    1  A    between atoms: N_1  and  C_2
REMARK                            x       y       z     vdW  Elec       q    Type
REMARK                         _______ _______ _______ _____ _____    ______ ____
ROOT
ATOM      1  C   UNL     1       9.776   0.085  21.967  0.00  0.00    +0.027 A 
ATOM      2  C   UNL     1      10.384   0.245  23.209  0.00  0.00    +0.042 A 
ATOM      3  C   UNL     1      10.209   1.439  23.890  0.00  0.00    +0.112 A 
ATOM      4  N   UNL     1       9.451   2.459  23.436  0.00  0.00    -0.263 NA
ATOM      5  C   UNL     1       8.820   2.258  22.261  0.00  0.00    +0.112 A 
ATOM      6  C   UNL     1       8.934   1.096  21.512  0.00  0.00    +0.042 A 
ENDROOT
BRANCH   1   7
ATOM      7  N   UNL     1       9.823  -1.149  21.307  0.00  0.00    -0.358 N 
ATOM      8  H   UNL     1      10.041  -1.080  20.317  0.00  0.00    +0.142 HD
ATOM      9  H   UNL     1       9.018  -1.742  21.481  0.00  0.00    +0.142 HD
ENDBRANCH   1   7
TORSDOF 1
ENDMDL
MODEL 6
REMARK VINA RESULT:      -3.3      1.545      2.462
REMARK  Name = 
REMARK  1 active torsions:
REMARK  status: ('A' for Active; 'I' for Inactive)
REMARK    1  A    between atoms: N_1  and  C_2
REMARK                            x       y       z     vdW  Elec       q    Type
REMARK                         _______ _______ _______ _____ _____    ______ ____
ROOT
ATOM      1  C   UNL     1      10.193   0.193  23.967  0.00  0.00    +0.027 A 
ATOM      2  C   UNL     1      10.077  -1.134  23.562  0.00  0.00    +0.042 A 
ATOM      3  C   UNL     1       9.705  -1.403  22.254  0.00  0.00    +0.112 A 
ATOM      4  N   UNL     1       9.476  -0.451  21.327  0.00  0.00    -0.263 NA
ATOM      5  C   UNL     1       9.656   0.826  21.723  0.00  0.00    +0.112 A 
ATOM      6  C   UNL     1      10.030   1.189  23.008  0.00  0.00    +0.042 A 
ENDROOT
BRANCH   1   7
ATOM      7  N   UNL     1      10.688   0.506  25.239  0.00  0.00    -0.358 N 
ATOM      8  H   UNL     1      10.758   1.503  25.420  0.00  0.00    +0.142 HD
ATOM      9  H   UNL     1      11.540   0.011  25.484  0.00  0.00    +0.142 HD
ENDBRANCH   1   7
TORSDOF 1
ENDMDL
MODEL 7
REMARK VINA RESULT:      -3.2      5.304      6.272
REMARK  Name = 
REMARK  1 active torsions:
REMARK  status: ('A' for Active; 'I' for Inactive)
REMARK    1  A    between atoms: N_1  and  C_2
REMARK                            x       y       z     vdW  Elec       q    Type
REMARK                         _______ _______ _______ _____ _____    ______ ____
ROOT
ATOM      1  C   UNL     1       7.426  -4.944  23.142  0.00  0.00    +0.027 A 
ATOM      2  C   UNL     1       7.213  -5.900  22.153  0.00  0.00    +0.042 A 
ATOM      3  C   UNL     1       6.358  -5.597  21.104  0.00  0.00    +0.112 A 
ATOM      4  N   UNL     1       5.737  -4.408  20.961  0.00  0.00    -0.263 NA
ATOM      5  C   UNL     1       6.009  -3.474  21.896  0.00  0.00    +0.112 A 
ATOM      6  C   UNL     1       6.851  -3.687  22.977  0.00  0.00    +0.042 A 
ENDROOT
BRANCH   1   7
ATOM      7  N   UNL     1       8.377  -5.162  24.147  0.00  0.00    -0.358 N 
ATOM      8  H   UNL     1       8.063  -5.787  24.884  0.00  0.00    +0.142 HD
ATOM      9  H   UNL     1       8.791  -4.312  24.517  0.00  0.00    +0.142 HD
ENDBRANCH   1   7
TORSDOF 1
ENDMDL
MODEL 8
REMARK VINA RESULT:      -3.2      5.274      6.112
REMARK  Name = 
REMARK  1 active torsions:
REMARK  status: ('A' for Active; 'I' for Inactive)
REMARK    1  A    between atoms: N_1  and  C_2
REMARK                            x       y       z     vdW  Elec       q    Type
REMARK                         _______ _______ _______ _____ _____    ______ ____
ROOT
ATOM      1  C   UNL     1       7.552  -4.896  23.048  0.00  0.00    +0.027 A 
ATOM      2  C   UNL     1       6.908  -3.668  22.930  0.00  0.00    +0.042 A 
ATOM      3  C   UNL     1       6.039  -3.470  21.868  0.00  0.00    +0.112 A 
ATOM      4  N   UNL     1       5.749  -4.412  20.948  0.00  0.00    -0.263 NA
ATOM      5  C   UNL     1       6.336  -5.615  21.118  0.00  0.00    +0.112 A 
ATOM      6  C   UNL     1       7.215  -5.906  22.151  0.00  0.00    +0.042 A 
ENDROOT
BRANCH   1   7
ATOM      7  N   UNL     1       8.337  -5.180  24.173  0.00  0.00    -0.358 N 
ATOM      8  H   UNL     1       8.905  -4.399  24.488  0.00  0.00    +0.142 HD
ATOM      9  H   UNL     1       8.874  -6.038  24.096  0.00  0.00    +0.142 HD
ENDBRANCH   1   7
TORSDOF 1
ENDMDL
MODEL 9
REMARK VINA RESULT:      -3.2      1.547      1.928
REMARK  Name = 
REMARK  1 active torsions:
REMARK  status: ('A' for Active; 'I' for Inactive)
REMARK    1  A    between atoms: N_1  and  C_2
REMARK                            x       y       z     vdW  Elec       q    Type
REMARK                         _______ _______ _______ _____ _____    ______ ____
ROOT
ATOM      1  C   UNL     1       9.752   0.322  23.942  0.00  0.00    +0.027 A 
ATOM      2  C   UNL     1       9.923  -1.014  24.293  0.00  0.00    +0.042 A 
ATOM      3  C   UNL     1       9.960  -1.969  23.288  0.00  0.00    +0.112 A 
ATOM      4  N   UNL     1       9.872  -1.680  21.974  0.00  0.00    -0.263 NA
ATOM      5  C   UNL     1       9.771  -0.373  21.654  0.00  0.00    +0.112 A 
ATOM      6  C   UNL     1       9.730   0.650  22.589  0.00  0.00    +0.042 A 
ENDROOT
BRANCH   1   7
ATOM      7  N   UNL     1       9.837   1.327  24.913  0.00  0.00    -0.358 N 
ATOM      8  H   UNL     1      10.283   1.031  25.777  0.00  0.00    +0.142 HD
ATOM      9  H   UNL     1       8.962   1.814  25.083  0.00  0.00    +0.142 HD
ENDBRANCH   1   7
TORSDOF 1
ENDMDL
