MODEL 1
REMARK VINA RESULT:      -6.3      0.000      0.000
REMARK  Name = 
REMARK  7 active torsions:
REMARK  status: ('A' for Active; 'I' for Inactive)
REMARK    1  A    between atoms: C_1  and  C_2
REMARK    2  A    between atoms: C_4  and  N_10
REMARK    3  A    between atoms: C_6  and  C_7
REMARK    4  A    between atoms: C_8  and  O_9
REMARK    5  A    between atoms: N_11  and  C_12
REMARK    6  A    between atoms: C_17  and  C_18
REMARK    7  A    between atoms: C_18  and  O_19
REMARK                            x       y       z     vdW  Elec       q    Type
REMARK                         _______ _______ _______ _____ _____    ______ ____
ROOT
ATOM      1  N   UNL     1       8.047  -2.432  24.366  0.00  0.00    -0.149 NA
ATOM      2  N   UNL     1       8.351  -1.772  23.349  0.00  0.00    -0.148 NA
ENDROOT
BRANCH   1   9
ATOM      3  C   UNL     1       5.223  -6.162  25.941  0.00  0.00    +0.047 C 
ATOM      4  C   UNL     1       5.920  -5.445  24.820  0.00  0.00    -0.007 A 
ATOM      5  C   UNL     1       5.776  -5.876  23.494  0.00  0.00    +0.123 A 
ATOM      6  C   UNL     1       6.402  -5.202  22.437  0.00  0.00    -0.007 A 
ATOM      7  C   UNL     1       6.258  -5.632  21.006  0.00  0.00    +0.047 C 
ATOM      8  C   UNL     1       7.175  -4.066  22.733  0.00  0.00    +0.036 A 
ATOM      9  C   UNL     1       7.341  -3.612  24.051  0.00  0.00    +0.087 A 
ATOM     10  C   UNL     1       6.706  -4.312  25.083  0.00  0.00    +0.036 A 
BRANCH   5  11
ATOM     11  O   UNL     1       4.986  -6.973  23.281  0.00  0.00    -0.506 OA
ATOM     12  H   UNL     1       5.430  -7.586  22.675  0.00  0.00    +0.292 HD
ENDBRANCH   5  11
ENDBRANCH   1   9
BRANCH   2  13
ATOM     13  C   UNL     1       8.996  -0.555  23.673  0.00  0.00    +0.100 A 
ATOM     14  C   UNL     1       8.341   0.675  23.481  0.00  0.00    +0.086 A 
ATOM     15  C   UNL     1       9.002   1.882  23.773  0.00  0.00    +0.017 A 
ATOM     16  C   UNL     1      10.317   1.879  24.236  0.00  0.00    +0.001 A 
ATOM     17  C   UNL     1      10.978   0.672  24.422  0.00  0.00    +0.002 A 
ATOM     18  C   UNL     1      10.326  -0.532  24.140  0.00  0.00    +0.030 A 
BRANCH  14  19
ATOM     19  C   UNL     1       6.937   0.793  23.003  0.00  0.00    +0.339 C 
ATOM     20  O   UNL     1       6.599   1.620  22.167  0.00  0.00    -0.245 OA
BRANCH  19  21
ATOM     21  O   UNL     1       6.076  -0.119  23.497  0.00  0.00    -0.477 OA
ATOM     22  H   UNL     1       5.165  -0.046  23.147  0.00  0.00    +0.295 HD
ENDBRANCH  19  21
ENDBRANCH  14  19
ENDBRANCH   2  13
TORSDOF 5
ENDMDL
MODEL 2
REMARK VINA RESULT:      -6.3      1.557      2.675
REMARK  Name = 
REMARK  7 active torsions:
REMARK  status: ('A' for Active; 'I' for Inactive)
REMARK    1  A    between atoms: C_1  and  C_2
REMARK    2  A    between atoms: C_4  and  N_10
REMARK    3  A    between atoms: C_6  and  C_7
REMARK    4  A    between atoms: C_8  and  O_9
REMARK    5  A    between atoms: N_11  and  C_12
REMARK    6  A    between atoms: C_17  and  C_18
REMARK    7  A    between atoms: C_18  and  O_19
REMARK                            x       y       z     vdW  Elec       q    Type
REMARK                         _______ _______ _______ _____ _____    ______ ____
ROOT
ATOM      1  N   UNL     1       8.412  -2.279  23.202  0.00  0.00    -0.149 NA
ATOM      2  N   UNL     1       7.794  -1.194  23.145  0.00  0.00    -0.148 NA
ENDROOT
BRANCH   1   9
ATOM      3  C   UNL     1       6.132  -5.932  20.790  0.00  0.00    +0.047 C 
ATOM      4  C   UNL     1       6.437  -5.217  22.076  0.00  0.00    -0.007 A 
ATOM      5  C   UNL     1       5.963  -5.710  23.299  0.00  0.00    +0.123 A 
ATOM      6  C   UNL     1       6.261  -5.065  24.507  0.00  0.00    -0.007 A 
ATOM      7  C   UNL     1       5.778  -5.574  25.835  0.00  0.00    +0.047 C 
ATOM      8  C   UNL     1       7.061  -3.910  24.470  0.00  0.00    +0.036 A 
ATOM      9  C   UNL     1       7.546  -3.390  23.259  0.00  0.00    +0.087 A 
ATOM     10  C   UNL     1       7.226  -4.056  22.071  0.00  0.00    +0.036 A 
BRANCH   5  11
ATOM     11  O   UNL     1       5.214  -6.855  23.259  0.00  0.00    -0.506 OA
ATOM     12  H   UNL     1       5.059  -7.177  24.159  0.00  0.00    +0.292 HD
ENDBRANCH   5  11
ENDBRANCH   1   9
BRANCH   2  13
ATOM     13  C   UNL     1       8.666  -0.080  23.159  0.00  0.00    +0.100 A 
ATOM     14  C   UNL     1       8.983   0.565  24.369  0.00  0.00    +0.086 A 
ATOM     15  C   UNL     1       9.823   1.694  24.371  0.00  0.00    +0.017 A 
ATOM     16  C   UNL     1      10.336   2.201  23.177  0.00  0.00    +0.001 A 
ATOM     17  C   UNL     1      10.023   1.579  21.975  0.00  0.00    +0.002 A 
ATOM     18  C   UNL     1       9.194   0.454  21.966  0.00  0.00    +0.030 A 
BRANCH  14  19
ATOM     19  C   UNL     1       8.501   0.102  25.698  0.00  0.00    +0.339 C 
ATOM     20  O   UNL     1       7.748   0.773  26.390  0.00  0.00    -0.245 OA
BRANCH  19  21
ATOM     21  O   UNL     1       8.891  -1.137  26.059  0.00  0.00    -0.477 OA
ATOM     22  H   UNL     1       8.330  -1.856  25.705  0.00  0.00    +0.295 HD
ENDBRANCH  19  21
ENDBRANCH  14  19
ENDBRANCH   2  13
TORSDOF 5
ENDMDL
MODEL 3
REMARK VINA RESULT:      -6.2      1.691      2.083
REMARK  Name = 
REMARK  7 active torsions:
REMARK  status: ('A' for Active; 'I' for Inactive)
REMARK    1  A    between atoms: C_1  and  C_2
REMARK    2  A    between atoms: C_4  and  N_10
REMARK    3  A    between atoms: C_6  and  C_7
REMARK    4  A    between atoms: C_8  and  O_9
REMARK    5  A    between atoms: N_11  and  C_12
REMARK    6  A    between atoms: C_17  and  C_18
REMARK    7  A    between atoms: C_18  and  O_19
REMARK                            x       y       z     vdW  Elec       q    Type
REMARK                         _______ _______ _______ _____ _____    ______ ____
ROOT
ATOM      1  N   UNL     1       7.821  -2.640  24.363  0.00  0.00    -0.149 NA
ATOM      2  N   UNL     1       7.510  -1.731  23.564  0.00  0.00    -0.148 NA
ENDROOT
BRANCH   1   9
ATOM      3  C   UNL     1       5.039  -6.295  26.172  0.00  0.00    +0.047 C 
ATOM      4  C   UNL     1       5.714  -5.633  25.004  0.00  0.00    -0.007 A 
ATOM      5  C   UNL     1       5.549  -6.131  23.705  0.00  0.00    +0.123 A 
ATOM      6  C   UNL     1       6.155  -5.509  22.605  0.00  0.00    -0.007 A 
ATOM      7  C   UNL     1       5.989  -6.011  21.200  0.00  0.00    +0.047 C 
ATOM      8  C   UNL     1       6.928  -4.357  22.830  0.00  0.00    +0.036 A 
ATOM      9  C   UNL     1       7.115  -3.836  24.120  0.00  0.00    +0.087 A 
ATOM     10  C   UNL     1       6.500  -4.486  25.197  0.00  0.00    +0.036 A 
BRANCH   5  11
ATOM     11  O   UNL     1       4.760  -7.240  23.561  0.00  0.00    -0.506 OA
ATOM     12  H   UNL     1       4.705  -7.715  24.404  0.00  0.00    +0.292 HD
ENDBRANCH   5  11
ENDBRANCH   1   9
BRANCH   2  13
ATOM     13  C   UNL     1       8.168  -0.513  23.855  0.00  0.00    +0.100 A 
ATOM     14  C   UNL     1       9.377  -0.184  23.215  0.00  0.00    +0.086 A 
ATOM     15  C   UNL     1      10.044   1.013  23.534  0.00  0.00    +0.017 A 
ATOM     16  C   UNL     1       9.530   1.878  24.501  0.00  0.00    +0.001 A 
ATOM     17  C   UNL     1       8.342   1.559  25.147  0.00  0.00    +0.002 A 
ATOM     18  C   UNL     1       7.671   0.375  24.830  0.00  0.00    +0.030 A 
BRANCH  14  19
ATOM     19  C   UNL     1      10.007  -1.025  22.162  0.00  0.00    +0.339 C 
ATOM     20  O   UNL     1      10.885  -1.837  22.415  0.00  0.00    -0.245 OA
BRANCH  19  21
ATOM     21  O   UNL     1       9.494  -0.887  20.922  0.00  0.00    -0.477 OA
ATOM     22  H   UNL     1       9.931  -1.436  20.241  0.00  0.00    +0.295 HD
ENDBRANCH  19  21
ENDBRANCH  14  19
ENDBRANCH   2  13
TORSDOF 5
ENDMDL
MODEL 4
REMARK VINA RESULT:      -6.2      1.600      1.931
REMARK  Name = 
REMARK  7 active torsions:
REMARK  status: ('A' for Active; 'I' for Inactive)
REMARK    1  A    between atoms: C_1  and  C_2
REMARK    2  A    between atoms: C_4  and  N_10
REMARK    3  A    between atoms: C_6  and  C_7
REMARK    4  A    between atoms: C_8  and  O_9
REMARK    5  A    between atoms: N_11  and  C_12
REMARK    6  A    between atoms: C_17  and  C_18
REMARK    7  A    between atoms: C_18  and  O_19
REMARK                            x       y       z     vdW  Elec       q    Type
REMARK                         _______ _______ _______ _____ _____    ______ ____
ROOT
ATOM      1  N   UNL     1       8.551  -2.353  22.998  0.00  0.00    -0.149 NA
ATOM      2  N   UNL     1       7.866  -1.308  23.045  0.00  0.00    -0.148 NA
ENDROOT
BRANCH   1   9
ATOM      3  C   UNL     1       5.942  -5.493  25.773  0.00  0.00    +0.047 C 
ATOM      4  C   UNL     1       6.444  -5.061  24.424  0.00  0.00    -0.007 A 
ATOM      5  C   UNL     1       6.044  -5.733  23.262  0.00  0.00    +0.123 A 
ATOM      6  C   UNL     1       6.487  -5.325  21.997  0.00  0.00    -0.007 A 
ATOM      7  C   UNL     1       6.068  -6.017  20.732  0.00  0.00    +0.047 C 
ATOM      8  C   UNL     1       7.339  -4.210  21.914  0.00  0.00    +0.036 A 
ATOM      9  C   UNL     1       7.760  -3.519  23.060  0.00  0.00    +0.087 A 
ATOM     10  C   UNL     1       7.302  -3.956  24.309  0.00  0.00    +0.036 A 
BRANCH   5  11
ATOM     11  O   UNL     1       5.191  -6.792  23.420  0.00  0.00    -0.506 OA
ATOM     12  H   UNL     1       4.328  -6.476  23.727  0.00  0.00    +0.292 HD
ENDBRANCH   5  11
ENDBRANCH   1   9
BRANCH   2  13
ATOM     13  C   UNL     1       8.668  -0.142  23.053  0.00  0.00    +0.100 A 
ATOM     14  C   UNL     1       8.994   0.492  24.266  0.00  0.00    +0.086 A 
ATOM     15  C   UNL     1       9.763   1.671  24.264  0.00  0.00    +0.017 A 
ATOM     16  C   UNL     1      10.194   2.237  23.065  0.00  0.00    +0.001 A 
ATOM     17  C   UNL     1       9.870   1.625  21.860  0.00  0.00    +0.002 A 
ATOM     18  C   UNL     1       9.113   0.451  21.854  0.00  0.00    +0.030 A 
BRANCH  14  19
ATOM     19  C   UNL     1       8.597  -0.031  25.601  0.00  0.00    +0.339 C 
ATOM     20  O   UNL     1       7.879   0.601  26.363  0.00  0.00    -0.245 OA
BRANCH  19  21
ATOM     21  O   UNL     1       9.020  -1.279  25.886  0.00  0.00    -0.477 OA
ATOM     22  H   UNL     1       8.434  -1.777  26.490  0.00  0.00    +0.295 HD
ENDBRANCH  19  21
ENDBRANCH  14  19
ENDBRANCH   2  13
TORSDOF 5
ENDMDL
MODEL 5
REMARK VINA RESULT:      -6.2      2.298      7.060
REMARK  Name = 
REMARK  7 active torsions:
REMARK  status: ('A' for Active; 'I' for Inactive)
REMARK    1  A    between atoms: C_1  and  C_2
REMARK    2  A    between atoms: C_4  and  N_10
REMARK    3  A    between atoms: C_6  and  C_7
REMARK    4  A    between atoms: C_8  and  O_9
REMARK    5  A    between atoms: N_11  and  C_12
REMARK    6  A    between atoms: C_17  and  C_18
REMARK    7  A    between atoms: C_18  and  O_19
REMARK                            x       y       z     vdW  Elec       q    Type
REMARK                         _______ _______ _______ _____ _____    ______ ____
ROOT
ATOM      1  N   UNL     1       6.977  -0.923  23.025  0.00  0.00    -0.149 NA
ATOM      2  N   UNL     1       7.846  -1.707  22.587  0.00  0.00    -0.148 NA
ENDROOT
BRANCH   1   9
ATOM      3  C   UNL     1      10.755   2.178  23.723  0.00  0.00    +0.047 C 
ATOM      4  C   UNL     1       9.306   1.949  23.397  0.00  0.00    -0.007 A 
ATOM      5  C   UNL     1       8.471   3.020  23.052  0.00  0.00    +0.123 A 
ATOM      6  C   UNL     1       7.124   2.816  22.725  0.00  0.00    -0.007 A 
ATOM      7  C   UNL     1       6.207   3.942  22.340  0.00  0.00    +0.047 C 
ATOM      8  C   UNL     1       6.624   1.503  22.735  0.00  0.00    +0.036 A 
ATOM      9  C   UNL     1       7.434   0.410  23.081  0.00  0.00    +0.087 A 
ATOM     10  C   UNL     1       8.774   0.650  23.407  0.00  0.00    +0.036 A 
BRANCH   5  11
ATOM     11  O   UNL     1       9.036   4.267  23.036  0.00  0.00    -0.506 OA
ATOM     12  H   UNL     1       9.419   4.442  22.164  0.00  0.00    +0.292 HD
ENDBRANCH   5  11
ENDBRANCH   1   9
BRANCH   2  13
ATOM     13  C   UNL     1       7.408  -3.053  22.599  0.00  0.00    +0.100 A 
ATOM     14  C   UNL     1       8.008  -3.992  23.458  0.00  0.00    +0.086 A 
ATOM     15  C   UNL     1       7.590  -5.336  23.440  0.00  0.00    +0.017 A 
ATOM     16  C   UNL     1       6.594  -5.759  22.560  0.00  0.00    +0.001 A 
ATOM     17  C   UNL     1       6.000  -4.843  21.701  0.00  0.00    +0.002 A 
ATOM     18  C   UNL     1       6.405  -3.506  21.718  0.00  0.00    +0.030 A 
BRANCH  14  19
ATOM     19  C   UNL     1       9.069  -3.647  24.442  0.00  0.00    +0.339 C 
ATOM     20  O   UNL     1      10.057  -4.347  24.609  0.00  0.00    -0.245 OA
BRANCH  19  21
ATOM     21  O   UNL     1       8.905  -2.473  25.086  0.00  0.00    -0.477 OA
ATOM     22  H   UNL     1       9.542  -2.319  25.812  0.00  0.00    +0.295 HD
ENDBRANCH  19  21
ENDBRANCH  14  19
ENDBRANCH   2  13
TORSDOF 5
ENDMDL
MODEL 6
REMARK VINA RESULT:      -6.1      0.687      2.050
REMARK  Name = 
REMARK  7 active torsions:
REMARK  status: ('A' for Active; 'I' for Inactive)
REMARK    1  A    between atoms: C_1  and  C_2
REMARK    2  A    between atoms: C_4  and  N_10
REMARK    3  A    between atoms: C_6  and  C_7
REMARK    4  A    between atoms: C_8  and  O_9
REMARK    5  A    between atoms: N_11  and  C_12
REMARK    6  A    between atoms: C_17  and  C_18
REMARK    7  A    between atoms: C_18  and  O_19
REMARK                            x       y       z     vdW  Elec       q    Type
REMARK                         _______ _______ _______ _____ _____    ______ ____
ROOT
ATOM      1  N   UNL     1       8.120  -2.147  23.266  0.00  0.00    -0.149 NA
ATOM      2  N   UNL     1       7.970  -1.434  24.281  0.00  0.00    -0.148 NA
ENDROOT
BRANCH   1   9
ATOM      3  C   UNL     1       6.105  -5.928  20.814  0.00  0.00    +0.047 C 
ATOM      4  C   UNL     1       6.363  -5.210  22.108  0.00  0.00    -0.007 A 
ATOM      5  C   UNL     1       5.936  -5.754  23.327  0.00  0.00    +0.123 A 
ATOM      6  C   UNL     1       6.192  -5.104  24.543  0.00  0.00    -0.007 A 
ATOM      7  C   UNL     1       5.758  -5.667  25.865  0.00  0.00    +0.047 C 
ATOM      8  C   UNL     1       6.903  -3.893  24.517  0.00  0.00    +0.036 A 
ATOM      9  C   UNL     1       7.340  -3.321  23.312  0.00  0.00    +0.087 A 
ATOM     10  C   UNL     1       7.063  -3.993  22.116  0.00  0.00    +0.036 A 
BRANCH   5  11
ATOM     11  O   UNL     1       5.275  -6.951  23.274  0.00  0.00    -0.506 OA
ATOM     12  H   UNL     1       4.826  -7.041  22.420  0.00  0.00    +0.292 HD
ENDBRANCH   5  11
ENDBRANCH   1   9
BRANCH   2  13
ATOM     13  C   UNL     1       8.807  -0.293  24.263  0.00  0.00    +0.100 A 
ATOM     14  C   UNL     1       8.302   0.957  23.860  0.00  0.00    +0.086 A 
ATOM     15  C   UNL     1       9.149   2.080  23.812  0.00  0.00    +0.017 A 
ATOM     16  C   UNL     1      10.499   1.967  24.141  0.00  0.00    +0.001 A 
ATOM     17  C   UNL     1      11.012   0.736  24.531  0.00  0.00    +0.002 A 
ATOM     18  C   UNL     1      10.175  -0.382  24.588  0.00  0.00    +0.030 A 
BRANCH  14  19
ATOM     19  C   UNL     1       6.878   1.192  23.499  0.00  0.00    +0.339 C 
ATOM     20  O   UNL     1       6.278   2.203  23.834  0.00  0.00    -0.245 OA
BRANCH  19  21
ATOM     21  O   UNL     1       6.314   0.250  22.716  0.00  0.00    -0.477 OA
ATOM     22  H   UNL     1       5.336   0.264  22.709  0.00  0.00    +0.295 HD
ENDBRANCH  19  21
ENDBRANCH  14  19
ENDBRANCH   2  13
TORSDOF 5
ENDMDL
MODEL 7
REMARK VINA RESULT:      -6.1      1.679      2.841
REMARK  Name = 
REMARK  7 active torsions:
REMARK  status: ('A' for Active; 'I' for Inactive)
REMARK    1  A    between atoms: C_1  and  C_2
REMARK    2  A    between atoms: C_4  and  N_10
REMARK    3  A    between atoms: C_6  and  C_7
REMARK    4  A    between atoms: C_8  and  O_9
REMARK    5  A    between atoms: N_11  and  C_12
REMARK    6  A    between atoms: C_17  and  C_18
REMARK    7  A    between atoms: C_18  and  O_19
REMARK                            x       y       z     vdW  Elec       q    Type
REMARK                         _______ _______ _______ _____ _____    ______ ____
ROOT
ATOM      1  N   UNL     1       7.862  -2.466  24.245  0.00  0.00    -0.149 NA
ATOM      2  N   UNL     1       7.448  -1.482  23.596  0.00  0.00    -0.148 NA
ENDROOT
BRANCH   1   9
ATOM      3  C   UNL     1       6.137  -5.912  21.159  0.00  0.00    +0.047 C 
ATOM      4  C   UNL     1       6.223  -5.334  22.544  0.00  0.00    -0.007 A 
ATOM      5  C   UNL     1       5.614  -5.981  23.629  0.00  0.00    +0.123 A 
ATOM      6  C   UNL     1       5.707  -5.464  24.928  0.00  0.00    -0.007 A 
ATOM      7  C   UNL     1       5.076  -6.138  26.112  0.00  0.00    +0.047 C 
ATOM      8  C   UNL     1       6.440  -4.282  25.127  0.00  0.00    +0.036 A 
ATOM      9  C   UNL     1       7.058  -3.610  24.061  0.00  0.00    +0.087 A 
ATOM     10  C   UNL     1       6.941  -4.151  22.775  0.00  0.00    +0.036 A 
BRANCH   5  11
ATOM     11  O   UNL     1       4.942  -7.142  23.361  0.00  0.00    -0.506 OA
ATOM     12  H   UNL     1       4.697  -7.171  22.423  0.00  0.00    +0.292 HD
ENDBRANCH   5  11
ENDBRANCH   1   9
BRANCH   2  13
ATOM     13  C   UNL     1       8.215  -0.318  23.839  0.00  0.00    +0.100 A 
ATOM     14  C   UNL     1       9.470  -0.150  23.227  0.00  0.00    +0.086 A 
ATOM     15  C   UNL     1      10.244   0.993  23.501  0.00  0.00    +0.017 A 
ATOM     16  C   UNL     1       9.789   1.963  24.394  0.00  0.00    +0.001 A 
ATOM     17  C   UNL     1       8.555   1.804  25.012  0.00  0.00    +0.002 A 
ATOM     18  C   UNL     1       7.778   0.674  24.741  0.00  0.00    +0.030 A 
BRANCH  14  19
ATOM     19  C   UNL     1      10.046  -1.114  22.251  0.00  0.00    +0.339 C 
ATOM     20  O   UNL     1      10.941  -1.891  22.551  0.00  0.00    -0.245 OA
BRANCH  19  21
ATOM     21  O   UNL     1       9.466  -1.125  21.034  0.00  0.00    -0.477 OA
ATOM     22  H   UNL     1       9.868  -1.754  20.401  0.00  0.00    +0.295 HD
ENDBRANCH  19  21
ENDBRANCH  14  19
ENDBRANCH   2  13
TORSDOF 5
ENDMDL
MODEL 8
REMARK VINA RESULT:      -6.1      2.310      7.098
REMARK  Name = 
REMARK  7 active torsions:
REMARK  status: ('A' for Active; 'I' for Inactive)
REMARK    1  A    between atoms: C_1  and  C_2
REMARK    2  A    between atoms: C_4  and  N_10
REMARK    3  A    between atoms: C_6  and  C_7
REMARK    4  A    between atoms: C_8  and  O_9
REMARK    5  A    between atoms: N_11  and  C_12
REMARK    6  A    between atoms: C_17  and  C_18
REMARK    7  A    between atoms: C_18  and  O_19
REMARK                            x       y       z     vdW  Elec       q    Type
REMARK                         _______ _______ _______ _____ _____    ______ ____
ROOT
ATOM      1  N   UNL     1       7.087  -0.900  23.049  0.00  0.00    -0.149 NA
ATOM      2  N   UNL     1       7.797  -1.707  22.411  0.00  0.00    -0.148 NA
ENDROOT
BRANCH   1   9
ATOM      3  C   UNL     1       6.084   3.881  22.334  0.00  0.00    +0.047 C 
ATOM      4  C   UNL     1       7.075   2.793  22.643  0.00  0.00    -0.007 A 
ATOM      5  C   UNL     1       8.407   3.104  22.948  0.00  0.00    +0.123 A 
ATOM      6  C   UNL     1       9.334   2.100  23.260  0.00  0.00    -0.007 A 
ATOM      7  C   UNL     1      10.765   2.401  23.602  0.00  0.00    +0.047 C 
ATOM      8  C   UNL     1       8.896   0.765  23.273  0.00  0.00    +0.036 A 
ATOM      9  C   UNL     1       7.569   0.423  22.968  0.00  0.00    +0.087 A 
ATOM     10  C   UNL     1       6.670   1.450  22.656  0.00  0.00    +0.036 A 
BRANCH   5  11
ATOM     11  O   UNL     1       8.752   4.428  22.942  0.00  0.00    -0.506 OA
ATOM     12  H   UNL     1       9.012   4.696  22.048  0.00  0.00    +0.292 HD
ENDBRANCH   5  11
ENDBRANCH   1   9
BRANCH   2  13
ATOM     13  C   UNL     1       7.350  -3.042  22.553  0.00  0.00    +0.100 A 
ATOM     14  C   UNL     1       7.968  -3.908  23.472  0.00  0.00    +0.086 A 
ATOM     15  C   UNL     1       7.541  -5.244  23.583  0.00  0.00    +0.017 A 
ATOM     16  C   UNL     1       6.517  -5.734  22.773  0.00  0.00    +0.001 A 
ATOM     17  C   UNL     1       5.904  -4.890  21.855  0.00  0.00    +0.002 A 
ATOM     18  C   UNL     1       6.318  -3.560  21.743  0.00  0.00    +0.030 A 
BRANCH  14  19
ATOM     19  C   UNL     1       9.060  -3.489  24.392  0.00  0.00    +0.339 C 
ATOM     20  O   UNL     1      10.114  -4.103  24.476  0.00  0.00    -0.245 OA
BRANCH  19  21
ATOM     21  O   UNL     1       8.841  -2.346  25.072  0.00  0.00    -0.477 OA
ATOM     22  H   UNL     1       9.563  -1.690  25.004  0.00  0.00    +0.295 HD
ENDBRANCH  19  21
ENDBRANCH  14  19
ENDBRANCH   2  13
TORSDOF 5
ENDMDL
MODEL 9
REMARK VINA RESULT:      -5.9      2.283      6.925
REMARK  Name = 
REMARK  7 active torsions:
REMARK  status: ('A' for Active; 'I' for Inactive)
REMARK    1  A    between atoms: C_1  and  C_2
REMARK    2  A    between atoms: C_4  and  N_10
REMARK    3  A    between atoms: C_6  and  C_7
REMARK    4  A    between atoms: C_8  and  O_9
REMARK    5  A    between atoms: N_11  and  C_12
REMARK    6  A    between atoms: C_17  and  C_18
REMARK    7  A    between atoms: C_18  and  O_19
REMARK                            x       y       z     vdW  Elec       q    Type
REMARK                         _______ _______ _______ _____ _____    ______ ____
ROOT
ATOM      1  N   UNL     1       9.212  -0.616  24.459  0.00  0.00    -0.149 NA
ATOM      2  N   UNL     1       8.127  -1.200  24.663  0.00  0.00    -0.148 NA
ENDROOT
BRANCH   1   9
ATOM      3  C   UNL     1      11.289   3.750  23.458  0.00  0.00    +0.047 C 
ATOM      4  C   UNL     1      10.061   2.890  23.568  0.00  0.00    -0.007 A 
ATOM      5  C   UNL     1       8.802   3.390  23.209  0.00  0.00    +0.123 A 
ATOM      6  C   UNL     1       7.653   2.591  23.286  0.00  0.00    -0.007 A 
ATOM      7  C   UNL     1       6.292   3.094  22.898  0.00  0.00    +0.047 C 
ATOM      8  C   UNL     1       7.790   1.263  23.722  0.00  0.00    +0.036 A 
ATOM      9  C   UNL     1       9.037   0.735  24.092  0.00  0.00    +0.087 A 
ATOM     10  C   UNL     1      10.163   1.561  24.008  0.00  0.00    +0.036 A 
BRANCH   5  11
ATOM     11  O   UNL     1       8.751   4.685  22.767  0.00  0.00    -0.506 OA
ATOM     12  H   UNL     1       8.657   4.699  21.803  0.00  0.00    +0.292 HD
ENDBRANCH   5  11
ENDBRANCH   1   9
BRANCH   2  13
ATOM     13  C   UNL     1       8.304  -2.572  24.962  0.00  0.00    +0.100 A 
ATOM     14  C   UNL     1       8.115  -3.549  23.969  0.00  0.00    +0.086 A 
ATOM     15  C   UNL     1       8.259  -4.914  24.281  0.00  0.00    +0.017 A 
ATOM     16  C   UNL     1       8.571  -5.317  25.580  0.00  0.00    +0.001 A 
ATOM     17  C   UNL     1       8.752  -4.361  26.572  0.00  0.00    +0.002 A 
ATOM     18  C   UNL     1       8.616  -3.004  26.267  0.00  0.00    +0.030 A 
BRANCH  14  19
ATOM     19  C   UNL     1       7.792  -3.231  22.552  0.00  0.00    +0.339 C 
ATOM     20  O   UNL     1       6.878  -3.779  21.951  0.00  0.00    -0.245 OA
BRANCH  19  21
ATOM     21  O   UNL     1       8.526  -2.246  21.995  0.00  0.00    -0.477 OA
ATOM     22  H   UNL     1       9.485  -2.305  22.178  0.00  0.00    +0.295 HD
ENDBRANCH  19  21
ENDBRANCH  14  19
ENDBRANCH   2  13
TORSDOF 5
ENDMDL
