MODEL 1
REMARK VINA RESULT:      -6.2      0.000      0.000
REMARK  Name = 
REMARK  15 active torsions:
REMARK  status: ('A' for Active; 'I' for Inactive)
REMARK    1  A    between atoms: C_1  and  C_2
REMARK    2  A    between atoms: C_2  and  C_3
REMARK    3  A    between atoms: C_2  and  N_4
REMARK    4  A    between atoms: N_4  and  C_5
REMARK    5  A    between atoms: C_5  and  C_6
REMARK    6  A    between atoms: C_6  and  O_7
REMARK    7  A    between atoms: C_6  and  C_8
REMARK    8  A    between atoms: C_8  and  O_9
REMARK    9  A    between atoms: O_9  and  C_10
REMARK   10  A    between atoms: C_11  and  C_12
REMARK   11  A    between atoms: C_13  and  C_14
REMARK   12  A    between atoms: C_15  and  O_16
REMARK   13  A    between atoms: O_16  and  C_17
REMARK   14  A    between atoms: C_17  and  C_18
REMARK   15  A    between atoms: C_20  and  C_21
REMARK                            x       y       z     vdW  Elec       q    Type
REMARK                         _______ _______ _______ _____ _____    ______ ____
ROOT
ATOM      1  C   UNL     1       7.694  -3.476  23.234  0.00  0.00    +0.124 A 
ATOM      2  C   UNL     1       8.606  -3.765  24.254  0.00  0.00    +0.053 A 
ATOM      3  C   UNL     1       8.266  -4.590  25.337  0.00  0.00    -0.004 A 
ATOM      4  C   UNL     1       9.284  -4.751  26.427  0.00  0.00    +0.048 C 
ATOM      5  C   UNL     1       7.004  -5.193  25.332  0.00  0.00    +0.138 A 
ATOM      6  C   UNL     1       6.039  -4.879  24.339  0.00  0.00    -0.001 A 
ATOM      7  C   UNL     1       4.676  -5.519  24.426  0.00  0.00    +0.048 C 
ATOM      8  C   UNL     1       6.382  -3.981  23.298  0.00  0.00    -0.002 A 
ATOM      9  C   UNL     1       5.351  -3.553  22.283  0.00  0.00    +0.048 C 
ENDROOT
BRANCH   1  10
ATOM     10  O   UNL     1       8.001  -2.654  22.179  0.00  0.00    -0.489 OA
BRANCH  10  11
ATOM     11  C   UNL     1       8.260  -1.279  22.502  0.00  0.00    +0.261 C 
BRANCH  11  12
ATOM     12  C   UNL     1       9.347  -0.751  21.555  0.00  0.00    +0.166 C 
BRANCH  12  13
ATOM     13  O   UNL     1      10.521  -1.568  21.653  0.00  0.00    -0.387 OA
ATOM     14  H   UNL     1      10.618  -1.791  22.596  0.00  0.00    +0.210 HD
ENDBRANCH  12  13
BRANCH  12  15
ATOM     15  C   UNL     1       9.702   0.709  21.902  0.00  0.00    +0.115 C 
BRANCH  15  16
ATOM     16  N   UNL     1       9.021   1.136  23.130  0.00  0.00    -0.311 NA
ATOM     17  H   UNL     1       8.277   1.788  22.865  0.00  0.00    +0.122 HD
BRANCH  16  19
ATOM     18  C   UNL     1      10.877   0.684  24.630  0.00  0.00    +0.023 C 
ATOM     19  C   UNL     1       9.928   1.760  24.099  0.00  0.00    +0.048 C 
ATOM     20  C   UNL     1      10.739   2.897  23.471  0.00  0.00    +0.023 C 
ENDBRANCH  16  19
ENDBRANCH  15  16
ENDBRANCH  12  15
ENDBRANCH  11  12
ENDBRANCH  10  11
ENDBRANCH   1  10
BRANCH   5  21
ATOM     21  O   UNL     1       6.537  -6.035  26.381  0.00  0.00    -0.425 OA
BRANCH  21  22
ATOM     22  C   UNL     1       6.474  -5.678  27.730  0.00  0.00    +0.309 C 
ATOM     23  O   UNL     1       6.952  -6.285  28.675  0.00  0.00    -0.251 OA
ATOM     24  C   UNL     1       5.637  -4.435  27.863  0.00  0.00    +0.136 C 
ENDBRANCH  21  22
ENDBRANCH   5  21
TORSDOF 9
ENDMDL
MODEL 2
REMARK VINA RESULT:      -6.2      1.348      2.544
REMARK  Name = 
REMARK  15 active torsions:
REMARK  status: ('A' for Active; 'I' for Inactive)
REMARK    1  A    between atoms: C_1  and  C_2
REMARK    2  A    between atoms: C_2  and  C_3
REMARK    3  A    between atoms: C_2  and  N_4
REMARK    4  A    between atoms: N_4  and  C_5
REMARK    5  A    between atoms: C_5  and  C_6
REMARK    6  A    between atoms: C_6  and  O_7
REMARK    7  A    between atoms: C_6  and  C_8
REMARK    8  A    between atoms: C_8  and  O_9
REMARK    9  A    between atoms: O_9  and  C_10
REMARK   10  A    between atoms: C_11  and  C_12
REMARK   11  A    between atoms: C_13  and  C_14
REMARK   12  A    between atoms: C_15  and  O_16
REMARK   13  A    between atoms: O_16  and  C_17
REMARK   14  A    between atoms: C_17  and  C_18
REMARK   15  A    between atoms: C_20  and  C_21
REMARK                            x       y       z     vdW  Elec       q    Type
REMARK                         _______ _______ _______ _____ _____    ______ ____
ROOT
ATOM      1  C   UNL     1       7.935  -2.997  23.903  0.00  0.00    +0.124 A 
ATOM      2  C   UNL     1       7.466  -3.953  22.997  0.00  0.00    +0.053 A 
ATOM      3  C   UNL     1       6.747  -5.082  23.420  0.00  0.00    -0.004 A 
ATOM      4  C   UNL     1       6.381  -6.096  22.377  0.00  0.00    +0.048 C 
ATOM      5  C   UNL     1       6.433  -5.189  24.778  0.00  0.00    +0.138 A 
ATOM      6  C   UNL     1       6.938  -4.263  25.729  0.00  0.00    -0.001 A 
ATOM      7  C   UNL     1       6.610  -4.471  27.186  0.00  0.00    +0.048 C 
ATOM      8  C   UNL     1       7.728  -3.174  25.284  0.00  0.00    -0.002 A 
ATOM      9  C   UNL     1       8.358  -2.228  26.276  0.00  0.00    +0.048 C 
ENDROOT
BRANCH   1  10
ATOM     10  O   UNL     1       8.659  -1.899  23.512  0.00  0.00    -0.489 OA
BRANCH  10  11
ATOM     11  C   UNL     1       8.157  -1.185  22.370  0.00  0.00    +0.261 C 
BRANCH  11  12
ATOM     12  C   UNL     1       9.350  -0.709  21.529  0.00  0.00    +0.166 C 
BRANCH  12  13
ATOM     13  O   UNL     1      10.471  -1.579  21.733  0.00  0.00    -0.387 OA
ATOM     14  H   UNL     1      11.102  -1.383  21.018  0.00  0.00    +0.210 HD
ENDBRANCH  12  13
BRANCH  12  15
ATOM     15  C   UNL     1       9.738   0.733  21.912  0.00  0.00    +0.115 C 
BRANCH  15  16
ATOM     16  N   UNL     1       9.038   1.159  23.130  0.00  0.00    -0.311 NA
ATOM     17  H   UNL     1       8.311   1.826  22.857  0.00  0.00    +0.122 HD
BRANCH  16  19
ATOM     18  C   UNL     1      10.843   0.656  24.677  0.00  0.00    +0.023 C 
ATOM     19  C   UNL     1       9.935   1.756  24.126  0.00  0.00    +0.048 C 
ATOM     20  C   UNL     1      10.789   2.875  23.524  0.00  0.00    +0.023 C 
ENDBRANCH  16  19
ENDBRANCH  15  16
ENDBRANCH  12  15
ENDBRANCH  11  12
ENDBRANCH  10  11
ENDBRANCH   1  10
BRANCH   5  21
ATOM     21  O   UNL     1       5.724  -6.293  25.330  0.00  0.00    -0.425 OA
BRANCH  21  22
ATOM     22  C   UNL     1       4.398  -6.622  25.042  0.00  0.00    +0.309 C 
ATOM     23  O   UNL     1       3.977  -7.689  24.625  0.00  0.00    -0.251 OA
ATOM     24  C   UNL     1       3.541  -5.403  25.254  0.00  0.00    +0.136 C 
ENDBRANCH  21  22
ENDBRANCH   5  21
TORSDOF 9
ENDMDL
MODEL 3
REMARK VINA RESULT:      -6.1      2.144      3.522
REMARK  Name = 
REMARK  15 active torsions:
REMARK  status: ('A' for Active; 'I' for Inactive)
REMARK    1  A    between atoms: C_1  and  C_2
REMARK    2  A    between atoms: C_2  and  C_3
REMARK    3  A    between atoms: C_2  and  N_4
REMARK    4  A    between atoms: N_4  and  C_5
REMARK    5  A    between atoms: C_5  and  C_6
REMARK    6  A    between atoms: C_6  and  O_7
REMARK    7  A    between atoms: C_6  and  C_8
REMARK    8  A    between atoms: C_8  and  O_9
REMARK    9  A    between atoms: O_9  and  C_10
REMARK   10  A    between atoms: C_11  and  C_12
REMARK   11  A    between atoms: C_13  and  C_14
REMARK   12  A    between atoms: C_15  and  O_16
REMARK   13  A    between atoms: O_16  and  C_17
REMARK   14  A    between atoms: C_17  and  C_18
REMARK   15  A    between atoms: C_20  and  C_21
REMARK                            x       y       z     vdW  Elec       q    Type
REMARK                         _______ _______ _______ _____ _____    ______ ____
ROOT
ATOM      1  C   UNL     1       8.393  -4.322  24.100  0.00  0.00    +0.124 A 
ATOM      2  C   UNL     1       7.899  -4.595  22.821  0.00  0.00    +0.053 A 
ATOM      3  C   UNL     1       6.720  -5.332  22.625  0.00  0.00    -0.004 A 
ATOM      4  C   UNL     1       6.336  -5.654  21.211  0.00  0.00    +0.048 C 
ATOM      5  C   UNL     1       5.994  -5.722  23.755  0.00  0.00    +0.138 A 
ATOM      6  C   UNL     1       6.496  -5.504  25.066  0.00  0.00    -0.001 A 
ATOM      7  C   UNL     1       5.691  -6.004  26.240  0.00  0.00    +0.048 C 
ATOM      8  C   UNL     1       7.728  -4.827  25.234  0.00  0.00    -0.002 A 
ATOM      9  C   UNL     1       8.334  -4.665  26.606  0.00  0.00    +0.048 C 
ENDROOT
BRANCH   1  10
ATOM     10  O   UNL     1       9.554  -3.623  24.311  0.00  0.00    -0.489 OA
BRANCH  10  11
ATOM     11  C   UNL     1       9.684  -2.382  23.599  0.00  0.00    +0.261 C 
BRANCH  11  12
ATOM     12  C   UNL     1       9.425  -1.229  24.578  0.00  0.00    +0.166 C 
BRANCH  12  13
ATOM     13  O   UNL     1       8.103  -0.710  24.384  0.00  0.00    -0.387 OA
ATOM     14  H   UNL     1       8.212   0.163  23.966  0.00  0.00    +0.210 HD
ENDBRANCH  12  13
BRANCH  12  15
ATOM     15  C   UNL     1      10.459  -0.103  24.371  0.00  0.00    +0.115 C 
BRANCH  15  16
ATOM     16  N   UNL     1       9.916   1.192  24.799  0.00  0.00    -0.311 NA
ATOM     17  H   UNL     1       8.905   1.086  24.913  0.00  0.00    +0.122 HD
BRANCH  16  19
ATOM     18  C   UNL     1      10.034   1.740  22.435  0.00  0.00    +0.023 C 
ATOM     19  C   UNL     1      10.215   2.276  23.856  0.00  0.00    +0.048 C 
ATOM     20  C   UNL     1       9.302   3.486  24.070  0.00  0.00    +0.023 C 
ENDBRANCH  16  19
ENDBRANCH  15  16
ENDBRANCH  12  15
ENDBRANCH  11  12
ENDBRANCH  10  11
ENDBRANCH   1  10
BRANCH   5  21
ATOM     21  O   UNL     1       4.795  -6.485  23.687  0.00  0.00    -0.425 OA
BRANCH  21  22
ATOM     22  C   UNL     1       3.532  -5.971  23.385  0.00  0.00    +0.309 C 
ATOM     23  O   UNL     1       3.274  -4.863  22.944  0.00  0.00    -0.251 OA
ATOM     24  C   UNL     1       2.492  -6.990  23.768  0.00  0.00    +0.136 C 
ENDBRANCH  21  22
ENDBRANCH   5  21
TORSDOF 9
ENDMDL
MODEL 4
REMARK VINA RESULT:      -6.0      2.717      6.706
REMARK  Name = 
REMARK  15 active torsions:
REMARK  status: ('A' for Active; 'I' for Inactive)
REMARK    1  A    between atoms: C_1  and  C_2
REMARK    2  A    between atoms: C_2  and  C_3
REMARK    3  A    between atoms: C_2  and  N_4
REMARK    4  A    between atoms: N_4  and  C_5
REMARK    5  A    between atoms: C_5  and  C_6
REMARK    6  A    between atoms: C_6  and  O_7
REMARK    7  A    between atoms: C_6  and  C_8
REMARK    8  A    between atoms: C_8  and  O_9
REMARK    9  A    between atoms: O_9  and  C_10
REMARK   10  A    between atoms: C_11  and  C_12
REMARK   11  A    between atoms: C_13  and  C_14
REMARK   12  A    between atoms: C_15  and  O_16
REMARK   13  A    between atoms: O_16  and  C_17
REMARK   14  A    between atoms: C_17  and  C_18
REMARK   15  A    between atoms: C_20  and  C_21
REMARK                            x       y       z     vdW  Elec       q    Type
REMARK                         _______ _______ _______ _____ _____    ______ ____
ROOT
ATOM      1  C   UNL     1       8.557  -1.957  25.608  0.00  0.00    +0.124 A 
ATOM      2  C   UNL     1       9.416  -1.994  24.507  0.00  0.00    +0.053 A 
ATOM      3  C   UNL     1       9.199  -1.196  23.373  0.00  0.00    -0.004 A 
ATOM      4  C   UNL     1      10.123  -1.388  22.207  0.00  0.00    +0.048 C 
ATOM      5  C   UNL     1       8.135  -0.288  23.403  0.00  0.00    +0.138 A 
ATOM      6  C   UNL     1       7.216  -0.264  24.485  0.00  0.00    -0.001 A 
ATOM      7  C   UNL     1       6.056   0.699  24.426  0.00  0.00    +0.048 C 
ATOM      8  C   UNL     1       7.413  -1.136  25.583  0.00  0.00    -0.002 A 
ATOM      9  C   UNL     1       6.404  -1.203  26.702  0.00  0.00    +0.048 C 
ENDROOT
BRANCH   1  10
ATOM     10  O   UNL     1       8.740  -2.746  26.716  0.00  0.00    -0.489 OA
BRANCH  10  11
ATOM     11  C   UNL     1       8.891  -4.154  26.473  0.00  0.00    +0.261 C 
BRANCH  11  12
ATOM     12  C   UNL     1       7.545  -4.842  26.741  0.00  0.00    +0.166 C 
BRANCH  12  13
ATOM     13  O   UNL     1       7.742  -5.999  27.563  0.00  0.00    -0.387 OA
ATOM     14  H   UNL     1       8.237  -5.696  28.345  0.00  0.00    +0.210 HD
ENDBRANCH  12  13
BRANCH  12  15
ATOM     15  C   UNL     1       6.878  -5.257  25.414  0.00  0.00    +0.115 C 
BRANCH  15  16
ATOM     16  N   UNL     1       7.859  -5.289  24.322  0.00  0.00    -0.311 NA
ATOM     17  H   UNL     1       8.716  -4.842  24.658  0.00  0.00    +0.122 HD
BRANCH  16  19
ATOM     18  C   UNL     1       7.124  -5.699  22.042  0.00  0.00    +0.023 C 
ATOM     19  C   UNL     1       7.380  -4.627  23.104  0.00  0.00    +0.048 C 
ATOM     20  C   UNL     1       6.094  -3.834  23.354  0.00  0.00    +0.023 C 
ENDBRANCH  16  19
ENDBRANCH  15  16
ENDBRANCH  12  15
ENDBRANCH  11  12
ENDBRANCH  10  11
ENDBRANCH   1  10
BRANCH   5  21
ATOM     21  O   UNL     1       7.803   0.562  22.311  0.00  0.00    -0.425 OA
BRANCH  21  22
ATOM     22  C   UNL     1       8.444   1.765  22.005  0.00  0.00    +0.309 C 
ATOM     23  O   UNL     1       9.645   1.951  21.890  0.00  0.00    -0.251 OA
ATOM     24  C   UNL     1       7.410   2.853  21.912  0.00  0.00    +0.136 C 
ENDBRANCH  21  22
ENDBRANCH   5  21
TORSDOF 9
ENDMDL
MODEL 5
REMARK VINA RESULT:      -5.9      2.594      3.928
REMARK  Name = 
REMARK  15 active torsions:
REMARK  status: ('A' for Active; 'I' for Inactive)
REMARK    1  A    between atoms: C_1  and  C_2
REMARK    2  A    between atoms: C_2  and  C_3
REMARK    3  A    between atoms: C_2  and  N_4
REMARK    4  A    between atoms: N_4  and  C_5
REMARK    5  A    between atoms: C_5  and  C_6
REMARK    6  A    between atoms: C_6  and  O_7
REMARK    7  A    between atoms: C_6  and  C_8
REMARK    8  A    between atoms: C_8  and  O_9
REMARK    9  A    between atoms: O_9  and  C_10
REMARK   10  A    between atoms: C_11  and  C_12
REMARK   11  A    between atoms: C_13  and  C_14
REMARK   12  A    between atoms: C_15  and  O_16
REMARK   13  A    between atoms: O_16  and  C_17
REMARK   14  A    between atoms: C_17  and  C_18
REMARK   15  A    between atoms: C_20  and  C_21
REMARK                            x       y       z     vdW  Elec       q    Type
REMARK                         _______ _______ _______ _____ _____    ______ ____
ROOT
ATOM      1  C   UNL     1       6.457  -2.504  23.023  0.00  0.00    +0.124 A 
ATOM      2  C   UNL     1       6.496  -3.711  22.318  0.00  0.00    +0.053 A 
ATOM      3  C   UNL     1       5.621  -4.767  22.613  0.00  0.00    -0.004 A 
ATOM      4  C   UNL     1       5.816  -6.053  21.865  0.00  0.00    +0.048 C 
ATOM      5  C   UNL     1       4.637  -4.554  23.584  0.00  0.00    +0.138 A 
ATOM      6  C   UNL     1       4.604  -3.360  24.352  0.00  0.00    -0.001 A 
ATOM      7  C   UNL     1       3.554  -3.219  25.425  0.00  0.00    +0.048 C 
ATOM      8  C   UNL     1       5.550  -2.339  24.088  0.00  0.00    -0.002 A 
ATOM      9  C   UNL     1       5.603  -1.101  24.947  0.00  0.00    +0.048 C 
ENDROOT
BRANCH   1  10
ATOM     10  O   UNL     1       7.319  -1.468  22.766  0.00  0.00    -0.489 OA
BRANCH  10  11
ATOM     11  C   UNL     1       8.474  -1.788  21.974  0.00  0.00    +0.261 C 
BRANCH  11  12
ATOM     12  C   UNL     1       9.726  -1.308  22.721  0.00  0.00    +0.166 C 
BRANCH  12  13
ATOM     13  O   UNL     1      10.903  -1.679  21.993  0.00  0.00    -0.387 OA
ATOM     14  H   UNL     1      10.781  -1.339  21.088  0.00  0.00    +0.210 HD
ENDBRANCH  12  13
BRANCH  12  15
ATOM     15  C   UNL     1       9.777  -1.921  24.135  0.00  0.00    +0.115 C 
BRANCH  15  16
ATOM     16  N   UNL     1       9.712  -3.386  24.074  0.00  0.00    -0.311 NA
ATOM     17  H   UNL     1       9.069  -3.640  23.319  0.00  0.00    +0.122 HD
BRANCH  16  19
ATOM     18  C   UNL     1       8.521  -2.937  26.144  0.00  0.00    +0.023 C 
ATOM     19  C   UNL     1       9.282  -3.992  25.339  0.00  0.00    +0.048 C 
ATOM     20  C   UNL     1       8.384  -5.211  25.111  0.00  0.00    +0.023 C 
ENDBRANCH  16  19
ENDBRANCH  15  16
ENDBRANCH  12  15
ENDBRANCH  11  12
ENDBRANCH  10  11
ENDBRANCH   1  10
BRANCH   5  21
ATOM     21  O   UNL     1       3.704  -5.552  23.981  0.00  0.00    -0.425 OA
BRANCH  21  22
ATOM     22  C   UNL     1       4.034  -6.763  24.594  0.00  0.00    +0.309 C 
ATOM     23  O   UNL     1       3.586  -7.868  24.332  0.00  0.00    -0.251 OA
ATOM     24  C   UNL     1       4.999  -6.490  25.716  0.00  0.00    +0.136 C 
ENDBRANCH  21  22
ENDBRANCH   5  21
TORSDOF 9
ENDMDL
MODEL 6
REMARK VINA RESULT:      -5.9      3.014      5.193
REMARK  Name = 
REMARK  15 active torsions:
REMARK  status: ('A' for Active; 'I' for Inactive)
REMARK    1  A    between atoms: C_1  and  C_2
REMARK    2  A    between atoms: C_2  and  C_3
REMARK    3  A    between atoms: C_2  and  N_4
REMARK    4  A    between atoms: N_4  and  C_5
REMARK    5  A    between atoms: C_5  and  C_6
REMARK    6  A    between atoms: C_6  and  O_7
REMARK    7  A    between atoms: C_6  and  C_8
REMARK    8  A    between atoms: C_8  and  O_9
REMARK    9  A    between atoms: O_9  and  C_10
REMARK   10  A    between atoms: C_11  and  C_12
REMARK   11  A    between atoms: C_13  and  C_14
REMARK   12  A    between atoms: C_15  and  O_16
REMARK   13  A    between atoms: O_16  and  C_17
REMARK   14  A    between atoms: C_17  and  C_18
REMARK   15  A    between atoms: C_20  and  C_21
REMARK                            x       y       z     vdW  Elec       q    Type
REMARK                         _______ _______ _______ _____ _____    ______ ____
ROOT
ATOM      1  C   UNL     1       8.933   1.330  24.439  0.00  0.00    +0.124 A 
ATOM      2  C   UNL     1       8.247   0.598  25.413  0.00  0.00    +0.053 A 
ATOM      3  C   UNL     1       7.953  -0.764  25.244  0.00  0.00    -0.004 A 
ATOM      4  C   UNL     1       7.125  -1.427  26.304  0.00  0.00    +0.048 C 
ATOM      5  C   UNL     1       8.440  -1.404  24.100  0.00  0.00    +0.138 A 
ATOM      6  C   UNL     1       9.094  -0.677  23.070  0.00  0.00    -0.001 A 
ATOM      7  C   UNL     1       9.542  -1.418  21.834  0.00  0.00    +0.048 C 
ATOM      8  C   UNL     1       9.310   0.714  23.231  0.00  0.00    -0.002 A 
ATOM      9  C   UNL     1       9.915   1.531  22.116  0.00  0.00    +0.048 C 
ENDROOT
BRANCH   1  10
ATOM     10  O   UNL     1       9.210   2.666  24.577  0.00  0.00    -0.489 OA
BRANCH  10  11
ATOM     11  C   UNL     1       8.077   3.532  24.754  0.00  0.00    +0.261 C 
BRANCH  11  12
ATOM     12  C   UNL     1       8.337   4.838  23.989  0.00  0.00    +0.166 C 
BRANCH  12  13
ATOM     13  O   UNL     1       8.295   4.594  22.577  0.00  0.00    -0.387 OA
ATOM     14  H   UNL     1       8.218   5.467  22.153  0.00  0.00    +0.210 HD
ENDBRANCH  12  13
BRANCH  12  15
ATOM     15  C   UNL     1       9.710   5.424  24.373  0.00  0.00    +0.115 C 
BRANCH  15  16
ATOM     16  N   UNL     1      10.772   4.871  23.524  0.00  0.00    -0.311 NA
ATOM     17  H   UNL     1      11.070   3.982  23.934  0.00  0.00    +0.122 HD
BRANCH  16  19
ATOM     18  C   UNL     1      12.132   6.498  24.711  0.00  0.00    +0.023 C 
ATOM     19  C   UNL     1      11.917   5.777  23.379  0.00  0.00    +0.048 C 
ATOM     20  C   UNL     1      13.193   5.026  22.990  0.00  0.00    +0.023 C 
ENDBRANCH  16  19
ENDBRANCH  15  16
ENDBRANCH  12  15
ENDBRANCH  11  12
ENDBRANCH  10  11
ENDBRANCH   1  10
BRANCH   5  21
ATOM     21  O   UNL     1       8.195  -2.775  23.808  0.00  0.00    -0.425 OA
BRANCH  21  22
ATOM     22  C   UNL     1       8.871  -3.853  24.383  0.00  0.00    +0.309 C 
ATOM     23  O   UNL     1      10.079  -4.016  24.444  0.00  0.00    -0.251 OA
ATOM     24  C   UNL     1       7.859  -4.857  24.865  0.00  0.00    +0.136 C 
ENDBRANCH  21  22
ENDBRANCH   5  21
TORSDOF 9
ENDMDL
MODEL 7
REMARK VINA RESULT:      -5.8      3.074      6.973
REMARK  Name = 
REMARK  15 active torsions:
REMARK  status: ('A' for Active; 'I' for Inactive)
REMARK    1  A    between atoms: C_1  and  C_2
REMARK    2  A    between atoms: C_2  and  C_3
REMARK    3  A    between atoms: C_2  and  N_4
REMARK    4  A    between atoms: N_4  and  C_5
REMARK    5  A    between atoms: C_5  and  C_6
REMARK    6  A    between atoms: C_6  and  O_7
REMARK    7  A    between atoms: C_6  and  C_8
REMARK    8  A    between atoms: C_8  and  O_9
REMARK    9  A    between atoms: O_9  and  C_10
REMARK   10  A    between atoms: C_11  and  C_12
REMARK   11  A    between atoms: C_13  and  C_14
REMARK   12  A    between atoms: C_15  and  O_16
REMARK   13  A    between atoms: O_16  and  C_17
REMARK   14  A    between atoms: C_17  and  C_18
REMARK   15  A    between atoms: C_20  and  C_21
REMARK                            x       y       z     vdW  Elec       q    Type
REMARK                         _______ _______ _______ _____ _____    ______ ____
ROOT
ATOM      1  C   UNL     1       9.054  -1.403  24.501  0.00  0.00    +0.124 A 
ATOM      2  C   UNL     1       8.319  -0.657  25.427  0.00  0.00    +0.053 A 
ATOM      3  C   UNL     1       7.988   0.688  25.197  0.00  0.00    -0.004 A 
ATOM      4  C   UNL     1       7.286   1.423  26.300  0.00  0.00    +0.048 C 
ATOM      5  C   UNL     1       8.342   1.250  23.966  0.00  0.00    +0.138 A 
ATOM      6  C   UNL     1       9.132   0.535  23.028  0.00  0.00    -0.001 A 
ATOM      7  C   UNL     1       9.530   1.222  21.745  0.00  0.00    +0.048 C 
ATOM      8  C   UNL     1       9.520  -0.796  23.319  0.00  0.00    -0.002 A 
ATOM      9  C   UNL     1      10.438  -1.549  22.388  0.00  0.00    +0.048 C 
ENDROOT
BRANCH   1  10
ATOM     10  O   UNL     1       9.406  -2.711  24.717  0.00  0.00    -0.489 OA
BRANCH  10  11
ATOM     11  C   UNL     1       8.950  -3.293  25.949  0.00  0.00    +0.261 C 
BRANCH  11  12
ATOM     12  C   UNL     1       8.991  -4.822  25.810  0.00  0.00    +0.166 C 
BRANCH  12  13
ATOM     13  O   UNL     1      10.237  -5.228  25.230  0.00  0.00    -0.387 OA
ATOM     14  H   UNL     1      10.790  -4.427  25.186  0.00  0.00    +0.210 HD
ENDBRANCH  12  13
BRANCH  12  15
ATOM     15  C   UNL     1       7.824  -5.314  24.930  0.00  0.00    +0.115 C 
BRANCH  15  16
ATOM     16  N   UNL     1       8.153  -5.187  23.505  0.00  0.00    -0.311 NA
ATOM     17  H   UNL     1       8.837  -4.432  23.407  0.00  0.00    +0.122 HD
BRANCH  16  19
ATOM     18  C   UNL     1       7.025  -3.464  22.216  0.00  0.00    +0.023 C 
ATOM     19  C   UNL     1       6.977  -4.925  22.669  0.00  0.00    +0.048 C 
ATOM     20  C   UNL     1       6.933  -5.842  21.443  0.00  0.00    +0.023 C 
ENDBRANCH  16  19
ENDBRANCH  15  16
ENDBRANCH  12  15
ENDBRANCH  11  12
ENDBRANCH  10  11
ENDBRANCH   1  10
BRANCH   5  21
ATOM     21  O   UNL     1       8.076   2.605  23.623  0.00  0.00    -0.425 OA
BRANCH  21  22
ATOM     22  C   UNL     1       6.903   3.067  23.021  0.00  0.00    +0.309 C 
ATOM     23  O   UNL     1       5.815   2.515  23.010  0.00  0.00    -0.251 OA
ATOM     24  C   UNL     1       7.204   4.351  22.297  0.00  0.00    +0.136 C 
ENDBRANCH  21  22
ENDBRANCH   5  21
TORSDOF 9
ENDMDL
MODEL 8
REMARK VINA RESULT:      -5.8      2.995      6.961
REMARK  Name = 
REMARK  15 active torsions:
REMARK  status: ('A' for Active; 'I' for Inactive)
REMARK    1  A    between atoms: C_1  and  C_2
REMARK    2  A    between atoms: C_2  and  C_3
REMARK    3  A    between atoms: C_2  and  N_4
REMARK    4  A    between atoms: N_4  and  C_5
REMARK    5  A    between atoms: C_5  and  C_6
REMARK    6  A    between atoms: C_6  and  O_7
REMARK    7  A    between atoms: C_6  and  C_8
REMARK    8  A    between atoms: C_8  and  O_9
REMARK    9  A    between atoms: O_9  and  C_10
REMARK   10  A    between atoms: C_11  and  C_12
REMARK   11  A    between atoms: C_13  and  C_14
REMARK   12  A    between atoms: C_15  and  O_16
REMARK   13  A    between atoms: O_16  and  C_17
REMARK   14  A    between atoms: C_17  and  C_18
REMARK   15  A    between atoms: C_20  and  C_21
REMARK                            x       y       z     vdW  Elec       q    Type
REMARK                         _______ _______ _______ _____ _____    ______ ____
ROOT
ATOM      1  C   UNL     1       7.650  -3.240  23.842  0.00  0.00    +0.124 A 
ATOM      2  C   UNL     1       8.399  -2.623  22.835  0.00  0.00    +0.053 A 
ATOM      3  C   UNL     1       9.238  -1.530  23.102  0.00  0.00    -0.004 A 
ATOM      4  C   UNL     1       9.917  -0.880  21.933  0.00  0.00    +0.048 C 
ATOM      5  C   UNL     1       9.377  -1.119  24.432  0.00  0.00    +0.138 A 
ATOM      6  C   UNL     1       8.592  -1.691  25.467  0.00  0.00    -0.001 A 
ATOM      7  C   UNL     1       8.747  -1.159  26.870  0.00  0.00    +0.048 C 
ATOM      8  C   UNL     1       7.692  -2.741  25.157  0.00  0.00    -0.002 A 
ATOM      9  C   UNL     1       6.777  -3.304  26.215  0.00  0.00    +0.048 C 
ENDROOT
BRANCH   1  10
ATOM     10  O   UNL     1       6.807  -4.294  23.596  0.00  0.00    -0.489 OA
BRANCH  10  11
ATOM     11  C   UNL     1       7.324  -5.334  22.751  0.00  0.00    +0.261 C 
BRANCH  11  12
ATOM     12  C   UNL     1       6.166  -5.912  21.924  0.00  0.00    +0.166 C 
BRANCH  12  13
ATOM     13  O   UNL     1       6.005  -5.160  20.715  0.00  0.00    -0.387 OA
ATOM     14  H   UNL     1       6.075  -4.222  20.966  0.00  0.00    +0.210 HD
ENDBRANCH  12  13
BRANCH  12  15
ATOM     15  C   UNL     1       4.855  -5.876  22.735  0.00  0.00    +0.115 C 
BRANCH  15  16
ATOM     16  N   UNL     1       4.790  -7.000  23.676  0.00  0.00    -0.311 NA
ATOM     17  H   UNL     1       4.342  -7.786  23.196  0.00  0.00    +0.122 HD
BRANCH  16  19
ATOM     18  C   UNL     1       2.990  -7.738  25.132  0.00  0.00    +0.023 C 
ATOM     19  C   UNL     1       4.065  -6.672  24.908  0.00  0.00    +0.048 C 
ATOM     20  C   UNL     1       4.996  -6.619  26.122  0.00  0.00    +0.023 C 
ENDBRANCH  16  19
ENDBRANCH  15  16
ENDBRANCH  12  15
ENDBRANCH  11  12
ENDBRANCH  10  11
ENDBRANCH   1  10
BRANCH   5  21
ATOM     21  O   UNL     1      10.184  -0.015  24.827  0.00  0.00    -0.425 OA
BRANCH  21  22
ATOM     22  C   UNL     1      10.004   1.304  24.404  0.00  0.00    +0.309 C 
ATOM     23  O   UNL     1      10.818   2.012  23.834  0.00  0.00    -0.251 OA
ATOM     24  C   UNL     1       8.640   1.769  24.839  0.00  0.00    +0.136 C 
ENDBRANCH  21  22
ENDBRANCH   5  21
TORSDOF 9
ENDMDL
MODEL 9
REMARK VINA RESULT:      -5.7      2.909      6.714
REMARK  Name = 
REMARK  15 active torsions:
REMARK  status: ('A' for Active; 'I' for Inactive)
REMARK    1  A    between atoms: C_1  and  C_2
REMARK    2  A    between atoms: C_2  and  C_3
REMARK    3  A    between atoms: C_2  and  N_4
REMARK    4  A    between atoms: N_4  and  C_5
REMARK    5  A    between atoms: C_5  and  C_6
REMARK    6  A    between atoms: C_6  and  O_7
REMARK    7  A    between atoms: C_6  and  C_8
REMARK    8  A    between atoms: C_8  and  O_9
REMARK    9  A    between atoms: O_9  and  C_10
REMARK   10  A    between atoms: C_11  and  C_12
REMARK   11  A    between atoms: C_13  and  C_14
REMARK   12  A    between atoms: C_15  and  O_16
REMARK   13  A    between atoms: O_16  and  C_17
REMARK   14  A    between atoms: C_17  and  C_18
REMARK   15  A    between atoms: C_20  and  C_21
REMARK                            x       y       z     vdW  Elec       q    Type
REMARK                         _______ _______ _______ _____ _____    ______ ____
ROOT
ATOM      1  C   UNL     1       7.841  -1.220  22.865  0.00  0.00    +0.124 A 
ATOM      2  C   UNL     1       6.781  -0.433  23.325  0.00  0.00    +0.053 A 
ATOM      3  C   UNL     1       6.996   0.715  24.103  0.00  0.00    -0.004 A 
ATOM      4  C   UNL     1       5.785   1.427  24.630  0.00  0.00    +0.048 C 
ATOM      5  C   UNL     1       8.316   1.109  24.342  0.00  0.00    +0.138 A 
ATOM      6  C   UNL     1       9.412   0.304  23.931  0.00  0.00    -0.001 A 
ATOM      7  C   UNL     1      10.810   0.757  24.273  0.00  0.00    +0.048 C 
ATOM      8  C   UNL     1       9.165  -0.892  23.215  0.00  0.00    -0.002 A 
ATOM      9  C   UNL     1      10.300  -1.816  22.849  0.00  0.00    +0.048 C 
ENDROOT
BRANCH   1  10
ATOM     10  O   UNL     1       7.650  -2.357  22.122  0.00  0.00    -0.489 OA
BRANCH  10  11
ATOM     11  C   UNL     1       6.339  -2.942  22.185  0.00  0.00    +0.261 C 
BRANCH  11  12
ATOM     12  C   UNL     1       6.463  -4.448  21.913  0.00  0.00    +0.166 C 
BRANCH  12  13
ATOM     13  O   UNL     1       5.177  -5.071  22.017  0.00  0.00    -0.387 OA
ATOM     14  H   UNL     1       4.615  -4.650  21.342  0.00  0.00    +0.210 HD
ENDBRANCH  12  13
BRANCH  12  15
ATOM     15  C   UNL     1       7.437  -5.098  22.916  0.00  0.00    +0.115 C 
BRANCH  15  16
ATOM     16  N   UNL     1       7.268  -4.525  24.257  0.00  0.00    -0.311 NA
ATOM     17  H   UNL     1       6.687  -3.687  24.169  0.00  0.00    +0.122 HD
BRANCH  16  19
ATOM     18  C   UNL     1       8.262  -3.262  26.079  0.00  0.00    +0.023 C 
ATOM     19  C   UNL     1       8.544  -4.199  24.903  0.00  0.00    +0.048 C 
ATOM     20  C   UNL     1       9.266  -5.452  25.405  0.00  0.00    +0.023 C 
ENDBRANCH  16  19
ENDBRANCH  15  16
ENDBRANCH  12  15
ENDBRANCH  11  12
ENDBRANCH  10  11
ENDBRANCH   1  10
BRANCH   5  21
ATOM     21  O   UNL     1       8.662   2.243  25.128  0.00  0.00    -0.425 OA
BRANCH  21  22
ATOM     22  C   UNL     1       8.693   3.561  24.668  0.00  0.00    +0.309 C 
ATOM     23  O   UNL     1       9.253   3.979  23.667  0.00  0.00    -0.251 OA
ATOM     24  C   UNL     1       7.976   4.437  25.660  0.00  0.00    +0.136 C 
ENDBRANCH  21  22
ENDBRANCH   5  21
TORSDOF 9
ENDMDL
