MODEL 1
REMARK VINA RESULT:      -7.6      0.000      0.000
REMARK  Name = 
REMARK  15 active torsions:
REMARK  status: ('A' for Active; 'I' for Inactive)
REMARK    1  A    between atoms: C_4  and  C_5
REMARK    2  A    between atoms: C_4  and  C_6
REMARK    3  A    between atoms: C_7  and  C_26
REMARK    4  A    between atoms: C_12  and  N_14
REMARK    5  A    between atoms: C_15  and  C_17
REMARK    6  A    between atoms: C_17  and  N_19
REMARK    7  A    between atoms: C_17  and  C_20
REMARK    8  A    between atoms: C_26  and  O_28
REMARK    9  A    between atoms: O_28  and  C_29
REMARK   10  A    between atoms: C_29  and  O_30
REMARK   11  A    between atoms: O_30  and  C_31
REMARK   12  A    between atoms: C_31  and  C_33
REMARK   13  A    between atoms: C_33  and  C_34
REMARK   14  A    between atoms: C_33  and  C_35
REMARK   15  A    between atoms: C_33  and  C_36
REMARK                            x       y       z     vdW  Elec       q    Type
REMARK                         _______ _______ _______ _____ _____    ______ ____
ROOT
ATOM      1  C   UNL     1       8.738   1.201  21.524  0.00  0.00    +0.165 C 
ATOM      2  C   UNL     1       7.433   2.038  21.619  0.00  0.00    +0.190 C 
ATOM      3  C   UNL     1       7.071   1.058  22.764  0.00  0.00    +0.240 C 
ATOM      4  O   UNL     1       6.298   1.035  23.693  0.00  0.00    -0.273 OA
ATOM      5  N   UNL     1       8.153   0.263  22.498  0.00  0.00    -0.271 N 
ATOM      6  C   UNL     1       9.025  -0.206  23.579  0.00  0.00    +0.201 C 
ATOM      7  C   UNL     1       9.950   0.985  23.946  0.00  0.00    +0.042 C 
ATOM      8  C   UNL     1       9.263   1.970  24.916  0.00  0.00    +0.025 C 
ATOM      9  C   UNL     1      11.300   0.618  24.570  0.00  0.00    +0.025 C 
ATOM     10  S   UNL     1      10.245   1.880  22.352  0.00  0.00    -0.127 S 
ENDROOT
BRANCH   2  11
ATOM     11  N   UNL     1       7.575   3.471  21.982  0.00  0.00    -0.300 N 
ATOM     12  H   UNL     1       8.448   3.977  21.870  0.00  0.00    +0.150 HD
ATOM     13  C   UNL     1       6.478   4.261  22.260  0.00  0.00    +0.235 C 
ATOM     14  O   UNL     1       5.338   3.809  22.308  0.00  0.00    -0.274 OA
BRANCH  13  15
ATOM     15  C   UNL     1       6.812   5.750  22.518  0.00  0.00    +0.168 C 
BRANCH  15  16
ATOM     16  C   UNL     1       7.777   5.924  23.675  0.00  0.00    -0.022 A 
ATOM     17  C   UNL     1       7.410   5.594  24.991  0.00  0.00    +0.005 A 
ATOM     18  C   UNL     1       8.311   5.746  26.045  0.00  0.00    +0.000 A 
ATOM     19  C   UNL     1       9.595   6.227  25.801  0.00  0.00    +0.000 A 
ATOM     20  C   UNL     1       9.976   6.562  24.504  0.00  0.00    +0.000 A 
ATOM     21  C   UNL     1       9.073   6.414  23.447  0.00  0.00    +0.005 A 
ENDBRANCH  15  16
BRANCH  15  22
ATOM     22  N   UNL     1       7.354   6.374  21.283  0.00  0.00    -0.316 NA
ATOM     23  H   UNL     1       8.315   6.659  21.479  0.00  0.00    +0.119 HD
ATOM     24  H   UNL     1       7.431   5.632  20.584  0.00  0.00    +0.119 HD
ENDBRANCH  15  22
ENDBRANCH  13  15
ENDBRANCH   2  11
BRANCH   6  25
ATOM     25  C   UNL     1       9.766  -1.505  23.198  0.00  0.00    +0.332 C 
ATOM     26  O   UNL     1      10.362  -1.653  22.136  0.00  0.00    -0.249 OA
BRANCH  25  27
ATOM     27  O   UNL     1       9.741  -2.437  24.188  0.00  0.00    -0.426 OA
BRANCH  27  28
ATOM     28  C   UNL     1       8.455  -3.002  24.464  0.00  0.00    +0.472 C 
BRANCH  28  29
ATOM     29  O   UNL     1       7.776  -3.400  23.269  0.00  0.00    -0.427 OA
BRANCH  29  30
ATOM     30  C   UNL     1       7.558  -4.738  23.159  0.00  0.00    +0.315 C 
ATOM     31  O   UNL     1       8.360  -5.598  23.502  0.00  0.00    -0.250 OA
BRANCH  30  32
ATOM     32  C   UNL     1       6.189  -5.027  22.536  0.00  0.00    +0.059 C 
ATOM     33  C   UNL     1       5.394  -3.720  22.411  0.00  0.00    +0.022 C 
ATOM     34  C   UNL     1       5.416  -5.998  23.442  0.00  0.00    +0.022 C 
ATOM     35  C   UNL     1       6.373  -5.670  21.156  0.00  0.00    +0.022 C 
ENDBRANCH  30  32
ENDBRANCH  29  30
ENDBRANCH  28  29
ENDBRANCH  27  28
ENDBRANCH  25  27
ENDBRANCH   6  25
TORSDOF 10
ENDMDL
MODEL 2
REMARK VINA RESULT:      -7.1      3.840      9.393
REMARK  Name = 
REMARK  15 active torsions:
REMARK  status: ('A' for Active; 'I' for Inactive)
REMARK    1  A    between atoms: C_4  and  C_5
REMARK    2  A    between atoms: C_4  and  C_6
REMARK    3  A    between atoms: C_7  and  C_26
REMARK    4  A    between atoms: C_12  and  N_14
REMARK    5  A    between atoms: C_15  and  C_17
REMARK    6  A    between atoms: C_17  and  N_19
REMARK    7  A    between atoms: C_17  and  C_20
REMARK    8  A    between atoms: C_26  and  O_28
REMARK    9  A    between atoms: O_28  and  C_29
REMARK   10  A    between atoms: C_29  and  O_30
REMARK   11  A    between atoms: O_30  and  C_31
REMARK   12  A    between atoms: C_31  and  C_33
REMARK   13  A    between atoms: C_33  and  C_34
REMARK   14  A    between atoms: C_33  and  C_35
REMARK   15  A    between atoms: C_33  and  C_36
REMARK                            x       y       z     vdW  Elec       q    Type
REMARK                         _______ _______ _______ _____ _____    ______ ____
ROOT
ATOM      1  C   UNL     1       5.393  -3.750  22.846  0.00  0.00    +0.165 C 
ATOM      2  C   UNL     1       5.150  -5.177  22.283  0.00  0.00    +0.190 C 
ATOM      3  C   UNL     1       6.589  -5.035  21.725  0.00  0.00    +0.240 C 
ATOM      4  O   UNL     1       7.451  -5.775  21.314  0.00  0.00    -0.273 OA
ATOM      5  N   UNL     1       6.659  -3.718  22.092  0.00  0.00    -0.271 N 
ATOM      6  C   UNL     1       7.837  -3.194  22.789  0.00  0.00    +0.201 C 
ATOM      7  C   UNL     1       7.703  -3.632  24.271  0.00  0.00    +0.042 C 
ATOM      8  C   UNL     1       8.204  -5.075  24.492  0.00  0.00    +0.025 C 
ATOM      9  C   UNL     1       8.421  -2.751  25.299  0.00  0.00    +0.025 C 
ATOM     10  S   UNL     1       5.884  -3.610  24.622  0.00  0.00    -0.127 S 
ENDROOT
BRANCH   2  11
ATOM     11  N   UNL     1       4.916  -6.262  23.270  0.00  0.00    -0.300 N 
ATOM     12  H   UNL     1       5.676  -6.727  23.757  0.00  0.00    +0.150 HD
ATOM     13  C   UNL     1       3.656  -6.534  23.764  0.00  0.00    +0.235 C 
ATOM     14  O   UNL     1       2.652  -5.959  23.356  0.00  0.00    -0.274 OA
BRANCH  13  15
ATOM     15  C   UNL     1       3.623  -7.630  24.857  0.00  0.00    +0.168 C 
BRANCH  15  16
ATOM     16  C   UNL     1       3.662  -7.041  26.254  0.00  0.00    -0.022 A 
ATOM     17  C   UNL     1       4.879  -6.720  26.879  0.00  0.00    +0.005 A 
ATOM     18  C   UNL     1       4.902  -6.166  28.160  0.00  0.00    +0.000 A 
ATOM     19  C   UNL     1       3.708  -5.921  28.834  0.00  0.00    +0.000 A 
ATOM     20  C   UNL     1       2.493  -6.235  28.232  0.00  0.00    +0.000 A 
ATOM     21  C   UNL     1       2.468  -6.794  26.951  0.00  0.00    +0.005 A 
ENDBRANCH  15  16
BRANCH  15  22
ATOM     22  N   UNL     1       2.423  -8.489  24.682  0.00  0.00    -0.316 NA
ATOM     23  H   UNL     1       2.440  -9.194  25.422  0.00  0.00    +0.119 HD
ATOM     24  H   UNL     1       1.608  -7.907  24.884  0.00  0.00    +0.119 HD
ENDBRANCH  15  22
ENDBRANCH  13  15
ENDBRANCH   2  11
BRANCH   6  25
ATOM     25  C   UNL     1       8.000  -1.673  22.578  0.00  0.00    +0.332 C 
ATOM     26  O   UNL     1       7.101  -0.865  22.784  0.00  0.00    -0.249 OA
BRANCH  25  27
ATOM     27  O   UNL     1       9.261  -1.325  22.204  0.00  0.00    -0.426 OA
BRANCH  27  28
ATOM     28  C   UNL     1       9.345  -0.230  21.285  0.00  0.00    +0.472 C 
BRANCH  28  29
ATOM     29  O   UNL     1      10.114   0.854  21.812  0.00  0.00    -0.427 OA
BRANCH  29  30
ATOM     30  C   UNL     1       9.380   1.848  22.380  0.00  0.00    +0.315 C 
ATOM     31  O   UNL     1       8.363   2.321  21.888  0.00  0.00    -0.250 OA
BRANCH  30  32
ATOM     32  C   UNL     1       9.998   2.308  23.704  0.00  0.00    +0.059 C 
ATOM     33  C   UNL     1       8.903   2.881  24.613  0.00  0.00    +0.022 C 
ATOM     34  C   UNL     1      11.038   3.404  23.422  0.00  0.00    +0.022 C 
ATOM     35  C   UNL     1      10.693   1.125  24.389  0.00  0.00    +0.022 C 
ENDBRANCH  30  32
ENDBRANCH  29  30
ENDBRANCH  28  29
ENDBRANCH  27  28
ENDBRANCH  25  27
ENDBRANCH   6  25
TORSDOF 10
ENDMDL
MODEL 3
REMARK VINA RESULT:      -6.9      2.329      3.643
REMARK  Name = 
REMARK  15 active torsions:
REMARK  status: ('A' for Active; 'I' for Inactive)
REMARK    1  A    between atoms: C_4  and  C_5
REMARK    2  A    between atoms: C_4  and  C_6
REMARK    3  A    between atoms: C_7  and  C_26
REMARK    4  A    between atoms: C_12  and  N_14
REMARK    5  A    between atoms: C_15  and  C_17
REMARK    6  A    between atoms: C_17  and  N_19
REMARK    7  A    between atoms: C_17  and  C_20
REMARK    8  A    between atoms: C_26  and  O_28
REMARK    9  A    between atoms: O_28  and  C_29
REMARK   10  A    between atoms: C_29  and  O_30
REMARK   11  A    between atoms: O_30  and  C_31
REMARK   12  A    between atoms: C_31  and  C_33
REMARK   13  A    between atoms: C_33  and  C_34
REMARK   14  A    between atoms: C_33  and  C_35
REMARK   15  A    between atoms: C_33  and  C_36
REMARK                            x       y       z     vdW  Elec       q    Type
REMARK                         _______ _______ _______ _____ _____    ______ ____
ROOT
ATOM      1  C   UNL     1       9.781  -1.088  25.118  0.00  0.00    +0.165 C 
ATOM      2  C   UNL     1       9.995  -0.122  23.921  0.00  0.00    +0.190 C 
ATOM      3  C   UNL     1       9.144  -1.152  23.136  0.00  0.00    +0.240 C 
ATOM      4  O   UNL     1       8.508  -1.169  22.108  0.00  0.00    -0.273 OA
ATOM      5  N   UNL     1       9.154  -2.037  24.181  0.00  0.00    -0.271 N 
ATOM      6  C   UNL     1       7.920  -2.693  24.623  0.00  0.00    +0.201 C 
ATOM      7  C   UNL     1       7.148  -1.650  25.473  0.00  0.00    +0.042 C 
ATOM      8  C   UNL     1       6.327  -0.683  24.592  0.00  0.00    +0.025 C 
ATOM      9  C   UNL     1       6.185  -2.219  26.520  0.00  0.00    +0.025 C 
ATOM     10  S   UNL     1       8.455  -0.657  26.330  0.00  0.00    -0.127 S 
ENDROOT
BRANCH   2  11
ATOM     11  N   UNL     1       9.440   1.249  24.051  0.00  0.00    -0.300 N 
ATOM     12  H   UNL     1       9.116   1.622  24.938  0.00  0.00    +0.150 HD
ATOM     13  C   UNL     1       9.554   2.178  23.037  0.00  0.00    +0.235 C 
ATOM     14  O   UNL     1      10.041   1.901  21.944  0.00  0.00    -0.274 OA
BRANCH  13  15
ATOM     15  C   UNL     1       9.005   3.581  23.391  0.00  0.00    +0.168 C 
BRANCH  15  16
ATOM     16  C   UNL     1      10.115   4.555  23.736  0.00  0.00    -0.022 A 
ATOM     17  C   UNL     1       9.864   5.713  24.492  0.00  0.00    +0.005 A 
ATOM     18  C   UNL     1      10.896   6.595  24.815  0.00  0.00    +0.000 A 
ATOM     19  C   UNL     1      12.196   6.332  24.391  0.00  0.00    +0.000 A 
ATOM     20  C   UNL     1      12.463   5.192  23.638  0.00  0.00    +0.000 A 
ATOM     21  C   UNL     1      11.430   4.309  23.310  0.00  0.00    +0.005 A 
ENDBRANCH  15  16
BRANCH  15  22
ATOM     22  N   UNL     1       8.176   4.103  22.273  0.00  0.00    -0.316 NA
ATOM     23  H   UNL     1       7.265   3.643  22.327  0.00  0.00    +0.119 HD
ATOM     24  H   UNL     1       7.992   5.088  22.474  0.00  0.00    +0.119 HD
ENDBRANCH  15  22
ENDBRANCH  13  15
ENDBRANCH   2  11
BRANCH   6  25
ATOM     25  C   UNL     1       8.205  -4.029  25.342  0.00  0.00    +0.332 C 
ATOM     26  O   UNL     1       9.011  -4.140  26.261  0.00  0.00    -0.249 OA
BRANCH  25  27
ATOM     27  O   UNL     1       7.423  -5.047  24.894  0.00  0.00    -0.426 OA
BRANCH  27  28
ATOM     28  C   UNL     1       7.297  -5.139  23.471  0.00  0.00    +0.472 C 
BRANCH  28  29
ATOM     29  O   UNL     1       6.125  -5.860  23.081  0.00  0.00    -0.427 OA
BRANCH  29  30
ATOM     30  C   UNL     1       5.001  -5.103  22.975  0.00  0.00    +0.315 C 
ATOM     31  O   UNL     1       4.878  -4.154  22.211  0.00  0.00    -0.250 OA
BRANCH  30  32
ATOM     32  C   UNL     1       3.916  -5.582  23.945  0.00  0.00    +0.059 C 
ATOM     33  C   UNL     1       2.549  -5.548  23.247  0.00  0.00    +0.022 C 
ATOM     34  C   UNL     1       3.878  -4.646  25.164  0.00  0.00    +0.022 C 
ATOM     35  C   UNL     1       4.236  -7.006  24.417  0.00  0.00    +0.022 C 
ENDBRANCH  30  32
ENDBRANCH  29  30
ENDBRANCH  28  29
ENDBRANCH  27  28
ENDBRANCH  25  27
ENDBRANCH   6  25
TORSDOF 10
ENDMDL
MODEL 4
REMARK VINA RESULT:      -6.9      3.527      9.128
REMARK  Name = 
REMARK  15 active torsions:
REMARK  status: ('A' for Active; 'I' for Inactive)
REMARK    1  A    between atoms: C_4  and  C_5
REMARK    2  A    between atoms: C_4  and  C_6
REMARK    3  A    between atoms: C_7  and  C_26
REMARK    4  A    between atoms: C_12  and  N_14
REMARK    5  A    between atoms: C_15  and  C_17
REMARK    6  A    between atoms: C_17  and  N_19
REMARK    7  A    between atoms: C_17  and  C_20
REMARK    8  A    between atoms: C_26  and  O_28
REMARK    9  A    between atoms: O_28  and  C_29
REMARK   10  A    between atoms: C_29  and  O_30
REMARK   11  A    between atoms: O_30  and  C_31
REMARK   12  A    between atoms: C_31  and  C_33
REMARK   13  A    between atoms: C_33  and  C_34
REMARK   14  A    between atoms: C_33  and  C_35
REMARK   15  A    between atoms: C_33  and  C_36
REMARK                            x       y       z     vdW  Elec       q    Type
REMARK                         _______ _______ _______ _____ _____    ______ ____
ROOT
ATOM      1  C   UNL     1       8.242  -4.547  24.107  0.00  0.00    +0.165 C 
ATOM      2  C   UNL     1       8.046  -5.187  25.509  0.00  0.00    +0.190 C 
ATOM      3  C   UNL     1       8.748  -3.904  26.022  0.00  0.00    +0.240 C 
ATOM      4  O   UNL     1       8.851  -3.317  27.074  0.00  0.00    -0.273 OA
ATOM      5  N   UNL     1       9.047  -3.494  24.751  0.00  0.00    -0.271 N 
ATOM      6  C   UNL     1       8.797  -2.112  24.329  0.00  0.00    +0.201 C 
ATOM      7  C   UNL     1       7.277  -2.009  24.039  0.00  0.00    +0.042 C 
ATOM      8  C   UNL     1       6.460  -1.771  25.327  0.00  0.00    +0.025 C 
ATOM      9  C   UNL     1       6.857  -0.924  23.041  0.00  0.00    +0.025 C 
ATOM     10  S   UNL     1       6.796  -3.666  23.367  0.00  0.00    -0.127 S 
ENDROOT
BRANCH   2  11
ATOM     11  N   UNL     1       6.650  -5.415  25.959  0.00  0.00    -0.300 N 
ATOM     12  H   UNL     1       5.864  -5.412  25.315  0.00  0.00    +0.150 HD
ATOM     13  C   UNL     1       6.362  -5.881  27.226  0.00  0.00    +0.235 C 
ATOM     14  O   UNL     1       7.231  -6.051  28.076  0.00  0.00    -0.274 OA
BRANCH  13  15
ATOM     15  C   UNL     1       4.860  -6.153  27.480  0.00  0.00    +0.168 C 
BRANCH  15  16
ATOM     16  C   UNL     1       4.053  -6.136  26.197  0.00  0.00    -0.022 A 
ATOM     17  C   UNL     1       3.863  -7.303  25.437  0.00  0.00    +0.005 A 
ATOM     18  C   UNL     1       3.107  -7.279  24.264  0.00  0.00    +0.000 A 
ATOM     19  C   UNL     1       2.528  -6.088  23.833  0.00  0.00    +0.000 A 
ATOM     20  C   UNL     1       2.708  -4.921  24.572  0.00  0.00    +0.000 A 
ATOM     21  C   UNL     1       3.467  -4.943  25.744  0.00  0.00    +0.005 A 
ENDBRANCH  15  16
BRANCH  15  22
ATOM     22  N   UNL     1       4.689  -7.446  28.193  0.00  0.00    -0.316 NA
ATOM     23  H   UNL     1       5.086  -7.336  29.128  0.00  0.00    +0.119 HD
ATOM     24  H   UNL     1       3.686  -7.574  28.340  0.00  0.00    +0.119 HD
ENDBRANCH  15  22
ENDBRANCH  13  15
ENDBRANCH   2  11
BRANCH   6  25
ATOM     25  C   UNL     1       9.708  -1.697  23.153  0.00  0.00    +0.332 C 
ATOM     26  O   UNL     1       9.667  -2.230  22.049  0.00  0.00    -0.249 OA
BRANCH  25  27
ATOM     27  O   UNL     1      10.510  -0.641  23.455  0.00  0.00    -0.426 OA
BRANCH  27  28
ATOM     28  C   UNL     1      10.386  -0.142  24.791  0.00  0.00    +0.472 C 
BRANCH  28  29
ATOM     29  O   UNL     1      10.378   1.287  24.832  0.00  0.00    -0.427 OA
BRANCH  29  30
ATOM     30  C   UNL     1       9.188   1.858  24.501  0.00  0.00    +0.315 C 
ATOM     31  O   UNL     1       8.131   1.630  25.074  0.00  0.00    -0.250 OA
BRANCH  30  32
ATOM     32  C   UNL     1       9.343   2.811  23.311  0.00  0.00    +0.059 C 
ATOM     33  C   UNL     1      10.803   3.271  23.206  0.00  0.00    +0.022 C 
ATOM     34  C   UNL     1       8.445   4.040  23.528  0.00  0.00    +0.022 C 
ATOM     35  C   UNL     1       8.915   2.102  22.020  0.00  0.00    +0.022 C 
ENDBRANCH  30  32
ENDBRANCH  29  30
ENDBRANCH  28  29
ENDBRANCH  27  28
ENDBRANCH  25  27
ENDBRANCH   6  25
TORSDOF 10
ENDMDL
MODEL 5
REMARK VINA RESULT:      -6.8      2.859      8.510
REMARK  Name = 
REMARK  15 active torsions:
REMARK  status: ('A' for Active; 'I' for Inactive)
REMARK    1  A    between atoms: C_4  and  C_5
REMARK    2  A    between atoms: C_4  and  C_6
REMARK    3  A    between atoms: C_7  and  C_26
REMARK    4  A    between atoms: C_12  and  N_14
REMARK    5  A    between atoms: C_15  and  C_17
REMARK    6  A    between atoms: C_17  and  N_19
REMARK    7  A    between atoms: C_17  and  C_20
REMARK    8  A    between atoms: C_26  and  O_28
REMARK    9  A    between atoms: O_28  and  C_29
REMARK   10  A    between atoms: C_29  and  O_30
REMARK   11  A    between atoms: O_30  and  C_31
REMARK   12  A    between atoms: C_31  and  C_33
REMARK   13  A    between atoms: C_33  and  C_34
REMARK   14  A    between atoms: C_33  and  C_35
REMARK   15  A    between atoms: C_33  and  C_36
REMARK                            x       y       z     vdW  Elec       q    Type
REMARK                         _______ _______ _______ _____ _____    ______ ____
ROOT
ATOM      1  C   UNL     1       9.258  -1.115  25.691  0.00  0.00    +0.165 C 
ATOM      2  C   UNL     1       7.974  -1.276  26.550  0.00  0.00    +0.190 C 
ATOM      3  C   UNL     1       7.654   0.161  26.064  0.00  0.00    +0.240 C 
ATOM      4  O   UNL     1       6.678   0.870  25.993  0.00  0.00    -0.273 OA
ATOM      5  N   UNL     1       8.886   0.296  25.482  0.00  0.00    -0.271 N 
ATOM      6  C   UNL     1       9.021   0.827  24.123  0.00  0.00    +0.201 C 
ATOM      7  C   UNL     1       8.659  -0.333  23.159  0.00  0.00    +0.042 C 
ATOM      8  C   UNL     1       7.133  -0.465  22.965  0.00  0.00    +0.025 C 
ATOM      9  C   UNL     1       9.279  -0.262  21.760  0.00  0.00    +0.025 C 
ATOM     10  S   UNL     1       9.252  -1.871  24.005  0.00  0.00    -0.127 S 
ENDROOT
BRANCH   2  11
ATOM     11  N   UNL     1       7.025  -2.346  26.152  0.00  0.00    -0.300 N 
ATOM     12  H   UNL     1       6.265  -2.184  25.498  0.00  0.00    +0.150 HD
ATOM     13  C   UNL     1       7.260  -3.673  26.452  0.00  0.00    +0.235 C 
ATOM     14  O   UNL     1       8.215  -4.033  27.135  0.00  0.00    -0.274 OA
BRANCH  13  15
ATOM     15  C   UNL     1       6.214  -4.654  25.870  0.00  0.00    +0.168 C 
BRANCH  15  16
ATOM     16  C   UNL     1       6.229  -4.667  24.354  0.00  0.00    -0.022 A 
ATOM     17  C   UNL     1       7.257  -5.303  23.637  0.00  0.00    +0.005 A 
ATOM     18  C   UNL     1       7.253  -5.320  22.242  0.00  0.00    +0.000 A 
ATOM     19  C   UNL     1       6.219  -4.705  21.541  0.00  0.00    +0.000 A 
ATOM     20  C   UNL     1       5.193  -4.068  22.234  0.00  0.00    +0.000 A 
ATOM     21  C   UNL     1       5.197  -4.046  23.631  0.00  0.00    +0.005 A 
ENDBRANCH  15  16
BRANCH  15  22
ATOM     22  N   UNL     1       6.439  -6.020  26.411  0.00  0.00    -0.316 NA
ATOM     23  H   UNL     1       7.337  -6.349  26.048  0.00  0.00    +0.119 HD
ATOM     24  H   UNL     1       6.577  -5.923  27.418  0.00  0.00    +0.119 HD
ENDBRANCH  15  22
ENDBRANCH  13  15
ENDBRANCH   2  11
BRANCH   6  25
ATOM     25  C   UNL     1      10.413   1.453  23.886  0.00  0.00    +0.332 C 
ATOM     26  O   UNL     1      11.448   0.985  24.348  0.00  0.00    -0.249 OA
BRANCH  25  27
ATOM     27  O   UNL     1      10.372   2.532  23.060  0.00  0.00    -0.426 OA
BRANCH  27  28
ATOM     28  C   UNL     1      10.503   3.802  23.708  0.00  0.00    +0.472 C 
BRANCH  28  29
ATOM     29  O   UNL     1       9.237   4.342  24.093  0.00  0.00    -0.427 OA
BRANCH  29  30
ATOM     30  C   UNL     1       8.871   5.468  23.424  0.00  0.00    +0.315 C 
ATOM     31  O   UNL     1       9.599   6.438  23.257  0.00  0.00    -0.250 OA
BRANCH  30  32
ATOM     32  C   UNL     1       7.428   5.369  22.920  0.00  0.00    +0.059 C 
ATOM     33  C   UNL     1       6.458   5.518  24.100  0.00  0.00    +0.022 C 
ATOM     34  C   UNL     1       7.214   3.994  22.267  0.00  0.00    +0.022 C 
ATOM     35  C   UNL     1       7.167   6.463  21.877  0.00  0.00    +0.022 C 
ENDBRANCH  30  32
ENDBRANCH  29  30
ENDBRANCH  28  29
ENDBRANCH  27  28
ENDBRANCH  25  27
ENDBRANCH   6  25
TORSDOF 10
ENDMDL
MODEL 6
REMARK VINA RESULT:      -6.7      2.663      8.766
REMARK  Name = 
REMARK  15 active torsions:
REMARK  status: ('A' for Active; 'I' for Inactive)
REMARK    1  A    between atoms: C_4  and  C_5
REMARK    2  A    between atoms: C_4  and  C_6
REMARK    3  A    between atoms: C_7  and  C_26
REMARK    4  A    between atoms: C_12  and  N_14
REMARK    5  A    between atoms: C_15  and  C_17
REMARK    6  A    between atoms: C_17  and  N_19
REMARK    7  A    between atoms: C_17  and  C_20
REMARK    8  A    between atoms: C_26  and  O_28
REMARK    9  A    between atoms: O_28  and  C_29
REMARK   10  A    between atoms: C_29  and  O_30
REMARK   11  A    between atoms: O_30  and  C_31
REMARK   12  A    between atoms: C_31  and  C_33
REMARK   13  A    between atoms: C_33  and  C_34
REMARK   14  A    between atoms: C_33  and  C_35
REMARK   15  A    between atoms: C_33  and  C_36
REMARK                            x       y       z     vdW  Elec       q    Type
REMARK                         _______ _______ _______ _____ _____    ______ ____
ROOT
ATOM      1  C   UNL     1       9.193  -0.691  25.524  0.00  0.00    +0.165 C 
ATOM      2  C   UNL     1       8.031  -1.421  26.252  0.00  0.00    +0.190 C 
ATOM      3  C   UNL     1       7.129  -0.419  25.488  0.00  0.00    +0.240 C 
ATOM      4  O   UNL     1       5.961  -0.338  25.186  0.00  0.00    -0.273 OA
ATOM      5  N   UNL     1       8.208   0.287  25.030  0.00  0.00    -0.271 N 
ATOM      6  C   UNL     1       8.307   0.680  23.621  0.00  0.00    +0.201 C 
ATOM      7  C   UNL     1       8.764  -0.582  22.844  0.00  0.00    +0.042 C 
ATOM      8  C   UNL     1       7.578  -1.512  22.509  0.00  0.00    +0.025 C 
ATOM      9  C   UNL     1       9.511  -0.327  21.531  0.00  0.00    +0.025 C 
ATOM     10  S   UNL     1       9.881  -1.492  24.007  0.00  0.00    -0.127 S 
ENDROOT
BRANCH   2  11
ATOM     11  N   UNL     1       7.842  -2.862  25.947  0.00  0.00    -0.300 N 
ATOM     12  H   UNL     1       8.539  -3.409  25.451  0.00  0.00    +0.150 HD
ATOM     13  C   UNL     1       6.830  -3.600  26.527  0.00  0.00    +0.235 C 
ATOM     14  O   UNL     1       5.981  -3.092  27.255  0.00  0.00    -0.274 OA
BRANCH  13  15
ATOM     15  C   UNL     1       6.851  -5.105  26.169  0.00  0.00    +0.168 C 
BRANCH  15  16
ATOM     16  C   UNL     1       6.560  -5.345  24.701  0.00  0.00    -0.022 A 
ATOM     17  C   UNL     1       5.255  -5.595  24.244  0.00  0.00    +0.005 A 
ATOM     18  C   UNL     1       4.998  -5.801  22.888  0.00  0.00    +0.000 A 
ATOM     19  C   UNL     1       6.040  -5.756  21.966  0.00  0.00    +0.000 A 
ATOM     20  C   UNL     1       7.341  -5.513  22.400  0.00  0.00    +0.000 A 
ATOM     21  C   UNL     1       7.601  -5.311  23.758  0.00  0.00    +0.005 A 
ENDBRANCH  15  16
BRANCH  15  22
ATOM     22  N   UNL     1       8.158  -5.702  26.551  0.00  0.00    -0.316 NA
ATOM     23  H   UNL     1       8.066  -6.717  26.472  0.00  0.00    +0.119 HD
ATOM     24  H   UNL     1       8.829  -5.437  25.828  0.00  0.00    +0.119 HD
ENDBRANCH  15  22
ENDBRANCH  13  15
ENDBRANCH   2  11
BRANCH   6  25
ATOM     25  C   UNL     1       9.211   1.917  23.432  0.00  0.00    +0.332 C 
ATOM     26  O   UNL     1      10.229   2.114  24.088  0.00  0.00    -0.249 OA
BRANCH  25  27
ATOM     27  O   UNL     1       8.794   2.725  22.420  0.00  0.00    -0.426 OA
BRANCH  27  28
ATOM     28  C   UNL     1       7.409   3.085  22.457  0.00  0.00    +0.472 C 
BRANCH  28  29
ATOM     29  O   UNL     1       7.223   4.502  22.477  0.00  0.00    -0.427 OA
BRANCH  29  30
ATOM     30  C   UNL     1       6.821   5.006  23.675  0.00  0.00    +0.315 C 
ATOM     31  O   UNL     1       5.738   4.770  24.193  0.00  0.00    -0.250 OA
BRANCH  30  32
ATOM     32  C   UNL     1       7.894   5.917  24.281  0.00  0.00    +0.059 C 
ATOM     33  C   UNL     1       8.836   6.410  23.175  0.00  0.00    +0.022 C 
ATOM     34  C   UNL     1       8.707   5.121  25.314  0.00  0.00    +0.022 C 
ATOM     35  C   UNL     1       7.227   7.108  24.981  0.00  0.00    +0.022 C 
ENDBRANCH  30  32
ENDBRANCH  29  30
ENDBRANCH  28  29
ENDBRANCH  27  28
ENDBRANCH  25  27
ENDBRANCH   6  25
TORSDOF 10
ENDMDL
MODEL 7
REMARK VINA RESULT:      -6.7      2.861      8.949
REMARK  Name = 
REMARK  15 active torsions:
REMARK  status: ('A' for Active; 'I' for Inactive)
REMARK    1  A    between atoms: C_4  and  C_5
REMARK    2  A    between atoms: C_4  and  C_6
REMARK    3  A    between atoms: C_7  and  C_26
REMARK    4  A    between atoms: C_12  and  N_14
REMARK    5  A    between atoms: C_15  and  C_17
REMARK    6  A    between atoms: C_17  and  N_19
REMARK    7  A    between atoms: C_17  and  C_20
REMARK    8  A    between atoms: C_26  and  O_28
REMARK    9  A    between atoms: O_28  and  C_29
REMARK   10  A    between atoms: C_29  and  O_30
REMARK   11  A    between atoms: O_30  and  C_31
REMARK   12  A    between atoms: C_31  and  C_33
REMARK   13  A    between atoms: C_33  and  C_34
REMARK   14  A    between atoms: C_33  and  C_35
REMARK   15  A    between atoms: C_33  and  C_36
REMARK                            x       y       z     vdW  Elec       q    Type
REMARK                         _______ _______ _______ _____ _____    ______ ____
ROOT
ATOM      1  C   UNL     1       8.071  -1.603  22.584  0.00  0.00    +0.165 C 
ATOM      2  C   UNL     1       8.040  -3.154  22.512  0.00  0.00    +0.190 C 
ATOM      3  C   UNL     1       9.226  -3.071  23.505  0.00  0.00    +0.240 C 
ATOM      4  O   UNL     1       9.778  -3.814  24.283  0.00  0.00    -0.273 OA
ATOM      5  N   UNL     1       9.310  -1.711  23.375  0.00  0.00    -0.271 N 
ATOM      6  C   UNL     1       9.425  -0.849  24.554  0.00  0.00    +0.201 C 
ATOM      7  C   UNL     1       8.000  -0.735  25.157  0.00  0.00    +0.042 C 
ATOM      8  C   UNL     1       7.660  -1.939  26.061  0.00  0.00    +0.025 C 
ATOM      9  C   UNL     1       7.718   0.529  25.977  0.00  0.00    +0.025 C 
ATOM     10  S   UNL     1       6.853  -0.781  23.704  0.00  0.00    -0.127 S 
ENDROOT
BRANCH   2  11
ATOM     11  N   UNL     1       6.807  -3.828  22.993  0.00  0.00    -0.300 N 
ATOM     12  H   UNL     1       5.992  -3.311  23.308  0.00  0.00    +0.150 HD
ATOM     13  C   UNL     1       6.602  -5.181  22.813  0.00  0.00    +0.235 C 
ATOM     14  O   UNL     1       7.457  -5.916  22.327  0.00  0.00    -0.274 OA
BRANCH  13  15
ATOM     15  C   UNL     1       5.219  -5.687  23.288  0.00  0.00    +0.168 C 
BRANCH  15  16
ATOM     16  C   UNL     1       5.185  -5.928  24.785  0.00  0.00    -0.022 A 
ATOM     17  C   UNL     1       4.114  -6.605  25.393  0.00  0.00    +0.005 A 
ATOM     18  C   UNL     1       4.100  -6.833  26.770  0.00  0.00    +0.000 A 
ATOM     19  C   UNL     1       5.159  -6.392  27.560  0.00  0.00    +0.000 A 
ATOM     20  C   UNL     1       6.227  -5.718  26.975  0.00  0.00    +0.000 A 
ATOM     21  C   UNL     1       6.241  -5.484  25.597  0.00  0.00    +0.005 A 
ENDBRANCH  15  16
BRANCH  15  22
ATOM     22  N   UNL     1       4.158  -4.726  22.886  0.00  0.00    -0.316 NA
ATOM     23  H   UNL     1       3.591  -5.179  22.167  0.00  0.00    +0.119 HD
ATOM     24  H   UNL     1       3.536  -4.616  23.690  0.00  0.00    +0.119 HD
ENDBRANCH  15  22
ENDBRANCH  13  15
ENDBRANCH   2  11
BRANCH   6  25
ATOM     25  C   UNL     1      10.093   0.502  24.216  0.00  0.00    +0.332 C 
ATOM     26  O   UNL     1      11.063   0.944  24.822  0.00  0.00    -0.249 OA
BRANCH  25  27
ATOM     27  O   UNL     1       9.532   1.112  23.137  0.00  0.00    -0.426 OA
BRANCH  27  28
ATOM     28  C   UNL     1      10.171   2.322  22.718  0.00  0.00    +0.472 C 
BRANCH  28  29
ATOM     29  O   UNL     1       9.532   3.481  23.258  0.00  0.00    -0.427 OA
BRANCH  29  30
ATOM     30  C   UNL     1      10.382   4.455  23.680  0.00  0.00    +0.315 C 
ATOM     31  O   UNL     1      11.602   4.391  23.593  0.00  0.00    -0.250 OA
BRANCH  30  32
ATOM     32  C   UNL     1       9.616   5.633  24.292  0.00  0.00    +0.059 C 
ATOM     33  C   UNL     1       8.844   6.373  23.191  0.00  0.00    +0.022 C 
ATOM     34  C   UNL     1      10.616   6.604  24.940  0.00  0.00    +0.022 C 
ATOM     35  C   UNL     1       8.649   5.120  25.366  0.00  0.00    +0.022 C 
ENDBRANCH  30  32
ENDBRANCH  29  30
ENDBRANCH  28  29
ENDBRANCH  27  28
ENDBRANCH  25  27
ENDBRANCH   6  25
TORSDOF 10
ENDMDL
MODEL 8
REMARK VINA RESULT:      -6.6      2.152      3.422
REMARK  Name = 
REMARK  15 active torsions:
REMARK  status: ('A' for Active; 'I' for Inactive)
REMARK    1  A    between atoms: C_4  and  C_5
REMARK    2  A    between atoms: C_4  and  C_6
REMARK    3  A    between atoms: C_7  and  C_26
REMARK    4  A    between atoms: C_12  and  N_14
REMARK    5  A    between atoms: C_15  and  C_17
REMARK    6  A    between atoms: C_17  and  N_19
REMARK    7  A    between atoms: C_17  and  C_20
REMARK    8  A    between atoms: C_26  and  O_28
REMARK    9  A    between atoms: O_28  and  C_29
REMARK   10  A    between atoms: C_29  and  O_30
REMARK   11  A    between atoms: O_30  and  C_31
REMARK   12  A    between atoms: C_31  and  C_33
REMARK   13  A    between atoms: C_33  and  C_34
REMARK   14  A    between atoms: C_33  and  C_35
REMARK   15  A    between atoms: C_33  and  C_36
REMARK                            x       y       z     vdW  Elec       q    Type
REMARK                         _______ _______ _______ _____ _____    ______ ____
ROOT
ATOM      1  C   UNL     1       8.354   0.599  25.026  0.00  0.00    +0.165 C 
ATOM      2  C   UNL     1       9.173   1.908  24.859  0.00  0.00    +0.190 C 
ATOM      3  C   UNL     1      10.364   0.948  24.606  0.00  0.00    +0.240 C 
ATOM      4  O   UNL     1      11.463   1.020  24.109  0.00  0.00    -0.273 OA
ATOM      5  N   UNL     1       9.620  -0.150  24.947  0.00  0.00    -0.271 N 
ATOM      6  C   UNL     1       9.632  -1.354  24.111  0.00  0.00    +0.201 C 
ATOM      7  C   UNL     1       8.702  -1.061  22.904  0.00  0.00    +0.042 C 
ATOM      8  C   UNL     1       9.431  -0.274  21.794  0.00  0.00    +0.025 C 
ATOM      9  C   UNL     1       8.065  -2.283  22.235  0.00  0.00    +0.025 C 
ATOM     10  S   UNL     1       7.362   0.027  23.576  0.00  0.00    -0.127 S 
ENDROOT
BRANCH   2  11
ATOM     11  N   UNL     1       8.788   2.808  23.743  0.00  0.00    -0.300 N 
ATOM     12  H   UNL     1       8.611   2.465  22.804  0.00  0.00    +0.150 HD
ATOM     13  C   UNL     1       8.411   4.118  23.964  0.00  0.00    +0.235 C 
ATOM     14  O   UNL     1       8.456   4.635  25.076  0.00  0.00    -0.274 OA
BRANCH  13  15
ATOM     15  C   UNL     1       7.947   4.871  22.694  0.00  0.00    +0.168 C 
BRANCH  15  16
ATOM     16  C   UNL     1       6.440   5.032  22.647  0.00  0.00    -0.022 A 
ATOM     17  C   UNL     1       5.585   3.916  22.639  0.00  0.00    +0.005 A 
ATOM     18  C   UNL     1       4.199   4.077  22.609  0.00  0.00    +0.000 A 
ATOM     19  C   UNL     1       3.646   5.354  22.590  0.00  0.00    +0.000 A 
ATOM     20  C   UNL     1       4.478   6.471  22.594  0.00  0.00    +0.000 A 
ATOM     21  C   UNL     1       5.866   6.313  22.620  0.00  0.00    +0.005 A 
ENDBRANCH  15  16
BRANCH  15  22
ATOM     22  N   UNL     1       8.620   6.194  22.611  0.00  0.00    -0.316 NA
ATOM     23  H   UNL     1       8.066   6.855  23.159  0.00  0.00    +0.119 HD
ATOM     24  H   UNL     1       9.507   6.109  23.111  0.00  0.00    +0.119 HD
ENDBRANCH  15  22
ENDBRANCH  13  15
ENDBRANCH   2  11
BRANCH   6  25
ATOM     25  C   UNL     1       9.262  -2.618  24.919  0.00  0.00    +0.332 C 
ATOM     26  O   UNL     1       8.580  -2.589  25.938  0.00  0.00    -0.249 OA
BRANCH  25  27
ATOM     27  O   UNL     1       9.717  -3.763  24.343  0.00  0.00    -0.426 OA
BRANCH  27  28
ATOM     28  C   UNL     1       9.078  -4.965  24.786  0.00  0.00    +0.472 C 
BRANCH  28  29
ATOM     29  O   UNL     1       8.054  -5.391  23.884  0.00  0.00    -0.427 OA
BRANCH  29  30
ATOM     30  C   UNL     1       6.787  -5.266  24.362  0.00  0.00    +0.315 C 
ATOM     31  O   UNL     1       6.512  -5.022  25.530  0.00  0.00    -0.250 OA
BRANCH  30  32
ATOM     32  C   UNL     1       5.752  -5.486  23.255  0.00  0.00    +0.059 C 
ATOM     33  C   UNL     1       6.460  -5.929  21.968  0.00  0.00    +0.022 C 
ATOM     34  C   UNL     1       5.009  -4.167  22.988  0.00  0.00    +0.022 C 
ATOM     35  C   UNL     1       4.738  -6.549  23.696  0.00  0.00    +0.022 C 
ENDBRANCH  30  32
ENDBRANCH  29  30
ENDBRANCH  28  29
ENDBRANCH  27  28
ENDBRANCH  25  27
ENDBRANCH   6  25
TORSDOF 10
ENDMDL
MODEL 9
REMARK VINA RESULT:      -6.6      3.321      8.548
REMARK  Name = 
REMARK  15 active torsions:
REMARK  status: ('A' for Active; 'I' for Inactive)
REMARK    1  A    between atoms: C_4  and  C_5
REMARK    2  A    between atoms: C_4  and  C_6
REMARK    3  A    between atoms: C_7  and  C_26
REMARK    4  A    between atoms: C_12  and  N_14
REMARK    5  A    between atoms: C_15  and  C_17
REMARK    6  A    between atoms: C_17  and  N_19
REMARK    7  A    between atoms: C_17  and  C_20
REMARK    8  A    between atoms: C_26  and  O_28
REMARK    9  A    between atoms: O_28  and  C_29
REMARK   10  A    between atoms: C_29  and  O_30
REMARK   11  A    between atoms: O_30  and  C_31
REMARK   12  A    between atoms: C_31  and  C_33
REMARK   13  A    between atoms: C_33  and  C_34
REMARK   14  A    between atoms: C_33  and  C_35
REMARK   15  A    between atoms: C_33  and  C_36
REMARK                            x       y       z     vdW  Elec       q    Type
REMARK                         _______ _______ _______ _____ _____    ______ ____
ROOT
ATOM      1  C   UNL     1       7.537  -2.907  23.148  0.00  0.00    +0.165 C 
ATOM      2  C   UNL     1       7.615  -4.458  23.145  0.00  0.00    +0.190 C 
ATOM      3  C   UNL     1       8.839  -4.244  24.072  0.00  0.00    +0.240 C 
ATOM      4  O   UNL     1       9.479  -4.908  24.853  0.00  0.00    -0.273 OA
ATOM      5  N   UNL     1       8.817  -2.889  23.879  0.00  0.00    -0.271 N 
ATOM      6  C   UNL     1       8.925  -1.966  25.012  0.00  0.00    +0.201 C 
ATOM      7  C   UNL     1       7.526  -1.925  25.681  0.00  0.00    +0.042 C 
ATOM      8  C   UNL     1       7.317  -3.106  26.653  0.00  0.00    +0.025 C 
ATOM      9  C   UNL     1       7.191  -0.648  26.458  0.00  0.00    +0.025 C 
ATOM     10  S   UNL     1       6.317  -2.120  24.291  0.00  0.00    -0.127 S 
ENDROOT
BRANCH   2  11
ATOM     11  N   UNL     1       6.459  -5.194  23.717  0.00  0.00    -0.300 N 
ATOM     12  H   UNL     1       6.325  -5.302  24.718  0.00  0.00    +0.150 HD
ATOM     13  C   UNL     1       5.378  -5.562  22.942  0.00  0.00    +0.235 C 
ATOM     14  O   UNL     1       5.348  -5.381  21.728  0.00  0.00    -0.274 OA
BRANCH  13  15
ATOM     15  C   UNL     1       4.226  -6.231  23.730  0.00  0.00    +0.168 C 
BRANCH  15  16
ATOM     16  C   UNL     1       3.736  -5.360  24.870  0.00  0.00    -0.022 A 
ATOM     17  C   UNL     1       3.074  -4.143  24.629  0.00  0.00    +0.005 A 
ATOM     18  C   UNL     1       2.616  -3.356  25.687  0.00  0.00    +0.000 A 
ATOM     19  C   UNL     1       2.809  -3.774  27.001  0.00  0.00    +0.000 A 
ATOM     20  C   UNL     1       3.466  -4.974  27.259  0.00  0.00    +0.000 A 
ATOM     21  C   UNL     1       3.929  -5.762  26.202  0.00  0.00    +0.005 A 
ENDBRANCH  15  16
BRANCH  15  22
ATOM     22  N   UNL     1       3.109  -6.572  22.811  0.00  0.00    -0.316 NA
ATOM     23  H   UNL     1       3.154  -7.577  22.634  0.00  0.00    +0.119 HD
ATOM     24  H   UNL     1       2.241  -6.429  23.331  0.00  0.00    +0.119 HD
ENDBRANCH  15  22
ENDBRANCH  13  15
ENDBRANCH   2  11
BRANCH   6  25
ATOM     25  C   UNL     1       9.475  -0.589  24.582  0.00  0.00    +0.332 C 
ATOM     26  O   UNL     1      10.271   0.057  25.254  0.00  0.00    -0.249 OA
BRANCH  25  27
ATOM     27  O   UNL     1       9.034  -0.206  23.354  0.00  0.00    -0.426 OA
BRANCH  27  28
ATOM     28  C   UNL     1      10.004   0.456  22.535  0.00  0.00    +0.472 C 
BRANCH  28  29
ATOM     29  O   UNL     1       9.610   1.791  22.209  0.00  0.00    -0.427 OA
BRANCH  29  30
ATOM     30  C   UNL     1       9.982   2.732  23.119  0.00  0.00    +0.315 C 
ATOM     31  O   UNL     1      11.131   2.901  23.506  0.00  0.00    -0.250 OA
BRANCH  30  32
ATOM     32  C   UNL     1       8.774   3.540  23.604  0.00  0.00    +0.059 C 
ATOM     33  C   UNL     1       7.655   3.474  22.557  0.00  0.00    +0.022 C 
ATOM     34  C   UNL     1       9.193   5.006  23.798  0.00  0.00    +0.022 C 
ATOM     35  C   UNL     1       8.281   2.981  24.945  0.00  0.00    +0.022 C 
ENDBRANCH  30  32
ENDBRANCH  29  30
ENDBRANCH  28  29
ENDBRANCH  27  28
ENDBRANCH  25  27
ENDBRANCH   6  25
TORSDOF 10
ENDMDL
