MODEL 1
REMARK VINA RESULT:      -7.0      0.000      0.000
REMARK  Name = 
REMARK  9 active torsions:
REMARK  status: ('A' for Active; 'I' for Inactive)
REMARK    1  A    between atoms: CA_2  and  CB_3
REMARK    2  A    between atoms: CA_2  and  N_7
REMARK    3  A    between atoms: CA_2  and  C_25
REMARK    4  A    between atoms: CB_3  and  CG_4
REMARK    5  A    between atoms: CG_4  and  OD1_5
REMARK    6  A    between atoms: C_8  and  C_10
REMARK    7  A    between atoms: C_14  and  C_16
REMARK    8  A    between atoms: C_19  and  C_22
REMARK    9  A    between atoms: C_22  and  O_23
REMARK                            x       y       z     vdW  Elec       q    Type
REMARK                         _______ _______ _______ _____ _____    ______ ____
ROOT
ATOM      1  C   UNK A   0       9.531   1.925  23.418  0.00  0.00    +0.055 A 
ATOM      2  C   UNK A   0       9.086   0.808  24.134  0.00  0.00    +0.024 A 
ATOM      3  C   UNK A   0       9.042  -0.458  23.526  0.00  0.00    +0.001 A 
ATOM      4  C   UNK A   0       9.461  -0.500  22.190  0.00  0.00    +0.119 A 
ATOM      5  N   UNK A   0       9.887   0.563  21.462  0.00  0.00    -0.262 NA
ATOM      6  C   UNK A   0       9.897   1.756  22.091  0.00  0.00    +0.123 A 
ENDROOT
BRANCH   3   7
ATOM      7  C   UNK A   0       8.563  -1.667  24.230  0.00  0.00    -0.016 A 
ATOM      8  C   UNK A   0       8.293  -2.862  23.537  0.00  0.00    +0.009 A 
ATOM      9  C   UNK A   0       7.895  -4.024  24.210  0.00  0.00    +0.015 A 
ATOM     10  C   UNK A   0       7.770  -4.024  25.601  0.00  0.00    +0.059 A 
ATOM     11  C   UNK A   0       7.986  -2.841  26.309  0.00  0.00    +0.015 A 
ATOM     12  C   UNK A   0       8.377  -1.681  25.628  0.00  0.00    +0.009 A 
BRANCH  10  13
ATOM     13  C   UNK A   0       7.380  -5.289  26.270  0.00  0.00    +0.337 C 
ATOM     14  O   UNK A   0       6.291  -5.813  26.117  0.00  0.00    -0.245 OA
BRANCH  13  15
ATOM     15  O   UNK A   0       8.364  -5.834  27.019  0.00  0.00    -0.477 OA
ATOM     16  H   UNK A   0       8.315  -6.801  27.125  0.00  0.00    +0.295 HD
ENDBRANCH  13  15
ENDBRANCH  10  13
ENDBRANCH   3   7
BRANCH   1  19
ATOM     17  N   ASP A   1      10.550   4.115  23.594  0.00  0.00    -0.301 N 
ATOM     18  H   ASP A   1      11.154   3.836  22.832  0.00  0.00    +0.150 HD
ATOM     19  C   UNK A   0       9.589   3.249  24.070  0.00  0.00    +0.246 C 
ATOM     20  O   UNK A   0       8.828   3.523  24.989  0.00  0.00    -0.270 OA
BRANCH  17  21
ATOM     21  CA  ASP A   1      10.700   5.454  24.144  0.00  0.00    +0.147 C 
BRANCH  21  22
ATOM     22  C   ASP A   1       9.771   6.367  23.356  0.00  0.00    +0.246 C 
ATOM     23  O   ASP A   1       8.831   6.981  23.856  0.00  0.00    -0.299 OA
ENDBRANCH  21  22
BRANCH  21  24
ATOM     24  CB  ASP A   1      12.118   6.002  24.004  0.00  0.00    +0.150 C 
BRANCH  24  25
ATOM     25  CG  ASP A   1      12.901   5.310  22.919  0.00  0.00    +0.307 C 
ATOM     26  OD2 ASP A   1      12.509   5.101  21.782  0.00  0.00    -0.251 OA
BRANCH  25  27
ATOM     27  OD1 ASP A   1      14.137   4.944  23.329  0.00  0.00    -0.481 OA
ATOM     28  HD1 ASP A   1      14.862   5.521  23.023  0.00  0.00    +0.295 HD
ENDBRANCH  25  27
ENDBRANCH  24  25
ENDBRANCH  21  24
ENDBRANCH  17  21
ENDBRANCH   1  19
TORSDOF 9
ENDMDL
MODEL 2
REMARK VINA RESULT:      -6.6      2.697      9.253
REMARK  Name = 
REMARK  9 active torsions:
REMARK  status: ('A' for Active; 'I' for Inactive)
REMARK    1  A    between atoms: CA_2  and  CB_3
REMARK    2  A    between atoms: CA_2  and  N_7
REMARK    3  A    between atoms: CA_2  and  C_25
REMARK    4  A    between atoms: CB_3  and  CG_4
REMARK    5  A    between atoms: CG_4  and  OD1_5
REMARK    6  A    between atoms: C_8  and  C_10
REMARK    7  A    between atoms: C_14  and  C_16
REMARK    8  A    between atoms: C_19  and  C_22
REMARK    9  A    between atoms: C_22  and  O_23
REMARK                            x       y       z     vdW  Elec       q    Type
REMARK                         _______ _______ _______ _____ _____    ______ ____
ROOT
ATOM      1  C   UNK A   0       7.693  -2.316  24.076  0.00  0.00    +0.055 A 
ATOM      2  C   UNK A   0       7.848  -0.924  24.104  0.00  0.00    +0.024 A 
ATOM      3  C   UNK A   0       9.107  -0.342  23.882  0.00  0.00    +0.001 A 
ATOM      4  C   UNK A   0      10.155  -1.242  23.646  0.00  0.00    +0.119 A 
ATOM      5  N   UNK A   0      10.044  -2.594  23.624  0.00  0.00    -0.262 NA
ATOM      6  C   UNK A   0       8.815  -3.100  23.856  0.00  0.00    +0.123 A 
ENDROOT
BRANCH   3   7
ATOM      7  C   UNK A   0       9.329   1.120  23.918  0.00  0.00    -0.016 A 
ATOM      8  C   UNK A   0      10.512   1.695  23.418  0.00  0.00    +0.009 A 
ATOM      9  C   UNK A   0      10.699   3.082  23.398  0.00  0.00    +0.015 A 
ATOM     10  C   UNK A   0       9.698   3.935  23.867  0.00  0.00    +0.059 A 
ATOM     11  C   UNK A   0       8.534   3.390  24.412  0.00  0.00    +0.015 A 
ATOM     12  C   UNK A   0       8.357   2.000  24.434  0.00  0.00    +0.009 A 
BRANCH  10  13
ATOM     13  C   UNK A   0       9.929   5.398  23.793  0.00  0.00    +0.337 C 
ATOM     14  O   UNK A   0      10.731   5.980  24.501  0.00  0.00    -0.245 OA
BRANCH  13  15
ATOM     15  O   UNK A   0       9.211   6.014  22.829  0.00  0.00    -0.477 OA
ATOM     16  H   UNK A   0       9.517   6.908  22.592  0.00  0.00    +0.295 HD
ENDBRANCH  13  15
ENDBRANCH  10  13
ENDBRANCH   3   7
BRANCH   1  19
ATOM     17  N   ASP A   1       6.312  -4.295  24.269  0.00  0.00    -0.301 N 
ATOM     18  H   ASP A   1       7.156  -4.833  24.122  0.00  0.00    +0.150 HD
ATOM     19  C   UNK A   0       6.363  -2.918  24.295  0.00  0.00    +0.246 C 
ATOM     20  O   UNK A   0       5.379  -2.208  24.467  0.00  0.00    -0.270 OA
BRANCH  17  21
ATOM     21  CA  ASP A   1       5.063  -5.010  24.484  0.00  0.00    +0.147 C 
BRANCH  21  22
ATOM     22  C   ASP A   1       5.331  -6.066  25.547  0.00  0.00    +0.246 C 
ATOM     23  O   ASP A   1       6.359  -6.116  26.217  0.00  0.00    -0.299 OA
ENDBRANCH  21  22
BRANCH  21  24
ATOM     24  CB  ASP A   1       4.561  -5.726  23.233  0.00  0.00    +0.150 C 
BRANCH  24  25
ATOM     25  CG  ASP A   1       5.554  -5.677  22.101  0.00  0.00    +0.307 C 
ATOM     26  OD2 ASP A   1       5.672  -4.766  21.298  0.00  0.00    -0.251 OA
BRANCH  25  27
ATOM     27  OD1 ASP A   1       6.351  -6.770  22.066  0.00  0.00    -0.481 OA
ATOM     28  HD1 ASP A   1       7.263  -6.609  21.760  0.00  0.00    +0.295 HD
ENDBRANCH  25  27
ENDBRANCH  24  25
ENDBRANCH  21  24
ENDBRANCH  17  21
ENDBRANCH   1  19
TORSDOF 9
ENDMDL
MODEL 3
REMARK VINA RESULT:      -6.5      2.828      8.650
REMARK  Name = 
REMARK  9 active torsions:
REMARK  status: ('A' for Active; 'I' for Inactive)
REMARK    1  A    between atoms: CA_2  and  CB_3
REMARK    2  A    between atoms: CA_2  and  N_7
REMARK    3  A    between atoms: CA_2  and  C_25
REMARK    4  A    between atoms: CB_3  and  CG_4
REMARK    5  A    between atoms: CG_4  and  OD1_5
REMARK    6  A    between atoms: C_8  and  C_10
REMARK    7  A    between atoms: C_14  and  C_16
REMARK    8  A    between atoms: C_19  and  C_22
REMARK    9  A    between atoms: C_22  and  O_23
REMARK                            x       y       z     vdW  Elec       q    Type
REMARK                         _______ _______ _______ _____ _____    ______ ____
ROOT
ATOM      1  C   UNK A   0       9.134  -1.509  22.998  0.00  0.00    +0.055 A 
ATOM      2  C   UNK A   0       8.876  -0.430  23.853  0.00  0.00    +0.024 A 
ATOM      3  C   UNK A   0       8.864   0.884  23.359  0.00  0.00    +0.001 A 
ATOM      4  C   UNK A   0       9.128   1.016  21.989  0.00  0.00    +0.119 A 
ATOM      5  N   UNK A   0       9.393  -0.004  21.134  0.00  0.00    -0.262 NA
ATOM      6  C   UNK A   0       9.405  -1.244  21.665  0.00  0.00    +0.123 A 
ENDROOT
BRANCH   3   7
ATOM      7  C   UNK A   0       8.615   2.061  24.220  0.00  0.00    -0.016 A 
ATOM      8  C   UNK A   0       9.214   3.306  23.953  0.00  0.00    +0.009 A 
ATOM      9  C   UNK A   0       8.934   4.435  24.734  0.00  0.00    +0.015 A 
ATOM     10  C   UNK A   0       8.034   4.349  25.798  0.00  0.00    +0.059 A 
ATOM     11  C   UNK A   0       7.462   3.116  26.115  0.00  0.00    +0.015 A 
ATOM     12  C   UNK A   0       7.753   1.990  25.333  0.00  0.00    +0.009 A 
BRANCH  10  13
ATOM     13  C   UNK A   0       7.745   5.580  26.573  0.00  0.00    +0.337 C 
ATOM     14  O   UNK A   0       6.617   5.918  26.886  0.00  0.00    -0.245 OA
BRANCH  13  15
ATOM     15  O   UNK A   0       8.851   6.259  26.947  0.00  0.00    -0.477 OA
ATOM     16  H   UNK A   0       9.688   5.770  26.853  0.00  0.00    +0.295 HD
ENDBRANCH  13  15
ENDBRANCH  10  13
ENDBRANCH   3   7
BRANCH   1  19
ATOM     17  N   ASP A   1       7.976  -3.613  23.308  0.00  0.00    -0.301 N 
ATOM     18  H   ASP A   1       7.204  -3.201  22.802  0.00  0.00    +0.150 HD
ATOM     19  C   UNK A   0       9.129  -2.889  23.524  0.00  0.00    +0.246 C 
ATOM     20  O   UNK A   0      10.100  -3.328  24.129  0.00  0.00    -0.270 OA
BRANCH  17  21
ATOM     21  CA  ASP A   1       7.851  -4.989  23.765  0.00  0.00    +0.147 C 
BRANCH  21  22
ATOM     22  C   ASP A   1       7.064  -5.743  22.702  0.00  0.00    +0.246 C 
ATOM     23  O   ASP A   1       7.253  -5.616  21.494  0.00  0.00    -0.299 OA
ENDBRANCH  21  22
BRANCH  21  24
ATOM     24  CB  ASP A   1       7.090  -5.114  25.082  0.00  0.00    +0.150 C 
BRANCH  24  25
ATOM     25  CG  ASP A   1       8.006  -5.292  26.265  0.00  0.00    +0.307 C 
ATOM     26  OD2 ASP A   1       7.701  -5.117  27.433  0.00  0.00    -0.251 OA
BRANCH  25  27
ATOM     27  OD1 ASP A   1       9.244  -5.701  25.901  0.00  0.00    -0.481 OA
ATOM     28  HD1 ASP A   1       9.887  -4.985  25.744  0.00  0.00    +0.295 HD
ENDBRANCH  25  27
ENDBRANCH  24  25
ENDBRANCH  21  24
ENDBRANCH  17  21
ENDBRANCH   1  19
TORSDOF 9
ENDMDL
MODEL 4
REMARK VINA RESULT:      -6.4      2.343      8.972
REMARK  Name = 
REMARK  9 active torsions:
REMARK  status: ('A' for Active; 'I' for Inactive)
REMARK    1  A    between atoms: CA_2  and  CB_3
REMARK    2  A    between atoms: CA_2  and  N_7
REMARK    3  A    between atoms: CA_2  and  C_25
REMARK    4  A    between atoms: CB_3  and  CG_4
REMARK    5  A    between atoms: CG_4  and  OD1_5
REMARK    6  A    between atoms: C_8  and  C_10
REMARK    7  A    between atoms: C_14  and  C_16
REMARK    8  A    between atoms: C_19  and  C_22
REMARK    9  A    between atoms: C_22  and  O_23
REMARK                            x       y       z     vdW  Elec       q    Type
REMARK                         _______ _______ _______ _____ _____    ______ ____
ROOT
ATOM      1  C   UNK A   0       7.336  -0.959  23.812  0.00  0.00    +0.055 A 
ATOM      2  C   UNK A   0       8.329   0.020  23.693  0.00  0.00    +0.024 A 
ATOM      3  C   UNK A   0       8.078   1.343  24.095  0.00  0.00    +0.001 A 
ATOM      4  C   UNK A   0       6.794   1.586  24.600  0.00  0.00    +0.119 A 
ATOM      5  N   UNK A   0       5.804   0.665  24.718  0.00  0.00    -0.262 NA
ATOM      6  C   UNK A   0       6.096  -0.585  24.305  0.00  0.00    +0.123 A 
ENDROOT
BRANCH   3   7
ATOM      7  C   UNK A   0       9.084   2.420  23.975  0.00  0.00    -0.016 A 
ATOM      8  C   UNK A   0      10.374   2.167  23.472  0.00  0.00    +0.009 A 
ATOM      9  C   UNK A   0      11.308   3.197  23.303  0.00  0.00    +0.015 A 
ATOM     10  C   UNK A   0      10.970   4.513  23.621  0.00  0.00    +0.059 A 
ATOM     11  C   UNK A   0       9.714   4.787  24.166  0.00  0.00    +0.015 A 
ATOM     12  C   UNK A   0       8.787   3.750  24.338  0.00  0.00    +0.009 A 
BRANCH  10  13
ATOM     13  C   UNK A   0      11.982   5.573  23.393  0.00  0.00    +0.337 C 
ATOM     14  O   UNK A   0      12.340   6.348  24.261  0.00  0.00    -0.245 OA
BRANCH  13  15
ATOM     15  O   UNK A   0      12.510   5.561  22.149  0.00  0.00    -0.477 OA
ATOM     16  H   UNK A   0      12.828   4.692  21.843  0.00  0.00    +0.295 HD
ENDBRANCH  13  15
ENDBRANCH  10  13
ENDBRANCH   3   7
BRANCH   1  19
ATOM     17  N   ASP A   1       7.668  -3.280  24.418  0.00  0.00    -0.301 N 
ATOM     18  H   ASP A   1       7.507  -2.997  25.375  0.00  0.00    +0.150 HD
ATOM     19  C   UNK A   0       7.615  -2.350  23.401  0.00  0.00    +0.246 C 
ATOM     20  O   UNK A   0       7.801  -2.626  22.222  0.00  0.00    -0.270 OA
BRANCH  17  21
ATOM     21  CA  ASP A   1       7.922  -4.686  24.143  0.00  0.00    +0.147 C 
BRANCH  21  22
ATOM     22  C   ASP A   1       6.576  -5.397  24.176  0.00  0.00    +0.246 C 
ATOM     23  O   ASP A   1       5.586  -4.959  24.758  0.00  0.00    -0.299 OA
ENDBRANCH  21  22
BRANCH  21  24
ATOM     24  CB  ASP A   1       8.821  -5.346  25.184  0.00  0.00    +0.150 C 
BRANCH  24  25
ATOM     25  CG  ASP A   1       8.568  -4.830  26.577  0.00  0.00    +0.307 C 
ATOM     26  OD2 ASP A   1       8.800  -3.697  26.969  0.00  0.00    -0.251 OA
BRANCH  25  27
ATOM     27  OD1 ASP A   1       8.019  -5.768  27.383  0.00  0.00    -0.481 OA
ATOM     28  HD1 ASP A   1       8.027  -6.676  27.026  0.00  0.00    +0.295 HD
ENDBRANCH  25  27
ENDBRANCH  24  25
ENDBRANCH  21  24
ENDBRANCH  17  21
ENDBRANCH   1  19
TORSDOF 9
ENDMDL
MODEL 5
REMARK VINA RESULT:      -6.4      3.747      5.350
REMARK  Name = 
REMARK  9 active torsions:
REMARK  status: ('A' for Active; 'I' for Inactive)
REMARK    1  A    between atoms: CA_2  and  CB_3
REMARK    2  A    between atoms: CA_2  and  N_7
REMARK    3  A    between atoms: CA_2  and  C_25
REMARK    4  A    between atoms: CB_3  and  CG_4
REMARK    5  A    between atoms: CG_4  and  OD1_5
REMARK    6  A    between atoms: C_8  and  C_10
REMARK    7  A    between atoms: C_14  and  C_16
REMARK    8  A    between atoms: C_19  and  C_22
REMARK    9  A    between atoms: C_22  and  O_23
REMARK                            x       y       z     vdW  Elec       q    Type
REMARK                         _______ _______ _______ _____ _____    ______ ____
ROOT
ATOM      1  C   UNK A   0       8.591  -2.333  24.477  0.00  0.00    +0.055 A 
ATOM      2  C   UNK A   0       7.379  -3.033  24.472  0.00  0.00    +0.024 A 
ATOM      3  C   UNK A   0       7.366  -4.436  24.539  0.00  0.00    +0.001 A 
ATOM      4  C   UNK A   0       8.624  -5.049  24.602  0.00  0.00    +0.119 A 
ATOM      5  N   UNK A   0       9.818  -4.403  24.597  0.00  0.00    -0.262 NA
ATOM      6  C   UNK A   0       9.772  -3.058  24.519  0.00  0.00    +0.123 A 
ENDROOT
BRANCH   3   7
ATOM      7  C   UNK A   0       6.115  -5.226  24.519  0.00  0.00    -0.016 A 
ATOM      8  C   UNK A   0       5.286  -5.258  23.382  0.00  0.00    +0.009 A 
ATOM      9  C   UNK A   0       4.132  -6.051  23.341  0.00  0.00    +0.015 A 
ATOM     10  C   UNK A   0       3.785  -6.846  24.435  0.00  0.00    +0.059 A 
ATOM     11  C   UNK A   0       4.563  -6.797  25.593  0.00  0.00    +0.015 A 
ATOM     12  C   UNK A   0       5.712  -5.996  25.628  0.00  0.00    +0.009 A 
BRANCH  10  13
ATOM     13  C   UNK A   0       2.573  -7.694  24.330  0.00  0.00    +0.337 C 
ATOM     14  O   UNK A   0       2.506  -8.817  24.797  0.00  0.00    -0.245 OA
BRANCH  13  15
ATOM     15  O   UNK A   0       1.533  -7.084  23.720  0.00  0.00    -0.477 OA
ATOM     16  H   UNK A   0       0.912  -6.628  24.317  0.00  0.00    +0.295 HD
ENDBRANCH  13  15
ENDBRANCH  10  13
ENDBRANCH   3   7
BRANCH   1  19
ATOM     17  N   ASP A   1       7.573  -0.277  23.702  0.00  0.00    -0.301 N 
ATOM     18  H   ASP A   1       6.869  -0.854  23.262  0.00  0.00    +0.150 HD
ATOM     19  C   UNK A   0       8.595  -0.857  24.423  0.00  0.00    +0.246 C 
ATOM     20  O   UNK A   0       9.478  -0.216  24.979  0.00  0.00    -0.270 OA
BRANCH  17  21
ATOM     21  CA  ASP A   1       7.457   1.169  23.585  0.00  0.00    +0.147 C 
BRANCH  21  22
ATOM     22  C   ASP A   1       6.040   1.539  23.999  0.00  0.00    +0.246 C 
ATOM     23  O   ASP A   1       5.279   0.775  24.589  0.00  0.00    -0.299 OA
ENDBRANCH  21  22
BRANCH  21  24
ATOM     24  CB  ASP A   1       7.670   1.671  22.159  0.00  0.00    +0.150 C 
BRANCH  24  25
ATOM     25  CG  ASP A   1       8.990   1.231  21.581  0.00  0.00    +0.307 C 
ATOM     26  OD2 ASP A   1       9.243   0.117  21.153  0.00  0.00    -0.251 OA
BRANCH  25  27
ATOM     27  OD1 ASP A   1       9.901   2.232  21.560  0.00  0.00    -0.481 OA
ATOM     28  HD1 ASP A   1       9.634   3.045  22.027  0.00  0.00    +0.295 HD
ENDBRANCH  25  27
ENDBRANCH  24  25
ENDBRANCH  21  24
ENDBRANCH  17  21
ENDBRANCH   1  19
TORSDOF 9
ENDMDL
MODEL 6
REMARK VINA RESULT:      -6.4      3.248      9.719
REMARK  Name = 
REMARK  9 active torsions:
REMARK  status: ('A' for Active; 'I' for Inactive)
REMARK    1  A    between atoms: CA_2  and  CB_3
REMARK    2  A    between atoms: CA_2  and  N_7
REMARK    3  A    between atoms: CA_2  and  C_25
REMARK    4  A    between atoms: CB_3  and  CG_4
REMARK    5  A    between atoms: CG_4  and  OD1_5
REMARK    6  A    between atoms: C_8  and  C_10
REMARK    7  A    between atoms: C_14  and  C_16
REMARK    8  A    between atoms: C_19  and  C_22
REMARK    9  A    between atoms: C_22  and  O_23
REMARK                            x       y       z     vdW  Elec       q    Type
REMARK                         _______ _______ _______ _____ _____    ______ ____
ROOT
ATOM      1  C   UNK A   0       7.466  -4.333  23.490  0.00  0.00    +0.055 A 
ATOM      2  C   UNK A   0       7.819  -2.988  23.323  0.00  0.00    +0.024 A 
ATOM      3  C   UNK A   0       9.051  -2.511  23.802  0.00  0.00    +0.001 A 
ATOM      4  C   UNK A   0       9.858  -3.460  24.442  0.00  0.00    +0.119 A 
ATOM      5  N   UNK A   0       9.543  -4.766  24.631  0.00  0.00    -0.262 NA
ATOM      6  C   UNK A   0       8.344  -5.168  24.163  0.00  0.00    +0.123 A 
ENDROOT
BRANCH   3   7
ATOM      7  C   UNK A   0       9.466  -1.097  23.669  0.00  0.00    -0.016 A 
ATOM      8  C   UNK A   0       9.452  -0.442  22.423  0.00  0.00    +0.009 A 
ATOM      9  C   UNK A   0       9.790   0.912  22.305  0.00  0.00    +0.015 A 
ATOM     10  C   UNK A   0      10.139   1.652  23.437  0.00  0.00    +0.059 A 
ATOM     11  C   UNK A   0      10.206   1.016  24.678  0.00  0.00    +0.015 A 
ATOM     12  C   UNK A   0       9.874  -0.341  24.786  0.00  0.00    +0.009 A 
BRANCH  10  13
ATOM     13  C   UNK A   0      10.455   3.091  23.265  0.00  0.00    +0.337 C 
ATOM     14  O   UNK A   0      11.585   3.536  23.343  0.00  0.00    -0.245 OA
BRANCH  13  15
ATOM     15  O   UNK A   0       9.380   3.850  22.958  0.00  0.00    -0.477 OA
ATOM     16  H   UNK A   0       8.578   3.353  22.717  0.00  0.00    +0.295 HD
ENDBRANCH  13  15
ENDBRANCH  10  13
ENDBRANCH   3   7
BRANCH   1  19
ATOM     17  N   ASP A   1       5.154  -4.936  23.887  0.00  0.00    -0.301 N 
ATOM     18  H   ASP A   1       5.306  -4.666  24.850  0.00  0.00    +0.150 HD
ATOM     19  C   UNK A   0       6.176  -4.830  22.968  0.00  0.00    +0.246 C 
ATOM     20  O   UNK A   0       6.060  -5.139  21.789  0.00  0.00    -0.270 OA
BRANCH  17  21
ATOM     21  CA  ASP A   1       3.831  -5.400  23.496  0.00  0.00    +0.147 C 
BRANCH  21  22
ATOM     22  C   ASP A   1       2.819  -4.544  24.245  0.00  0.00    +0.246 C 
ATOM     23  O   ASP A   1       3.127  -3.660  25.041  0.00  0.00    -0.299 OA
ENDBRANCH  21  22
BRANCH  21  24
ATOM     24  CB  ASP A   1       3.575  -6.857  23.870  0.00  0.00    +0.150 C 
BRANCH  24  25
ATOM     25  CG  ASP A   1       3.900  -7.150  25.312  0.00  0.00    +0.307 C 
ATOM     26  OD2 ASP A   1       4.953  -6.889  25.871  0.00  0.00    -0.251 OA
BRANCH  25  27
ATOM     27  OD1 ASP A   1       2.868  -7.734  25.964  0.00  0.00    -0.481 OA
ATOM     28  HD1 ASP A   1       2.557  -8.574  25.579  0.00  0.00    +0.295 HD
ENDBRANCH  25  27
ENDBRANCH  24  25
ENDBRANCH  21  24
ENDBRANCH  17  21
ENDBRANCH   1  19
TORSDOF 9
ENDMDL
MODEL 7
REMARK VINA RESULT:      -6.3      2.985      9.701
REMARK  Name = 
REMARK  9 active torsions:
REMARK  status: ('A' for Active; 'I' for Inactive)
REMARK    1  A    between atoms: CA_2  and  CB_3
REMARK    2  A    between atoms: CA_2  and  N_7
REMARK    3  A    between atoms: CA_2  and  C_25
REMARK    4  A    between atoms: CB_3  and  CG_4
REMARK    5  A    between atoms: CG_4  and  OD1_5
REMARK    6  A    between atoms: C_8  and  C_10
REMARK    7  A    between atoms: C_14  and  C_16
REMARK    8  A    between atoms: C_19  and  C_22
REMARK    9  A    between atoms: C_22  and  O_23
REMARK                            x       y       z     vdW  Elec       q    Type
REMARK                         _______ _______ _______ _____ _____    ______ ____
ROOT
ATOM      1  C   UNK A   0       7.469  -3.658  25.438  0.00  0.00    +0.055 A 
ATOM      2  C   UNK A   0       7.726  -2.316  25.134  0.00  0.00    +0.024 A 
ATOM      3  C   UNK A   0       8.923  -1.946  24.497  0.00  0.00    +0.001 A 
ATOM      4  C   UNK A   0       9.804  -2.997  24.211  0.00  0.00    +0.119 A 
ATOM      5  N   UNK A   0       9.593  -4.305  24.501  0.00  0.00    -0.262 NA
ATOM      6  C   UNK A   0       8.434  -4.603  25.124  0.00  0.00    +0.123 A 
ENDROOT
BRANCH   3   7
ATOM      7  C   UNK A   0       9.253  -0.542  24.170  0.00  0.00    -0.016 A 
ATOM      8  C   UNK A   0       8.943   0.510  25.052  0.00  0.00    +0.009 A 
ATOM      9  C   UNK A   0       9.307   1.833  24.769  0.00  0.00    +0.015 A 
ATOM     10  C   UNK A   0      10.005   2.136  23.598  0.00  0.00    +0.059 A 
ATOM     11  C   UNK A   0      10.284   1.119  22.683  0.00  0.00    +0.015 A 
ATOM     12  C   UNK A   0       9.910  -0.200  22.970  0.00  0.00    +0.009 A 
BRANCH  10  13
ATOM     13  C   UNK A   0      10.398   3.546  23.361  0.00  0.00    +0.337 C 
ATOM     14  O   UNK A   0      11.557   3.920  23.350  0.00  0.00    -0.245 OA
BRANCH  13  15
ATOM     15  O   UNK A   0       9.355   4.365  23.101  0.00  0.00    -0.477 OA
ATOM     16  H   UNK A   0       8.501   3.916  22.962  0.00  0.00    +0.295 HD
ENDBRANCH  13  15
ENDBRANCH  10  13
ENDBRANCH   3   7
BRANCH   1  19
ATOM     17  N   ASP A   1       5.582  -5.168  25.597  0.00  0.00    -0.301 N 
ATOM     18  H   ASP A   1       6.004  -5.689  24.841  0.00  0.00    +0.150 HD
ATOM     19  C   UNK A   0       6.201  -4.040  26.092  0.00  0.00    +0.246 C 
ATOM     20  O   UNK A   0       5.744  -3.364  27.005  0.00  0.00    -0.270 OA
BRANCH  17  21
ATOM     21  CA  ASP A   1       4.335  -5.656  26.165  0.00  0.00    +0.147 C 
BRANCH  21  22
ATOM     22  C   ASP A   1       4.673  -6.887  26.994  0.00  0.00    +0.246 C 
ATOM     23  O   ASP A   1       5.591  -6.930  27.811  0.00  0.00    -0.299 OA
ENDBRANCH  21  22
BRANCH  21  24
ATOM     24  CB  ASP A   1       3.319  -6.075  25.106  0.00  0.00    +0.150 C 
BRANCH  24  25
ATOM     25  CG  ASP A   1       3.928  -6.183  23.732  0.00  0.00    +0.307 C 
ATOM     26  OD2 ASP A   1       3.831  -5.351  22.844  0.00  0.00    -0.251 OA
BRANCH  25  27
ATOM     27  OD1 ASP A   1       4.640  -7.322  23.571  0.00  0.00    -0.481 OA
ATOM     28  HD1 ASP A   1       4.192  -8.021  23.059  0.00  0.00    +0.295 HD
ENDBRANCH  25  27
ENDBRANCH  24  25
ENDBRANCH  21  24
ENDBRANCH  17  21
ENDBRANCH   1  19
TORSDOF 9
ENDMDL
MODEL 8
REMARK VINA RESULT:      -6.3      3.011      9.449
REMARK  Name = 
REMARK  9 active torsions:
REMARK  status: ('A' for Active; 'I' for Inactive)
REMARK    1  A    between atoms: CA_2  and  CB_3
REMARK    2  A    between atoms: CA_2  and  N_7
REMARK    3  A    between atoms: CA_2  and  C_25
REMARK    4  A    between atoms: CB_3  and  CG_4
REMARK    5  A    between atoms: CG_4  and  OD1_5
REMARK    6  A    between atoms: C_8  and  C_10
REMARK    7  A    between atoms: C_14  and  C_16
REMARK    8  A    between atoms: C_19  and  C_22
REMARK    9  A    between atoms: C_22  and  O_23
REMARK                            x       y       z     vdW  Elec       q    Type
REMARK                         _______ _______ _______ _____ _____    ______ ____
ROOT
ATOM      1  C   UNK A   0       7.030  -1.926  24.117  0.00  0.00    +0.055 A 
ATOM      2  C   UNK A   0       7.992  -0.923  23.949  0.00  0.00    +0.024 A 
ATOM      3  C   UNK A   0       7.690   0.413  24.262  0.00  0.00    +0.001 A 
ATOM      4  C   UNK A   0       6.390   0.644  24.733  0.00  0.00    +0.119 A 
ATOM      5  N   UNK A   0       5.431  -0.301  24.897  0.00  0.00    -0.262 NA
ATOM      6  C   UNK A   0       5.771  -1.565  24.569  0.00  0.00    +0.123 A 
ENDROOT
BRANCH   3   7
ATOM      7  C   UNK A   0       8.661   1.515  24.087  0.00  0.00    -0.016 A 
ATOM      8  C   UNK A   0      10.035   1.262  23.918  0.00  0.00    +0.009 A 
ATOM      9  C   UNK A   0      10.948   2.300  23.694  0.00  0.00    +0.015 A 
ATOM     10  C   UNK A   0      10.505   3.623  23.620  0.00  0.00    +0.059 A 
ATOM     11  C   UNK A   0       9.155   3.907  23.830  0.00  0.00    +0.015 A 
ATOM     12  C   UNK A   0       8.249   2.863  24.061  0.00  0.00    +0.009 A 
BRANCH  10  13
ATOM     13  C   UNK A   0      11.505   4.683  23.346  0.00  0.00    +0.337 C 
ATOM     14  O   UNK A   0      12.707   4.485  23.369  0.00  0.00    -0.245 OA
BRANCH  13  15
ATOM     15  O   UNK A   0      10.959   5.873  23.015  0.00  0.00    -0.477 OA
ATOM     16  H   UNK A   0      11.586   6.617  22.962  0.00  0.00    +0.295 HD
ENDBRANCH  13  15
ENDBRANCH  10  13
ENDBRANCH   3   7
BRANCH   1  19
ATOM     17  N   ASP A   1       6.320  -4.108  23.343  0.00  0.00    -0.301 N 
ATOM     18  H   ASP A   1       5.399  -3.708  23.227  0.00  0.00    +0.150 HD
ATOM     19  C   UNK A   0       7.362  -3.330  23.800  0.00  0.00    +0.246 C 
ATOM     20  O   UNK A   0       8.500  -3.753  23.963  0.00  0.00    -0.270 OA
BRANCH  17  21
ATOM     21  CA  ASP A   1       6.520  -5.504  22.984  0.00  0.00    +0.147 C 
BRANCH  21  22
ATOM     22  C   ASP A   1       6.835  -5.541  21.495  0.00  0.00    +0.246 C 
ATOM     23  O   ASP A   1       5.985  -5.427  20.614  0.00  0.00    -0.299 OA
ENDBRANCH  21  22
BRANCH  21  24
ATOM     24  CB  ASP A   1       5.281  -6.364  23.218  0.00  0.00    +0.150 C 
BRANCH  24  25
ATOM     25  CG  ASP A   1       4.087  -5.554  23.649  0.00  0.00    +0.307 C 
ATOM     26  OD2 ASP A   1       3.283  -5.019  22.903  0.00  0.00    -0.251 OA
BRANCH  25  27
ATOM     27  OD1 ASP A   1       3.968  -5.488  24.996  0.00  0.00    -0.481 OA
ATOM     28  HD1 ASP A   1       4.418  -6.201  25.487  0.00  0.00    +0.295 HD
ENDBRANCH  25  27
ENDBRANCH  24  25
ENDBRANCH  21  24
ENDBRANCH  17  21
ENDBRANCH   1  19
TORSDOF 9
ENDMDL
MODEL 9
REMARK VINA RESULT:      -6.2      2.449      3.436
REMARK  Name = 
REMARK  9 active torsions:
REMARK  status: ('A' for Active; 'I' for Inactive)
REMARK    1  A    between atoms: CA_2  and  CB_3
REMARK    2  A    between atoms: CA_2  and  N_7
REMARK    3  A    between atoms: CA_2  and  C_25
REMARK    4  A    between atoms: CB_3  and  CG_4
REMARK    5  A    between atoms: CG_4  and  OD1_5
REMARK    6  A    between atoms: C_8  and  C_10
REMARK    7  A    between atoms: C_14  and  C_16
REMARK    8  A    between atoms: C_19  and  C_22
REMARK    9  A    between atoms: C_22  and  O_23
REMARK                            x       y       z     vdW  Elec       q    Type
REMARK                         _______ _______ _______ _____ _____    ______ ____
ROOT
ATOM      1  C   UNK A   0       9.085   1.554  23.667  0.00  0.00    +0.055 A 
ATOM      2  C   UNK A   0       8.289   0.468  23.284  0.00  0.00    +0.024 A 
ATOM      3  C   UNK A   0       8.610  -0.834  23.703  0.00  0.00    +0.001 A 
ATOM      4  C   UNK A   0       9.755  -0.946  24.502  0.00  0.00    +0.119 A 
ATOM      5  N   UNK A   0      10.555   0.082  24.882  0.00  0.00    -0.262 NA
ATOM      6  C   UNK A   0      10.208   1.308  24.441  0.00  0.00    +0.123 A 
ENDROOT
BRANCH   3   7
ATOM      7  C   UNK A   0       7.814  -2.019  23.313  0.00  0.00    -0.016 A 
ATOM      8  C   UNK A   0       8.284  -3.326  23.539  0.00  0.00    +0.009 A 
ATOM      9  C   UNK A   0       7.507  -4.447  23.224  0.00  0.00    +0.015 A 
ATOM     10  C   UNK A   0       6.229  -4.289  22.684  0.00  0.00    +0.059 A 
ATOM     11  C   UNK A   0       5.756  -3.005  22.405  0.00  0.00    +0.015 A 
ATOM     12  C   UNK A   0       6.543  -1.889  22.717  0.00  0.00    +0.009 A 
BRANCH  10  13
ATOM     13  C   UNK A   0       5.432  -5.507  22.399  0.00  0.00    +0.337 C 
ATOM     14  O   UNK A   0       4.228  -5.569  22.574  0.00  0.00    -0.245 OA
BRANCH  13  15
ATOM     15  O   UNK A   0       6.156  -6.520  21.874  0.00  0.00    -0.477 OA
ATOM     16  H   UNK A   0       7.041  -6.641  22.263  0.00  0.00    +0.295 HD
ENDBRANCH  13  15
ENDBRANCH  10  13
ENDBRANCH   3   7
BRANCH   1  19
ATOM     17  N   ASP A   1       9.264   3.948  23.983  0.00  0.00    -0.301 N 
ATOM     18  H   ASP A   1       9.871   3.745  24.766  0.00  0.00    +0.150 HD
ATOM     19  C   UNK A   0       8.731   2.921  23.234  0.00  0.00    +0.246 C 
ATOM     20  O   UNK A   0       7.990   3.098  22.275  0.00  0.00    -0.270 OA
BRANCH  17  21
ATOM     21  CA  ASP A   1       9.002   5.340  23.651  0.00  0.00    +0.147 C 
BRANCH  21  22
ATOM     22  C   ASP A   1      10.345   6.058  23.643  0.00  0.00    +0.246 C 
ATOM     23  O   ASP A   1      10.894   6.492  24.653  0.00  0.00    -0.299 OA
ENDBRANCH  21  22
BRANCH  21  24
ATOM     24  CB  ASP A   1       8.109   6.039  24.673  0.00  0.00    +0.150 C 
BRANCH  24  25
ATOM     25  CG  ASP A   1       8.174   5.397  26.034  0.00  0.00    +0.307 C 
ATOM     26  OD2 ASP A   1       7.652   4.340  26.347  0.00  0.00    -0.251 OA
BRANCH  25  27
ATOM     27  OD1 ASP A   1       8.913   6.118  26.909  0.00  0.00    -0.481 OA
ATOM     28  HD1 ASP A   1       9.856   6.209  26.678  0.00  0.00    +0.295 HD
ENDBRANCH  25  27
ENDBRANCH  24  25
ENDBRANCH  21  24
ENDBRANCH  17  21
ENDBRANCH   1  19
TORSDOF 9
ENDMDL
