MODEL 1
REMARK VINA RESULT:      -5.8      0.000      0.000
REMARK  Name = 
REMARK  9 active torsions:
REMARK  status: ('A' for Active; 'I' for Inactive)
REMARK    1  A    between atoms: C_1  and  C_2
REMARK    2  A    between atoms: C_2  and  C_3
REMARK    3  A    between atoms: C_3  and  C_4
REMARK    4  A    between atoms: N_6  and  C_7
REMARK    5  A    between atoms: C_13  and  C_14
REMARK    6  A    between atoms: C_15  and  C_16
REMARK    7  A    between atoms: C_15  and  C_18
REMARK    8  A    between atoms: C_16  and  C_17
REMARK    9  A    between atoms: C_18  and  O_19
REMARK                            x       y       z     vdW  Elec       q    Type
REMARK                         _______ _______ _______ _____ _____    ______ ____
ROOT
ATOM      1  C   UNL     1       7.411  -2.951  24.439  0.00  0.00    +0.061 A 
ATOM      2  C   UNL     1       6.728  -4.159  24.148  0.00  0.00    +0.044 A 
ATOM      3  I   UNL     1       7.188  -5.228  22.331  0.00  0.00    -0.041 I 
ATOM      4  C   UNL     1       5.913  -4.793  25.119  0.00  0.00    +0.004 A 
ATOM      5  C   UNL     1       5.929  -4.274  26.429  0.00  0.00    +0.023 A 
ATOM      6  I   UNL     1       4.843  -5.145  28.018  0.00  0.00    -0.043 I 
ATOM      7  C   UNL     1       6.706  -3.158  26.757  0.00  0.00    +0.031 A 
ATOM      8  C   UNL     1       7.434  -2.496  25.770  0.00  0.00    +0.037 A 
ATOM      9  I   UNL     1       8.510  -0.780  26.348  0.00  0.00    -0.042 I 
ENDROOT
BRANCH   1  11
ATOM     10  C   UNL     1       9.394  -2.273  23.187  0.00  0.00    +0.217 C 
ATOM     11  N   UNL     1       8.033  -2.149  23.438  0.00  0.00    -0.284 N 
ATOM     12  H   UNL     1       7.475  -1.989  22.605  0.00  0.00    +0.155 HD
ATOM     13  O   UNL     1      10.160  -3.010  23.801  0.00  0.00    -0.275 OA
BRANCH  10  14
ATOM     14  C   UNL     1       9.874  -1.460  22.002  0.00  0.00    +0.096 C 
BRANCH  14  16
ATOM     15  C   UNL     1       9.927   1.077  22.106  0.00  0.00    +0.004 C 
ATOM     16  C   UNL     1       9.078  -0.163  21.863  0.00  0.00    +0.006 C 
ENDBRANCH  14  16
ENDBRANCH  10  14
ENDBRANCH   1  11
BRANCH   4  17
ATOM     17  C   UNL     1       5.076  -5.967  24.786  0.00  0.00    +0.020 C 
ATOM     18  C   UNL     1       3.805  -5.978  24.320  0.00  0.00    +0.037 C 
BRANCH  18  19
ATOM     19  C   UNL     1       3.131  -7.305  24.108  0.00  0.00    +0.333 C 
ATOM     20  O   UNL     1       3.246  -8.246  24.877  0.00  0.00    -0.245 OA
BRANCH  19  21
ATOM     21  O   UNL     1       2.449  -7.410  22.949  0.00  0.00    -0.477 OA
ATOM     22  H   UNL     1       1.713  -8.047  22.967  0.00  0.00    +0.295 HD
ENDBRANCH  19  21
ENDBRANCH  18  19
BRANCH  18  23
ATOM     23  C   UNL     1       2.892  -4.838  23.906  0.00  0.00    +0.039 C 
ATOM     24  C   UNL     1       2.228  -3.970  24.961  0.00  0.00    +0.009 C 
ENDBRANCH  18  23
ENDBRANCH   4  17
TORSDOF 7
ENDMDL
MODEL 2
REMARK VINA RESULT:      -5.5      1.855      2.259
REMARK  Name = 
REMARK  9 active torsions:
REMARK  status: ('A' for Active; 'I' for Inactive)
REMARK    1  A    between atoms: C_1  and  C_2
REMARK    2  A    between atoms: C_2  and  C_3
REMARK    3  A    between atoms: C_3  and  C_4
REMARK    4  A    between atoms: N_6  and  C_7
REMARK    5  A    between atoms: C_13  and  C_14
REMARK    6  A    between atoms: C_15  and  C_16
REMARK    7  A    between atoms: C_15  and  C_18
REMARK    8  A    between atoms: C_16  and  C_17
REMARK    9  A    between atoms: C_18  and  O_19
REMARK                            x       y       z     vdW  Elec       q    Type
REMARK                         _______ _______ _______ _____ _____    ______ ____
ROOT
ATOM      1  C   UNL     1       7.478  -1.977  24.901  0.00  0.00    +0.061 A 
ATOM      2  C   UNL     1       7.065  -3.296  25.214  0.00  0.00    +0.044 A 
ATOM      3  I   UNL     1       8.541  -4.866  25.353  0.00  0.00    -0.041 I 
ATOM      4  C   UNL     1       5.745  -3.568  25.652  0.00  0.00    +0.004 A 
ATOM      5  C   UNL     1       4.903  -2.470  25.918  0.00  0.00    +0.023 A 
ATOM      6  I   UNL     1       2.936  -2.691  26.656  0.00  0.00    -0.043 I 
ATOM      7  C   UNL     1       5.346  -1.157  25.738  0.00  0.00    +0.031 A 
ATOM      8  C   UNL     1       6.619  -0.911  25.226  0.00  0.00    +0.037 A 
ATOM      9  I   UNL     1       7.166   1.100  24.917  0.00  0.00    -0.042 I 
ENDROOT
BRANCH   1  11
ATOM     10  C   UNL     1       8.811  -1.886  22.858  0.00  0.00    +0.217 C 
ATOM     11  N   UNL     1       8.699  -1.683  24.229  0.00  0.00    -0.284 N 
ATOM     12  H   UNL     1       9.187  -0.857  24.562  0.00  0.00    +0.155 HD
ATOM     13  O   UNL     1       7.932  -2.357  22.142  0.00  0.00    -0.275 OA
BRANCH  10  14
ATOM     14  C   UNL     1      10.118  -1.393  22.271  0.00  0.00    +0.096 C 
BRANCH  14  16
ATOM     15  C   UNL     1       9.233   0.855  21.488  0.00  0.00    +0.004 C 
ATOM     16  C   UNL     1      10.233   0.127  22.376  0.00  0.00    +0.006 C 
ENDBRANCH  14  16
ENDBRANCH  10  14
ENDBRANCH   1  11
BRANCH   4  17
ATOM     17  C   UNL     1       5.256  -4.953  25.836  0.00  0.00    +0.020 C 
ATOM     18  C   UNL     1       4.732  -5.783  24.902  0.00  0.00    +0.037 C 
BRANCH  18  19
ATOM     19  C   UNL     1       4.244  -7.136  25.338  0.00  0.00    +0.333 C 
ATOM     20  O   UNL     1       3.733  -7.941  24.576  0.00  0.00    -0.245 OA
BRANCH  19  21
ATOM     21  O   UNL     1       4.336  -7.367  26.663  0.00  0.00    -0.477 OA
ATOM     22  H   UNL     1       5.134  -7.000  27.084  0.00  0.00    +0.295 HD
ENDBRANCH  19  21
ENDBRANCH  18  19
BRANCH  18  23
ATOM     23  C   UNL     1       4.576  -5.612  23.401  0.00  0.00    +0.039 C 
ATOM     24  C   UNL     1       5.777  -5.777  22.486  0.00  0.00    +0.009 C 
ENDBRANCH  18  23
ENDBRANCH   4  17
TORSDOF 7
ENDMDL
MODEL 3
REMARK VINA RESULT:      -5.5      3.503      4.339
REMARK  Name = 
REMARK  9 active torsions:
REMARK  status: ('A' for Active; 'I' for Inactive)
REMARK    1  A    between atoms: C_1  and  C_2
REMARK    2  A    between atoms: C_2  and  C_3
REMARK    3  A    between atoms: C_3  and  C_4
REMARK    4  A    between atoms: N_6  and  C_7
REMARK    5  A    between atoms: C_13  and  C_14
REMARK    6  A    between atoms: C_15  and  C_16
REMARK    7  A    between atoms: C_15  and  C_18
REMARK    8  A    between atoms: C_16  and  C_17
REMARK    9  A    between atoms: C_18  and  O_19
REMARK                            x       y       z     vdW  Elec       q    Type
REMARK                         _______ _______ _______ _____ _____    ______ ____
ROOT
ATOM      1  C   UNL     1       7.714   0.516  24.021  0.00  0.00    +0.061 A 
ATOM      2  C   UNL     1       7.680  -0.687  23.272  0.00  0.00    +0.044 A 
ATOM      3  I   UNL     1       9.307  -1.150  21.931  0.00  0.00    -0.041 I 
ATOM      4  C   UNL     1       6.719  -1.693  23.542  0.00  0.00    +0.004 A 
ATOM      5  C   UNL     1       5.901  -1.531  24.678  0.00  0.00    +0.023 A 
ATOM      6  I   UNL     1       4.476  -2.971  25.276  0.00  0.00    -0.043 I 
ATOM      7  C   UNL     1       6.019  -0.407  25.501  0.00  0.00    +0.031 A 
ATOM      8  C   UNL     1       6.911   0.613  25.172  0.00  0.00    +0.037 A 
ATOM      9  I   UNL     1       6.959   2.301  26.431  0.00  0.00    -0.042 I 
ENDROOT
BRANCH   1  11
ATOM     10  C   UNL     1       9.794   1.792  24.080  0.00  0.00    +0.217 C 
ATOM     11  N   UNL     1       8.485   1.650  23.635  0.00  0.00    -0.284 N 
ATOM     12  H   UNL     1       8.340   1.967  22.681  0.00  0.00    +0.155 HD
ATOM     13  O   UNL     1      10.366   1.021  24.846  0.00  0.00    -0.275 OA
BRANCH  10  14
ATOM     14  C   UNL     1      10.524   2.972  23.470  0.00  0.00    +0.096 C 
BRANCH  14  16
ATOM     15  C   UNL     1      10.746   5.483  23.779  0.00  0.00    +0.004 C 
ATOM     16  C   UNL     1       9.807   4.285  23.780  0.00  0.00    +0.006 C 
ENDBRANCH  14  16
ENDBRANCH  10  14
ENDBRANCH   1  11
BRANCH   4  17
ATOM     17  C   UNL     1       6.573  -2.884  22.674  0.00  0.00    +0.020 C 
ATOM     18  C   UNL     1       7.049  -4.133  22.888  0.00  0.00    +0.037 C 
BRANCH  18  19
ATOM     19  C   UNL     1       6.826  -5.176  21.828  0.00  0.00    +0.333 C 
ATOM     20  O   UNL     1       7.448  -6.225  21.779  0.00  0.00    -0.245 OA
BRANCH  19  21
ATOM     21  O   UNL     1       5.937  -4.828  20.875  0.00  0.00    -0.477 OA
ATOM     22  H   UNL     1       6.317  -4.332  20.129  0.00  0.00    +0.295 HD
ENDBRANCH  19  21
ENDBRANCH  18  19
BRANCH  18  23
ATOM     23  C   UNL     1       7.769  -4.728  24.085  0.00  0.00    +0.039 C 
ATOM     24  C   UNL     1       9.061  -4.104  24.585  0.00  0.00    +0.009 C 
ENDBRANCH  18  23
ENDBRANCH   4  17
TORSDOF 7
ENDMDL
MODEL 4
REMARK VINA RESULT:      -5.4      2.750      4.230
REMARK  Name = 
REMARK  9 active torsions:
REMARK  status: ('A' for Active; 'I' for Inactive)
REMARK    1  A    between atoms: C_1  and  C_2
REMARK    2  A    between atoms: C_2  and  C_3
REMARK    3  A    between atoms: C_3  and  C_4
REMARK    4  A    between atoms: N_6  and  C_7
REMARK    5  A    between atoms: C_13  and  C_14
REMARK    6  A    between atoms: C_15  and  C_16
REMARK    7  A    between atoms: C_15  and  C_18
REMARK    8  A    between atoms: C_16  and  C_17
REMARK    9  A    between atoms: C_18  and  O_19
REMARK                            x       y       z     vdW  Elec       q    Type
REMARK                         _______ _______ _______ _____ _____    ______ ____
ROOT
ATOM      1  C   UNL     1       7.657  -1.341  24.160  0.00  0.00    +0.061 A 
ATOM      2  C   UNL     1       6.774  -2.273  24.760  0.00  0.00    +0.044 A 
ATOM      3  I   UNL     1       5.474  -1.627  26.358  0.00  0.00    -0.041 I 
ATOM      4  C   UNL     1       6.567  -3.556  24.196  0.00  0.00    +0.004 A 
ATOM      5  C   UNL     1       7.142  -3.820  22.937  0.00  0.00    +0.023 A 
ATOM      6  I   UNL     1       6.865  -5.647  21.913  0.00  0.00    -0.043 I 
ATOM      7  C   UNL     1       7.907  -2.855  22.274  0.00  0.00    +0.031 A 
ATOM      8  C   UNL     1       8.171  -1.629  22.882  0.00  0.00    +0.037 A 
ATOM      9  I   UNL     1       9.398  -0.274  21.837  0.00  0.00    -0.042 I 
ENDROOT
BRANCH   1  11
ATOM     10  C   UNL     1       7.393   1.042  24.624  0.00  0.00    +0.217 C 
ATOM     11  N   UNL     1       8.088  -0.148  24.809  0.00  0.00    -0.284 N 
ATOM     12  H   UNL     1       8.441  -0.273  25.753  0.00  0.00    +0.155 HD
ATOM     13  O   UNL     1       6.423   1.183  23.885  0.00  0.00    -0.275 OA
BRANCH  10  14
ATOM     14  C   UNL     1       7.889   2.182  25.491  0.00  0.00    +0.096 C 
BRANCH  14  16
ATOM     15  C   UNL     1       9.610   3.156  23.897  0.00  0.00    +0.004 C 
ATOM     16  C   UNL     1       8.301   3.383  24.641  0.00  0.00    +0.006 C 
ENDBRANCH  14  16
ENDBRANCH  10  14
ENDBRANCH   1  11
BRANCH   4  17
ATOM     17  C   UNL     1       5.770  -4.592  24.891  0.00  0.00    +0.020 C 
ATOM     18  C   UNL     1       6.147  -5.378  25.927  0.00  0.00    +0.037 C 
BRANCH  18  19
ATOM     19  C   UNL     1       5.179  -6.410  26.434  0.00  0.00    +0.333 C 
ATOM     20  O   UNL     1       4.088  -6.613  25.925  0.00  0.00    -0.245 OA
BRANCH  19  21
ATOM     21  O   UNL     1       5.571  -7.045  27.557  0.00  0.00    -0.477 OA
ATOM     22  H   UNL     1       4.849  -7.455  28.064  0.00  0.00    +0.295 HD
ENDBRANCH  19  21
ENDBRANCH  18  19
BRANCH  18  23
ATOM     23  C   UNL     1       7.422  -5.385  26.752  0.00  0.00    +0.039 C 
ATOM     24  C   UNL     1       8.773  -5.242  26.070  0.00  0.00    +0.009 C 
ENDBRANCH  18  23
ENDBRANCH   4  17
TORSDOF 7
ENDMDL
MODEL 5
REMARK VINA RESULT:      -5.4      1.544      1.956
REMARK  Name = 
REMARK  9 active torsions:
REMARK  status: ('A' for Active; 'I' for Inactive)
REMARK    1  A    between atoms: C_1  and  C_2
REMARK    2  A    between atoms: C_2  and  C_3
REMARK    3  A    between atoms: C_3  and  C_4
REMARK    4  A    between atoms: N_6  and  C_7
REMARK    5  A    between atoms: C_13  and  C_14
REMARK    6  A    between atoms: C_15  and  C_16
REMARK    7  A    between atoms: C_15  and  C_18
REMARK    8  A    between atoms: C_16  and  C_17
REMARK    9  A    between atoms: C_18  and  O_19
REMARK                            x       y       z     vdW  Elec       q    Type
REMARK                         _______ _______ _______ _____ _____    ______ ____
ROOT
ATOM      1  C   UNL     1       7.135  -2.758  24.181  0.00  0.00    +0.061 A 
ATOM      2  C   UNL     1       6.140  -3.623  23.663  0.00  0.00    +0.044 A 
ATOM      3  I   UNL     1       6.641  -4.981  22.062  0.00  0.00    -0.041 I 
ATOM      4  C   UNL     1       4.889  -3.774  24.312  0.00  0.00    +0.004 A 
ATOM      5  C   UNL     1       4.724  -3.161  25.570  0.00  0.00    +0.023 A 
ATOM      6  I   UNL     1       2.958  -3.353  26.713  0.00  0.00    -0.043 I 
ATOM      7  C   UNL     1       5.752  -2.413  26.151  0.00  0.00    +0.031 A 
ATOM      8  C   UNL     1       6.945  -2.204  25.460  0.00  0.00    +0.037 A 
ATOM      9  I   UNL     1       8.402  -0.998  26.386  0.00  0.00    -0.042 I 
ENDROOT
BRANCH   1  11
ATOM     10  C   UNL     1       8.283  -1.247  22.644  0.00  0.00    +0.217 C 
ATOM     11  N   UNL     1       8.297  -2.382  23.447  0.00  0.00    -0.284 N 
ATOM     12  H   UNL     1       9.179  -2.533  23.927  0.00  0.00    +0.155 HD
ATOM     13  O   UNL     1       7.307  -0.525  22.462  0.00  0.00    -0.275 OA
BRANCH  10  14
ATOM     14  C   UNL     1       9.632  -0.904  22.045  0.00  0.00    +0.096 C 
BRANCH  14  16
ATOM     15  C   UNL     1       9.945   1.616  22.006  0.00  0.00    +0.004 C 
ATOM     16  C   UNL     1      10.249   0.313  22.733  0.00  0.00    +0.006 C 
ENDBRANCH  14  16
ENDBRANCH  10  14
ENDBRANCH   1  11
BRANCH   4  17
ATOM     17  C   UNL     1       3.786  -4.553  23.705  0.00  0.00    +0.020 C 
ATOM     18  C   UNL     1       3.577  -5.889  23.767  0.00  0.00    +0.037 C 
BRANCH  18  19
ATOM     19  C   UNL     1       2.412  -6.469  23.016  0.00  0.00    +0.333 C 
ATOM     20  O   UNL     1       1.531  -5.788  22.515  0.00  0.00    -0.245 OA
BRANCH  19  21
ATOM     21  O   UNL     1       2.364  -7.817  23.007  0.00  0.00    -0.477 OA
ATOM     22  H   UNL     1       3.065  -8.244  22.484  0.00  0.00    +0.295 HD
ENDBRANCH  19  21
ENDBRANCH  18  19
BRANCH  18  23
ATOM     23  C   UNL     1       4.315  -6.972  24.535  0.00  0.00    +0.039 C 
ATOM     24  C   UNL     1       4.429  -6.891  26.048  0.00  0.00    +0.009 C 
ENDBRANCH  18  23
ENDBRANCH   4  17
TORSDOF 7
ENDMDL
MODEL 6
REMARK VINA RESULT:      -5.4      1.822      2.461
REMARK  Name = 
REMARK  9 active torsions:
REMARK  status: ('A' for Active; 'I' for Inactive)
REMARK    1  A    between atoms: C_1  and  C_2
REMARK    2  A    between atoms: C_2  and  C_3
REMARK    3  A    between atoms: C_3  and  C_4
REMARK    4  A    between atoms: N_6  and  C_7
REMARK    5  A    between atoms: C_13  and  C_14
REMARK    6  A    between atoms: C_15  and  C_16
REMARK    7  A    between atoms: C_15  and  C_18
REMARK    8  A    between atoms: C_16  and  C_17
REMARK    9  A    between atoms: C_18  and  O_19
REMARK                            x       y       z     vdW  Elec       q    Type
REMARK                         _______ _______ _______ _____ _____    ______ ____
ROOT
ATOM      1  C   UNL     1       6.574  -1.538  23.881  0.00  0.00    +0.061 A 
ATOM      2  C   UNL     1       6.166  -2.892  23.986  0.00  0.00    +0.044 A 
ATOM      3  I   UNL     1       7.336  -4.431  23.024  0.00  0.00    -0.041 I 
ATOM      4  C   UNL     1       5.141  -3.282  24.884  0.00  0.00    +0.004 A 
ATOM      5  C   UNL     1       4.650  -2.312  25.780  0.00  0.00    +0.023 A 
ATOM      6  I   UNL     1       3.185  -2.742  27.240  0.00  0.00    -0.043 I 
ATOM      7  C   UNL     1       5.142  -1.003  25.773  0.00  0.00    +0.031 A 
ATOM      8  C   UNL     1       6.089  -0.616  24.826  0.00  0.00    +0.037 A 
ATOM      9  I   UNL     1       6.710   1.397  24.846  0.00  0.00    -0.042 I 
ENDROOT
BRANCH   1  11
ATOM     10  C   UNL     1       8.794  -1.065  22.982  0.00  0.00    +0.217 C 
ATOM     11  N   UNL     1       7.412  -1.058  22.833  0.00  0.00    -0.284 N 
ATOM     12  H   UNL     1       7.099  -1.282  21.893  0.00  0.00    +0.155 HD
ATOM     13  O   UNL     1       9.392  -1.421  23.993  0.00  0.00    -0.275 OA
BRANCH  10  14
ATOM     14  C   UNL     1       9.546  -0.658  21.730  0.00  0.00    +0.096 C 
BRANCH  14  16
ATOM     15  C   UNL     1      10.008   1.806  22.137  0.00  0.00    +0.004 C 
ATOM     16  C   UNL     1       9.220   0.781  21.333  0.00  0.00    +0.006 C 
ENDBRANCH  14  16
ENDBRANCH  10  14
ENDBRANCH   1  11
BRANCH   4  17
ATOM     17  C   UNL     1       4.601  -4.660  24.897  0.00  0.00    +0.020 C 
ATOM     18  C   UNL     1       4.912  -5.669  25.745  0.00  0.00    +0.037 C 
BRANCH  18  19
ATOM     19  C   UNL     1       4.274  -7.012  25.526  0.00  0.00    +0.333 C 
ATOM     20  O   UNL     1       4.227  -7.563  24.437  0.00  0.00    -0.245 OA
BRANCH  19  21
ATOM     21  O   UNL     1       3.675  -7.534  26.616  0.00  0.00    -0.477 OA
ATOM     22  H   UNL     1       4.175  -8.248  27.050  0.00  0.00    +0.295 HD
ENDBRANCH  19  21
ENDBRANCH  18  19
BRANCH  18  23
ATOM     23  C   UNL     1       5.803  -5.690  26.974  0.00  0.00    +0.039 C 
ATOM     24  C   UNL     1       7.290  -5.407  26.844  0.00  0.00    +0.009 C 
ENDBRANCH  18  23
ENDBRANCH   4  17
TORSDOF 7
ENDMDL
MODEL 7
REMARK VINA RESULT:      -5.3      3.770      7.709
REMARK  Name = 
REMARK  9 active torsions:
REMARK  status: ('A' for Active; 'I' for Inactive)
REMARK    1  A    between atoms: C_1  and  C_2
REMARK    2  A    between atoms: C_2  and  C_3
REMARK    3  A    between atoms: C_3  and  C_4
REMARK    4  A    between atoms: N_6  and  C_7
REMARK    5  A    between atoms: C_13  and  C_14
REMARK    6  A    between atoms: C_15  and  C_16
REMARK    7  A    between atoms: C_15  and  C_18
REMARK    8  A    between atoms: C_16  and  C_17
REMARK    9  A    between atoms: C_18  and  O_19
REMARK                            x       y       z     vdW  Elec       q    Type
REMARK                         _______ _______ _______ _____ _____    ______ ____
ROOT
ATOM      1  C   UNL     1       7.278  -1.350  24.341  0.00  0.00    +0.061 A 
ATOM      2  C   UNL     1       8.149  -0.280  24.020  0.00  0.00    +0.044 A 
ATOM      3  I   UNL     1       9.313  -0.366  22.204  0.00  0.00    -0.041 I 
ATOM      4  C   UNL     1       8.113   0.939  24.743  0.00  0.00    +0.004 A 
ATOM      5  C   UNL     1       7.080   1.112  25.686  0.00  0.00    +0.023 A 
ATOM      6  I   UNL     1       6.826   2.894  26.790  0.00  0.00    -0.043 I 
ATOM      7  C   UNL     1       6.133   0.108  25.915  0.00  0.00    +0.031 A 
ATOM      8  C   UNL     1       6.235  -1.115  25.256  0.00  0.00    +0.037 A 
ATOM      9  I   UNL     1       4.807  -2.590  25.727  0.00  0.00    -0.042 I 
ENDROOT
BRANCH   1  11
ATOM     10  C   UNL     1       8.279  -3.574  24.453  0.00  0.00    +0.217 C 
ATOM     11  N   UNL     1       7.438  -2.666  23.820  0.00  0.00    -0.284 N 
ATOM     12  H   UNL     1       6.595  -3.086  23.439  0.00  0.00    +0.155 HD
ATOM     13  O   UNL     1       8.965  -3.328  25.441  0.00  0.00    -0.275 OA
BRANCH  10  14
ATOM     14  C   UNL     1       8.231  -4.969  23.861  0.00  0.00    +0.096 C 
BRANCH  14  16
ATOM     15  C   UNL     1       7.082  -5.741  21.732  0.00  0.00    +0.004 C 
ATOM     16  C   UNL     1       6.901  -5.222  23.152  0.00  0.00    +0.006 C 
ENDBRANCH  14  16
ENDBRANCH  10  14
ENDBRANCH   1  11
BRANCH   4  17
ATOM     17  C   UNL     1       9.115   2.005  24.521  0.00  0.00    +0.020 C 
ATOM     18  C   UNL     1       8.979   3.137  23.791  0.00  0.00    +0.037 C 
BRANCH  18  19
ATOM     19  C   UNL     1      10.163   4.053  23.659  0.00  0.00    +0.333 C 
ATOM     20  O   UNL     1      10.202   5.172  24.144  0.00  0.00    -0.245 OA
BRANCH  19  21
ATOM     21  O   UNL     1      11.159   3.576  22.885  0.00  0.00    -0.477 OA
ATOM     22  H   UNL     1      10.868   2.977  22.175  0.00  0.00    +0.295 HD
ENDBRANCH  19  21
ENDBRANCH  18  19
BRANCH  18  23
ATOM     23  C   UNL     1       7.771   3.713  23.073  0.00  0.00    +0.039 C 
ATOM     24  C   UNL     1       7.146   2.963  21.908  0.00  0.00    +0.009 C 
ENDBRANCH  18  23
ENDBRANCH   4  17
TORSDOF 7
ENDMDL
MODEL 8
REMARK VINA RESULT:      -5.1      2.294      2.652
REMARK  Name = 
REMARK  9 active torsions:
REMARK  status: ('A' for Active; 'I' for Inactive)
REMARK    1  A    between atoms: C_1  and  C_2
REMARK    2  A    between atoms: C_2  and  C_3
REMARK    3  A    between atoms: C_3  and  C_4
REMARK    4  A    between atoms: N_6  and  C_7
REMARK    5  A    between atoms: C_13  and  C_14
REMARK    6  A    between atoms: C_15  and  C_16
REMARK    7  A    between atoms: C_15  and  C_18
REMARK    8  A    between atoms: C_16  and  C_17
REMARK    9  A    between atoms: C_18  and  O_19
REMARK                            x       y       z     vdW  Elec       q    Type
REMARK                         _______ _______ _______ _____ _____    ______ ____
ROOT
ATOM      1  C   UNL     1       7.532  -1.466  26.167  0.00  0.00    +0.061 A 
ATOM      2  C   UNL     1       7.344  -2.778  25.666  0.00  0.00    +0.044 A 
ATOM      3  I   UNL     1       9.040  -3.879  24.908  0.00  0.00    -0.041 I 
ATOM      4  C   UNL     1       6.119  -3.465  25.850  0.00  0.00    +0.004 A 
ATOM      5  C   UNL     1       5.150  -2.868  26.682  0.00  0.00    +0.023 A 
ATOM      6  I   UNL     1       3.304  -3.791  27.133  0.00  0.00    -0.043 I 
ATOM      7  C   UNL     1       5.381  -1.630  27.289  0.00  0.00    +0.031 A 
ATOM      8  C   UNL     1       6.558  -0.930  27.028  0.00  0.00    +0.037 A 
ATOM      9  I   UNL     1       6.778   0.962  27.928  0.00  0.00    -0.042 I 
ENDROOT
BRANCH   1  11
ATOM     10  C   UNL     1       8.587   0.124  24.643  0.00  0.00    +0.217 C 
ATOM     11  N   UNL     1       8.638  -0.644  25.800  0.00  0.00    -0.284 N 
ATOM     12  H   UNL     1       9.113  -0.189  26.574  0.00  0.00    +0.155 HD
ATOM     13  O   UNL     1       7.655   0.133  23.844  0.00  0.00    -0.275 OA
BRANCH  10  14
ATOM     14  C   UNL     1       9.776   1.047  24.469  0.00  0.00    +0.096 C 
BRANCH  14  16
ATOM     15  C   UNL     1      10.097   1.811  22.068  0.00  0.00    +0.004 C 
ATOM     16  C   UNL     1       9.489   2.128  23.427  0.00  0.00    +0.006 C 
ENDBRANCH  14  16
ENDBRANCH  10  14
ENDBRANCH   1  11
BRANCH   4  17
ATOM     17  C   UNL     1       5.854  -4.771  25.205  0.00  0.00    +0.020 C 
ATOM     18  C   UNL     1       5.301  -5.003  23.991  0.00  0.00    +0.037 C 
BRANCH  18  19
ATOM     19  C   UNL     1       5.074  -6.427  23.566  0.00  0.00    +0.333 C 
ATOM     20  O   UNL     1       4.535  -7.260  24.277  0.00  0.00    -0.245 OA
BRANCH  19  21
ATOM     21  O   UNL     1       5.591  -6.744  22.362  0.00  0.00    -0.477 OA
ATOM     22  H   UNL     1       4.952  -7.127  21.735  0.00  0.00    +0.295 HD
ENDBRANCH  19  21
ENDBRANCH  18  19
BRANCH  18  23
ATOM     23  C   UNL     1       4.884  -4.041  22.892  0.00  0.00    +0.039 C 
ATOM     24  C   UNL     1       5.929  -3.208  22.170  0.00  0.00    +0.009 C 
ENDBRANCH  18  23
ENDBRANCH   4  17
TORSDOF 7
ENDMDL
MODEL 9
REMARK VINA RESULT:      -5.0      2.938      6.985
REMARK  Name = 
REMARK  9 active torsions:
REMARK  status: ('A' for Active; 'I' for Inactive)
REMARK    1  A    between atoms: C_1  and  C_2
REMARK    2  A    between atoms: C_2  and  C_3
REMARK    3  A    between atoms: C_3  and  C_4
REMARK    4  A    between atoms: N_6  and  C_7
REMARK    5  A    between atoms: C_13  and  C_14
REMARK    6  A    between atoms: C_15  and  C_16
REMARK    7  A    between atoms: C_15  and  C_18
REMARK    8  A    between atoms: C_16  and  C_17
REMARK    9  A    between atoms: C_18  and  O_19
REMARK                            x       y       z     vdW  Elec       q    Type
REMARK                         _______ _______ _______ _____ _____    ______ ____
ROOT
ATOM      1  C   UNL     1       5.228  -2.470  25.353  0.00  0.00    +0.061 A 
ATOM      2  C   UNL     1       5.984  -2.076  24.222  0.00  0.00    +0.044 A 
ATOM      3  I   UNL     1       6.139  -3.409  22.530  0.00  0.00    -0.041 I 
ATOM      4  C   UNL     1       6.458  -0.747  24.082  0.00  0.00    +0.004 A 
ATOM      5  C   UNL     1       6.021   0.207  25.022  0.00  0.00    +0.023 A 
ATOM      6  I   UNL     1       6.560   2.247  24.916  0.00  0.00    -0.043 I 
ATOM      7  C   UNL     1       5.164  -0.147  26.069  0.00  0.00    +0.031 A 
ATOM      8  C   UNL     1       4.778  -1.475  26.240  0.00  0.00    +0.037 A 
ATOM      9  I   UNL     1       3.550  -1.920  27.892  0.00  0.00    -0.042 I 
ENDROOT
BRANCH   1  11
ATOM     10  C   UNL     1       5.865  -4.598  26.366  0.00  0.00    +0.217 C 
ATOM     11  N   UNL     1       4.943  -3.832  25.662  0.00  0.00    -0.284 N 
ATOM     12  H   UNL     1       3.977  -4.026  25.907  0.00  0.00    +0.155 HD
ATOM     13  O   UNL     1       6.973  -4.212  26.727  0.00  0.00    -0.275 OA
BRANCH  10  14
ATOM     14  C   UNL     1       5.357  -5.977  26.739  0.00  0.00    +0.096 C 
BRANCH  14  16
ATOM     15  C   UNL     1       4.261  -7.199  24.802  0.00  0.00    +0.004 C 
ATOM     16  C   UNL     1       4.053  -6.300  26.012  0.00  0.00    +0.006 C 
ENDBRANCH  14  16
ENDBRANCH  10  14
ENDBRANCH   1  11
BRANCH   4  17
ATOM     17  C   UNL     1       7.375  -0.359  22.986  0.00  0.00    +0.020 C 
ATOM     18  C   UNL     1       8.728  -0.352  22.996  0.00  0.00    +0.037 C 
BRANCH  18  19
ATOM     19  C   UNL     1       9.452   0.143  21.775  0.00  0.00    +0.333 C 
ATOM     20  O   UNL     1       9.836   1.294  21.644  0.00  0.00    -0.245 OA
BRANCH  19  21
ATOM     21  O   UNL     1       9.573  -0.766  20.786  0.00  0.00    -0.477 OA
ATOM     22  H   UNL     1      10.266  -0.565  20.133  0.00  0.00    +0.295 HD
ENDBRANCH  19  21
ENDBRANCH  18  19
BRANCH  18  23
ATOM     23  C   UNL     1       9.714  -0.820  24.053  0.00  0.00    +0.039 C 
ATOM     24  C   UNL     1      10.188   0.140  25.131  0.00  0.00    +0.009 C 
ENDBRANCH  18  23
ENDBRANCH   4  17
TORSDOF 7
ENDMDL
