MODEL 1
REMARK VINA RESULT:      -6.8      0.000      0.000
REMARK  Name = 
REMARK  17 active torsions:
REMARK  status: ('A' for Active; 'I' for Inactive)
REMARK    1  A    between atoms: N_2  and  C_4
REMARK    2  A    between atoms: C_7  and  O_8
REMARK    3  A    between atoms: O_8  and  S_9
REMARK    4  A    between atoms: S_9  and  C_12
REMARK    5  A    between atoms: C_12  and  C_13
REMARK    6  A    between atoms: C_13  and  C_14
REMARK    7  A    between atoms: C_14  and  C_16
REMARK    8  A    between atoms: C_14  and  N_24
REMARK    9  A    between atoms: C_16  and  C_17
REMARK   10  A    between atoms: C_17  and  C_18
REMARK   11  A    between atoms: C_25  and  C_27
REMARK   12  A    between atoms: C_27  and  C_29
REMARK   13  A    between atoms: C_27  and  N_36
REMARK   14  A    between atoms: C_29  and  C_30
REMARK   15  A    between atoms: C_37  and  O_39
REMARK   16  A    between atoms: O_39  and  C_40
REMARK   17  A    between atoms: C_40  and  C_41
REMARK                            x       y       z     vdW  Elec       q    Type
REMARK                         _______ _______ _______ _____ _____    ______ ____
ROOT
ATOM      1  C   UNL     1       8.361  -3.103  24.140  0.00  0.00    +0.075 C 
ENDROOT
BRANCH   1   2
ATOM      2  N   UNL     1       7.463  -1.952  24.249  0.00  0.00    -0.311 N 
ATOM      3  H   UNL     1       6.935  -1.711  23.422  0.00  0.00    +0.149 HD
ATOM      4  C   UNL     1       7.368  -1.161  25.376  0.00  0.00    +0.234 C 
ATOM      5  O   UNL     1       8.031  -1.397  26.389  0.00  0.00    -0.274 OA
BRANCH   4   6
ATOM      6  C   UNL     1       6.400   0.055  25.319  0.00  0.00    +0.166 C 
BRANCH   6   7
ATOM      7  N   UNL     1       5.070  -0.463  25.573  0.00  0.00    -0.269 N 
ATOM      8  H   UNL     1       4.597  -1.047  24.896  0.00  0.00    +0.153 HD
ATOM      9  C   UNL     1       4.442  -0.271  26.764  0.00  0.00    +0.401 C 
ATOM     10  O   UNL     1       4.901   0.376  27.694  0.00  0.00    -0.226 OA
BRANCH   9  11
ATOM     11  O   UNL     1       3.270  -0.941  26.764  0.00  0.00    -0.446 OA
BRANCH  11  12
ATOM     12  C   UNL     1       3.008  -1.642  27.983  0.00  0.00    +0.269 C 
BRANCH  12  13
ATOM     13  C   UNL     1       2.378  -2.967  27.632  0.00  0.00    -0.010 A 
ATOM     14  C   UNL     1       2.401  -4.019  28.559  0.00  0.00    +0.007 A 
ATOM     15  C   UNL     1       1.771  -5.229  28.274  0.00  0.00    +0.000 A 
ATOM     16  C   UNL     1       1.114  -5.400  27.057  0.00  0.00    +0.000 A 
ATOM     17  C   UNL     1       1.085  -4.361  26.127  0.00  0.00    +0.000 A 
ATOM     18  C   UNL     1       1.711  -3.147  26.413  0.00  0.00    +0.007 A 
ENDBRANCH  12  13
ENDBRANCH  11  12
ENDBRANCH   9  11
ENDBRANCH   6   7
BRANCH   6  19
ATOM     19  C   UNL     1       6.501   0.914  24.044  0.00  0.00    +0.067 C 
BRANCH  19  20
ATOM     20  C   UNL     1       6.979   2.344  24.164  0.00  0.00    -0.045 A 
ATOM     21  C   UNL     1       6.910   3.164  23.024  0.00  0.00    +0.004 A 
ATOM     22  C   UNL     1       7.425   4.460  23.038  0.00  0.00    +0.000 A 
ATOM     23  C   UNL     1       8.012   4.958  24.195  0.00  0.00    +0.000 A 
ATOM     24  C   UNL     1       8.081   4.161  25.337  0.00  0.00    +0.000 A 
ATOM     25  C   UNL     1       7.576   2.857  25.321  0.00  0.00    +0.004 A 
ENDBRANCH  19  20
ENDBRANCH   6  19
ENDBRANCH   4   6
ENDBRANCH   1   2
BRANCH   1  26
ATOM     26  C   UNL     1       7.787  -4.042  23.058  0.00  0.00    +0.048 C 
BRANCH  26  27
ATOM     27  C   UNL     1       6.731  -5.057  23.509  0.00  0.00    +0.212 C 
BRANCH  27  28
ATOM     28  S   UNL     1       5.101  -4.508  22.962  0.00  0.00    +0.121 S 
ATOM     29  O   UNL     1       5.277  -3.285  22.204  0.00  0.00    -0.137 OA
ATOM     30  O   UNL     1       4.403  -5.652  22.408  0.00  0.00    -0.137 OA
BRANCH  28  31
ATOM     31  O   UNL     1       4.446  -4.150  24.417  0.00  0.00    -0.346 OA
BRANCH  31  35
ATOM     32  C   UNL     1       5.770  -5.887  27.984  0.00  0.00    +0.273 A 
ATOM     33  C   UNL     1       5.007  -6.663  27.105  0.00  0.00    +0.088 A 
ATOM     34  C   UNL     1       4.555  -6.107  25.900  0.00  0.00    +0.055 A 
ATOM     35  C   UNL     1       4.865  -4.784  25.568  0.00  0.00    +0.157 A 
ATOM     36  C   UNL     1       5.621  -4.011  26.460  0.00  0.00    +0.055 A 
ATOM     37  C   UNL     1       6.080  -4.560  27.665  0.00  0.00    +0.088 A 
BRANCH  32  39
ATOM     38  O   UNL     1       6.117  -5.788  30.277  0.00  0.00    -0.576 OA
ATOM     39  N   UNL     1       6.239  -6.470  29.248  0.00  0.00    +0.080 N 
ATOM     40  O   UNL     1       6.725  -7.609  29.215  0.00  0.00    +0.041 OA
ENDBRANCH  32  39
ENDBRANCH  31  35
ENDBRANCH  28  31
ENDBRANCH  27  28
ENDBRANCH  26  27
ENDBRANCH   1  26
BRANCH   1  41
ATOM     41  C   UNL     1       9.783  -2.620  23.814  0.00  0.00    +0.027 C 
BRANCH  41  42
ATOM     42  C   UNL     1       9.872  -1.828  22.500  0.00  0.00    +0.037 C 
BRANCH  42  43
ATOM     43  C   UNL     1      10.067  -0.360  22.767  0.00  0.00    -0.047 A 
ATOM     44  C   UNL     1      10.549   0.068  24.009  0.00  0.00    +0.003 A 
ATOM     45  C   UNL     1      10.793   1.419  24.237  0.00  0.00    +0.000 A 
ATOM     46  C   UNL     1      10.549   2.352  23.229  0.00  0.00    +0.000 A 
ATOM     47  C   UNL     1      10.048   1.937  21.997  0.00  0.00    +0.000 A 
ATOM     48  C   UNL     1       9.808   0.584  21.765  0.00  0.00    +0.003 A 
ENDBRANCH  42  43
ENDBRANCH  41  42
ENDBRANCH   1  41
TORSDOF 17
ENDMDL
MODEL 2
REMARK VINA RESULT:      -6.7      1.559      5.807
REMARK  Name = 
REMARK  17 active torsions:
REMARK  status: ('A' for Active; 'I' for Inactive)
REMARK    1  A    between atoms: N_2  and  C_4
REMARK    2  A    between atoms: C_7  and  O_8
REMARK    3  A    between atoms: O_8  and  S_9
REMARK    4  A    between atoms: S_9  and  C_12
REMARK    5  A    between atoms: C_12  and  C_13
REMARK    6  A    between atoms: C_13  and  C_14
REMARK    7  A    between atoms: C_14  and  C_16
REMARK    8  A    between atoms: C_14  and  N_24
REMARK    9  A    between atoms: C_16  and  C_17
REMARK   10  A    between atoms: C_17  and  C_18
REMARK   11  A    between atoms: C_25  and  C_27
REMARK   12  A    between atoms: C_27  and  C_29
REMARK   13  A    between atoms: C_27  and  N_36
REMARK   14  A    between atoms: C_29  and  C_30
REMARK   15  A    between atoms: C_37  and  O_39
REMARK   16  A    between atoms: O_39  and  C_40
REMARK   17  A    between atoms: C_40  and  C_41
REMARK                            x       y       z     vdW  Elec       q    Type
REMARK                         _______ _______ _______ _____ _____    ______ ____
ROOT
ATOM      1  C   UNL     1       8.492  -2.992  23.782  0.00  0.00    +0.075 C 
ENDROOT
BRANCH   1   2
ATOM      2  N   UNL     1       7.498  -2.089  24.365  0.00  0.00    -0.311 N 
ATOM      3  H   UNL     1       6.929  -1.564  23.716  0.00  0.00    +0.149 HD
ATOM      4  C   UNL     1       7.361  -1.875  25.721  0.00  0.00    +0.234 C 
ATOM      5  O   UNL     1       8.069  -2.464  26.543  0.00  0.00    -0.274 OA
BRANCH   4   6
ATOM      6  C   UNL     1       6.287  -0.849  26.181  0.00  0.00    +0.166 C 
BRANCH   6   7
ATOM      7  N   UNL     1       6.977   0.410  26.386  0.00  0.00    -0.269 N 
ATOM      8  H   UNL     1       7.345   0.664  27.293  0.00  0.00    +0.153 HD
ATOM      9  C   UNL     1       7.247   1.254  25.355  0.00  0.00    +0.401 C 
ATOM     10  O   UNL     1       6.904   1.067  24.196  0.00  0.00    -0.226 OA
BRANCH   9  11
ATOM     11  O   UNL     1       7.981   2.292  25.808  0.00  0.00    -0.446 OA
BRANCH  11  12
ATOM     12  C   UNL     1       7.232   3.498  25.976  0.00  0.00    +0.269 C 
BRANCH  12  13
ATOM     13  C   UNL     1       7.745   4.507  24.980  0.00  0.00    -0.010 A 
ATOM     14  C   UNL     1       8.851   5.308  25.301  0.00  0.00    +0.007 A 
ATOM     15  C   UNL     1       9.374   6.201  24.368  0.00  0.00    +0.000 A 
ATOM     16  C   UNL     1       8.794   6.307  23.106  0.00  0.00    +0.000 A 
ATOM     17  C   UNL     1       7.693   5.517  22.775  0.00  0.00    +0.000 A 
ATOM     18  C   UNL     1       7.172   4.617  23.706  0.00  0.00    +0.007 A 
ENDBRANCH  12  13
ENDBRANCH  11  12
ENDBRANCH   9  11
ENDBRANCH   6   7
BRANCH   6  19
ATOM     19  C   UNL     1       5.431  -1.292  27.384  0.00  0.00    +0.067 C 
BRANCH  19  20
ATOM     20  C   UNL     1       4.399  -2.381  27.182  0.00  0.00    -0.045 A 
ATOM     21  C   UNL     1       3.806  -2.505  25.914  0.00  0.00    +0.004 A 
ATOM     22  C   UNL     1       2.779  -3.421  25.688  0.00  0.00    +0.000 A 
ATOM     23  C   UNL     1       2.333  -4.230  26.726  0.00  0.00    +0.000 A 
ATOM     24  C   UNL     1       2.916  -4.126  27.988  0.00  0.00    +0.000 A 
ATOM     25  C   UNL     1       3.939  -3.200  28.220  0.00  0.00    +0.004 A 
ENDBRANCH  19  20
ENDBRANCH   6  19
ENDBRANCH   4   6
ENDBRANCH   1   2
BRANCH   1  26
ATOM     26  C   UNL     1       8.040  -3.317  22.342  0.00  0.00    +0.048 C 
BRANCH  26  27
ATOM     27  C   UNL     1       6.545  -3.576  22.126  0.00  0.00    +0.212 C 
BRANCH  27  28
ATOM     28  S   UNL     1       6.275  -5.344  21.883  0.00  0.00    +0.121 S 
ATOM     29  O   UNL     1       5.901  -5.549  20.498  0.00  0.00    -0.137 OA
ATOM     30  O   UNL     1       7.385  -6.056  22.485  0.00  0.00    -0.137 OA
BRANCH  28  31
ATOM     31  O   UNL     1       4.955  -5.538  22.830  0.00  0.00    -0.346 OA
BRANCH  31  35
ATOM     32  C   UNL     1       5.427  -6.456  26.883  0.00  0.00    +0.273 A 
ATOM     33  C   UNL     1       4.451  -7.140  26.152  0.00  0.00    +0.088 A 
ATOM     34  C   UNL     1       4.275  -6.856  24.791  0.00  0.00    +0.055 A 
ATOM     35  C   UNL     1       5.072  -5.897  24.157  0.00  0.00    +0.157 A 
ATOM     36  C   UNL     1       6.040  -5.208  24.901  0.00  0.00    +0.055 A 
ATOM     37  C   UNL     1       6.225  -5.488  26.262  0.00  0.00    +0.088 A 
BRANCH  32  39
ATOM     38  O   UNL     1       6.705  -6.486  28.821  0.00  0.00    -0.576 OA
ATOM     39  N   UNL     1       5.606  -6.753  28.311  0.00  0.00    +0.080 N 
ATOM     40  O   UNL     1       4.649  -7.247  28.924  0.00  0.00    +0.041 OA
ENDBRANCH  32  39
ENDBRANCH  31  35
ENDBRANCH  28  31
ENDBRANCH  27  28
ENDBRANCH  26  27
ENDBRANCH   1  26
BRANCH   1  41
ATOM     41  C   UNL     1       9.880  -2.334  23.836  0.00  0.00    +0.027 C 
BRANCH  41  42
ATOM     42  C   UNL     1      10.254  -1.592  22.543  0.00  0.00    +0.037 C 
BRANCH  42  43
ATOM     43  C   UNL     1      10.206  -0.101  22.744  0.00  0.00    -0.047 A 
ATOM     44  C   UNL     1      10.757   0.468  23.898  0.00  0.00    +0.003 A 
ATOM     45  C   UNL     1      10.774   1.850  24.056  0.00  0.00    +0.000 A 
ATOM     46  C   UNL     1      10.232   2.673  23.069  0.00  0.00    +0.000 A 
ATOM     47  C   UNL     1       9.661   2.114  21.927  0.00  0.00    +0.000 A 
ATOM     48  C   UNL     1       9.648   0.730  21.764  0.00  0.00    +0.003 A 
ENDBRANCH  42  43
ENDBRANCH  41  42
ENDBRANCH   1  41
TORSDOF 17
ENDMDL
MODEL 3
REMARK VINA RESULT:      -6.6      2.852      8.998
REMARK  Name = 
REMARK  17 active torsions:
REMARK  status: ('A' for Active; 'I' for Inactive)
REMARK    1  A    between atoms: N_2  and  C_4
REMARK    2  A    between atoms: C_7  and  O_8
REMARK    3  A    between atoms: O_8  and  S_9
REMARK    4  A    between atoms: S_9  and  C_12
REMARK    5  A    between atoms: C_12  and  C_13
REMARK    6  A    between atoms: C_13  and  C_14
REMARK    7  A    between atoms: C_14  and  C_16
REMARK    8  A    between atoms: C_14  and  N_24
REMARK    9  A    between atoms: C_16  and  C_17
REMARK   10  A    between atoms: C_17  and  C_18
REMARK   11  A    between atoms: C_25  and  C_27
REMARK   12  A    between atoms: C_27  and  C_29
REMARK   13  A    between atoms: C_27  and  N_36
REMARK   14  A    between atoms: C_29  and  C_30
REMARK   15  A    between atoms: C_37  and  O_39
REMARK   16  A    between atoms: O_39  and  C_40
REMARK   17  A    between atoms: C_40  and  C_41
REMARK                            x       y       z     vdW  Elec       q    Type
REMARK                         _______ _______ _______ _____ _____    ______ ____
ROOT
ATOM      1  C   UNL     1       4.594  -2.797  27.760  0.00  0.00    +0.075 C 
ENDROOT
BRANCH   1   2
ATOM      2  N   UNL     1       5.604  -3.305  26.829  0.00  0.00    -0.311 N 
ATOM      3  H   UNL     1       5.593  -2.919  25.896  0.00  0.00    +0.149 HD
ATOM      4  C   UNL     1       6.494  -4.312  27.141  0.00  0.00    +0.234 C 
ATOM      5  O   UNL     1       6.508  -4.840  28.256  0.00  0.00    -0.274 OA
BRANCH   4   6
ATOM      6  C   UNL     1       7.477  -4.773  26.027  0.00  0.00    +0.166 C 
BRANCH   6   7
ATOM      7  N   UNL     1       8.091  -3.572  25.495  0.00  0.00    -0.269 N 
ATOM      8  H   UNL     1       7.638  -2.672  25.574  0.00  0.00    +0.153 HD
ATOM      9  C   UNL     1       9.342  -3.586  24.960  0.00  0.00    +0.401 C 
ATOM     10  O   UNL     1      10.032  -4.586  24.833  0.00  0.00    -0.226 OA
BRANCH   9  11
ATOM     11  O   UNL     1       9.704  -2.325  24.640  0.00  0.00    -0.446 OA
BRANCH  11  12
ATOM     12  C   UNL     1       9.293  -1.923  23.330  0.00  0.00    +0.269 C 
BRANCH  12  13
ATOM     13  C   UNL     1       9.693  -0.482  23.139  0.00  0.00    -0.010 A 
ATOM     14  C   UNL     1      10.399   0.188  24.149  0.00  0.00    +0.007 A 
ATOM     15  C   UNL     1      10.829   1.500  23.963  0.00  0.00    +0.000 A 
ATOM     16  C   UNL     1      10.556   2.157  22.765  0.00  0.00    +0.000 A 
ATOM     17  C   UNL     1       9.855   1.502  21.753  0.00  0.00    +0.000 A 
ATOM     18  C   UNL     1       9.428   0.186  21.936  0.00  0.00    +0.007 A 
ENDBRANCH  12  13
ENDBRANCH  11  12
ENDBRANCH   9  11
ENDBRANCH   6   7
BRANCH   6  19
ATOM     19  C   UNL     1       6.863  -5.687  24.949  0.00  0.00    +0.067 C 
BRANCH  19  20
ATOM     20  C   UNL     1       6.434  -5.077  23.632  0.00  0.00    -0.045 A 
ATOM     21  C   UNL     1       6.684  -5.800  22.454  0.00  0.00    +0.004 A 
ATOM     22  C   UNL     1       6.405  -5.254  21.202  0.00  0.00    +0.000 A 
ATOM     23  C   UNL     1       5.866  -3.976  21.110  0.00  0.00    +0.000 A 
ATOM     24  C   UNL     1       5.604  -3.248  22.269  0.00  0.00    +0.000 A 
ATOM     25  C   UNL     1       5.894  -3.790  23.525  0.00  0.00    +0.004 A 
ENDBRANCH  19  20
ENDBRANCH   6  19
ENDBRANCH   4   6
ENDBRANCH   1   2
BRANCH   1  26
ATOM     26  C   UNL     1       4.783  -1.269  27.865  0.00  0.00    +0.048 C 
BRANCH  26  27
ATOM     27  C   UNL     1       6.064  -0.685  27.260  0.00  0.00    +0.212 C 
BRANCH  27  28
ATOM     28  S   UNL     1       5.646   0.285  25.796  0.00  0.00    +0.121 S 
ATOM     29  O   UNL     1       5.256  -0.638  24.749  0.00  0.00    -0.137 OA
ATOM     30  O   UNL     1       4.781   1.374  26.210  0.00  0.00    -0.137 OA
BRANCH  28  31
ATOM     31  O   UNL     1       7.125   0.893  25.455  0.00  0.00    -0.346 OA
BRANCH  31  35
ATOM     32  C   UNL     1       7.712   4.509  23.436  0.00  0.00    +0.273 A 
ATOM     33  C   UNL     1       6.993   3.495  22.796  0.00  0.00    +0.088 A 
ATOM     34  C   UNL     1       6.777   2.275  23.451  0.00  0.00    +0.055 A 
ATOM     35  C   UNL     1       7.271   2.066  24.743  0.00  0.00    +0.157 A 
ATOM     36  C   UNL     1       8.000   3.084  25.372  0.00  0.00    +0.055 A 
ATOM     37  C   UNL     1       8.218   4.308  24.725  0.00  0.00    +0.088 A 
BRANCH  32  39
ATOM     38  O   UNL     1       7.185   6.076  21.806  0.00  0.00    -0.576 OA
ATOM     39  N   UNL     1       7.941   5.785  22.745  0.00  0.00    +0.080 N 
ATOM     40  O   UNL     1       8.873   6.498  23.142  0.00  0.00    +0.041 OA
ENDBRANCH  32  39
ENDBRANCH  31  35
ENDBRANCH  28  31
ENDBRANCH  27  28
ENDBRANCH  26  27
ENDBRANCH   1  26
BRANCH   1  41
ATOM     41  C   UNL     1       3.193  -3.192  27.267  0.00  0.00    +0.027 C 
BRANCH  41  42
ATOM     42  C   UNL     1       2.937  -4.706  27.304  0.00  0.00    +0.037 C 
BRANCH  42  43
ATOM     43  C   UNL     1       2.915  -5.284  25.914  0.00  0.00    -0.047 A 
ATOM     44  C   UNL     1       2.460  -4.508  24.841  0.00  0.00    +0.003 A 
ATOM     45  C   UNL     1       2.500  -5.016  23.546  0.00  0.00    +0.000 A 
ATOM     46  C   UNL     1       2.986  -6.303  23.314  0.00  0.00    +0.000 A 
ATOM     47  C   UNL     1       3.420  -7.089  24.380  0.00  0.00    +0.000 A 
ATOM     48  C   UNL     1       3.385  -6.582  25.677  0.00  0.00    +0.003 A 
ENDBRANCH  42  43
ENDBRANCH  41  42
ENDBRANCH   1  41
TORSDOF 17
ENDMDL
MODEL 4
REMARK VINA RESULT:      -6.6      2.557      4.331
REMARK  Name = 
REMARK  17 active torsions:
REMARK  status: ('A' for Active; 'I' for Inactive)
REMARK    1  A    between atoms: N_2  and  C_4
REMARK    2  A    between atoms: C_7  and  O_8
REMARK    3  A    between atoms: O_8  and  S_9
REMARK    4  A    between atoms: S_9  and  C_12
REMARK    5  A    between atoms: C_12  and  C_13
REMARK    6  A    between atoms: C_13  and  C_14
REMARK    7  A    between atoms: C_14  and  C_16
REMARK    8  A    between atoms: C_14  and  N_24
REMARK    9  A    between atoms: C_16  and  C_17
REMARK   10  A    between atoms: C_17  and  C_18
REMARK   11  A    between atoms: C_25  and  C_27
REMARK   12  A    between atoms: C_27  and  C_29
REMARK   13  A    between atoms: C_27  and  N_36
REMARK   14  A    between atoms: C_29  and  C_30
REMARK   15  A    between atoms: C_37  and  O_39
REMARK   16  A    between atoms: O_39  and  C_40
REMARK   17  A    between atoms: C_40  and  C_41
REMARK                            x       y       z     vdW  Elec       q    Type
REMARK                         _______ _______ _______ _____ _____    ______ ____
ROOT
ATOM      1  C   UNL     1       9.427   1.067  22.910  0.00  0.00    +0.075 C 
ENDROOT
BRANCH   1   2
ATOM      2  N   UNL     1       8.010   1.308  23.189  0.00  0.00    -0.311 N 
ATOM      3  H   UNL     1       7.369   1.175  22.420  0.00  0.00    +0.149 HD
ATOM      4  C   UNL     1       7.538   1.768  24.401  0.00  0.00    +0.234 C 
ATOM      5  O   UNL     1       8.296   1.985  25.350  0.00  0.00    -0.274 OA
BRANCH   4   6
ATOM      6  C   UNL     1       6.008   2.018  24.526  0.00  0.00    +0.166 C 
BRANCH   6   7
ATOM      7  N   UNL     1       5.381   0.714  24.611  0.00  0.00    -0.269 N 
ATOM      8  H   UNL     1       5.133   0.197  23.778  0.00  0.00    +0.153 HD
ATOM      9  C   UNL     1       5.189   0.088  25.803  0.00  0.00    +0.401 C 
ATOM     10  O   UNL     1       5.473   0.566  26.892  0.00  0.00    -0.226 OA
BRANCH   9  11
ATOM     11  O   UNL     1       4.684  -1.145  25.584  0.00  0.00    -0.446 OA
BRANCH  11  12
ATOM     12  C   UNL     1       4.446  -1.891  26.781  0.00  0.00    +0.269 C 
BRANCH  12  13
ATOM     13  C   UNL     1       5.193  -3.196  26.672  0.00  0.00    -0.010 A 
ATOM     14  C   UNL     1       6.582  -3.193  26.476  0.00  0.00    +0.007 A 
ATOM     15  C   UNL     1       7.295  -4.390  26.436  0.00  0.00    +0.000 A 
ATOM     16  C   UNL     1       6.626  -5.602  26.586  0.00  0.00    +0.000 A 
ATOM     17  C   UNL     1       5.245  -5.618  26.781  0.00  0.00    +0.000 A 
ATOM     18  C   UNL     1       4.530  -4.421  26.828  0.00  0.00    +0.007 A 
ENDBRANCH  12  13
ENDBRANCH  11  12
ENDBRANCH   9  11
ENDBRANCH   6   7
BRANCH   6  19
ATOM     19  C   UNL     1       5.402   2.931  23.442  0.00  0.00    +0.067 C 
BRANCH  19  20
ATOM     20  C   UNL     1       6.018   4.293  23.209  0.00  0.00    -0.045 A 
ATOM     21  C   UNL     1       5.669   5.337  24.082  0.00  0.00    +0.004 A 
ATOM     22  C   UNL     1       6.123   6.638  23.865  0.00  0.00    +0.000 A 
ATOM     23  C   UNL     1       6.936   6.914  22.773  0.00  0.00    +0.000 A 
ATOM     24  C   UNL     1       7.300   5.888  21.901  0.00  0.00    +0.000 A 
ATOM     25  C   UNL     1       6.837   4.585  22.111  0.00  0.00    +0.004 A 
ENDBRANCH  19  20
ENDBRANCH   6  19
ENDBRANCH   4   6
ENDBRANCH   1   2
BRANCH   1  26
ATOM     26  C   UNL     1       9.517  -0.161  21.978  0.00  0.00    +0.048 C 
BRANCH  26  27
ATOM     27  C   UNL     1      10.273  -1.383  22.511  0.00  0.00    +0.212 C 
BRANCH  27  28
ATOM     28  S   UNL     1       9.151  -2.398  23.493  0.00  0.00    +0.121 S 
ATOM     29  O   UNL     1       9.918  -3.493  24.054  0.00  0.00    -0.137 OA
ATOM     30  O   UNL     1       8.362  -1.515  24.331  0.00  0.00    -0.137 OA
BRANCH  28  31
ATOM     31  O   UNL     1       8.197  -2.969  22.293  0.00  0.00    -0.346 OA
BRANCH  31  35
ATOM     32  C   UNL     1       4.916  -5.415  23.155  0.00  0.00    +0.273 A 
ATOM     33  C   UNL     1       4.723  -4.031  23.106  0.00  0.00    +0.088 A 
ATOM     34  C   UNL     1       5.805  -3.188  22.814  0.00  0.00    +0.055 A 
ATOM     35  C   UNL     1       7.074  -3.722  22.567  0.00  0.00    +0.157 A 
ATOM     36  C   UNL     1       7.260  -5.109  22.630  0.00  0.00    +0.055 A 
ATOM     37  C   UNL     1       6.184  -5.959  22.918  0.00  0.00    +0.088 A 
BRANCH  32  39
ATOM     38  O   UNL     1       2.655  -5.939  23.092  0.00  0.00    -0.576 OA
ATOM     39  N   UNL     1       3.782  -6.297  23.466  0.00  0.00    +0.080 N 
ATOM     40  O   UNL     1       4.018  -7.347  24.079  0.00  0.00    +0.041 OA
ENDBRANCH  32  39
ENDBRANCH  31  35
ENDBRANCH  28  31
ENDBRANCH  27  28
ENDBRANCH  26  27
ENDBRANCH   1  26
BRANCH   1  41
ATOM     41  C   UNL     1      10.054   2.328  22.294  0.00  0.00    +0.027 C 
BRANCH  41  42
ATOM     42  C   UNL     1      11.331   2.788  23.014  0.00  0.00    +0.037 C 
BRANCH  42  43
ATOM     43  C   UNL     1      11.161   4.171  23.582  0.00  0.00    -0.047 A 
ATOM     44  C   UNL     1       9.918   4.574  24.084  0.00  0.00    +0.003 A 
ATOM     45  C   UNL     1       9.774   5.828  24.670  0.00  0.00    +0.000 A 
ATOM     46  C   UNL     1      10.867   6.692  24.750  0.00  0.00    +0.000 A 
ATOM     47  C   UNL     1      12.102   6.307  24.232  0.00  0.00    +0.000 A 
ATOM     48  C   UNL     1      12.250   5.050  23.649  0.00  0.00    +0.003 A 
ENDBRANCH  42  43
ENDBRANCH  41  42
ENDBRANCH   1  41
TORSDOF 17
ENDMDL
MODEL 5
REMARK VINA RESULT:      -6.5      2.038      5.786
REMARK  Name = 
REMARK  17 active torsions:
REMARK  status: ('A' for Active; 'I' for Inactive)
REMARK    1  A    between atoms: N_2  and  C_4
REMARK    2  A    between atoms: C_7  and  O_8
REMARK    3  A    between atoms: O_8  and  S_9
REMARK    4  A    between atoms: S_9  and  C_12
REMARK    5  A    between atoms: C_12  and  C_13
REMARK    6  A    between atoms: C_13  and  C_14
REMARK    7  A    between atoms: C_14  and  C_16
REMARK    8  A    between atoms: C_14  and  N_24
REMARK    9  A    between atoms: C_16  and  C_17
REMARK   10  A    between atoms: C_17  and  C_18
REMARK   11  A    between atoms: C_25  and  C_27
REMARK   12  A    between atoms: C_27  and  C_29
REMARK   13  A    between atoms: C_27  and  N_36
REMARK   14  A    between atoms: C_29  and  C_30
REMARK   15  A    between atoms: C_37  and  O_39
REMARK   16  A    between atoms: O_39  and  C_40
REMARK   17  A    between atoms: C_40  and  C_41
REMARK                            x       y       z     vdW  Elec       q    Type
REMARK                         _______ _______ _______ _____ _____    ______ ____
ROOT
ATOM      1  C   UNL     1       8.666  -3.471  24.855  0.00  0.00    +0.075 C 
ENDROOT
BRANCH   1   2
ATOM      2  N   UNL     1       7.431  -2.781  25.232  0.00  0.00    -0.311 N 
ATOM      3  H   UNL     1       7.192  -1.959  24.697  0.00  0.00    +0.149 HD
ATOM      4  C   UNL     1       6.645  -3.151  26.305  0.00  0.00    +0.234 C 
ATOM      5  O   UNL     1       6.930  -4.122  27.010  0.00  0.00    -0.274 OA
BRANCH   4   6
ATOM      6  C   UNL     1       5.387  -2.287  26.604  0.00  0.00    +0.166 C 
BRANCH   6   7
ATOM      7  N   UNL     1       5.867  -0.976  26.992  0.00  0.00    -0.269 N 
ATOM      8  H   UNL     1       6.808  -0.844  27.337  0.00  0.00    +0.153 HD
ATOM      9  C   UNL     1       5.114   0.143  26.818  0.00  0.00    +0.401 C 
ATOM     10  O   UNL     1       3.974   0.151  26.375  0.00  0.00    -0.226 OA
BRANCH   9  11
ATOM     11  O   UNL     1       5.838   1.228  27.167  0.00  0.00    -0.446 OA
BRANCH  11  12
ATOM     12  C   UNL     1       7.172   1.220  26.652  0.00  0.00    +0.269 C 
BRANCH  12  13
ATOM     13  C   UNL     1       7.240   2.213  25.519  0.00  0.00    -0.010 A 
ATOM     14  C   UNL     1       6.596   1.933  24.305  0.00  0.00    +0.007 A 
ATOM     15  C   UNL     1       6.598   2.866  23.270  0.00  0.00    +0.000 A 
ATOM     16  C   UNL     1       7.247   4.087  23.437  0.00  0.00    +0.000 A 
ATOM     17  C   UNL     1       7.891   4.377  24.640  0.00  0.00    +0.000 A 
ATOM     18  C   UNL     1       7.885   3.446  25.679  0.00  0.00    +0.007 A 
ENDBRANCH  12  13
ENDBRANCH  11  12
ENDBRANCH   9  11
ENDBRANCH   6   7
BRANCH   6  19
ATOM     19  C   UNL     1       4.390  -2.906  27.603  0.00  0.00    +0.067 C 
BRANCH  19  20
ATOM     20  C   UNL     1       3.166  -3.616  27.067  0.00  0.00    -0.045 A 
ATOM     21  C   UNL     1       2.695  -3.254  25.794  0.00  0.00    +0.004 A 
ATOM     22  C   UNL     1       1.516  -3.797  25.283  0.00  0.00    +0.000 A 
ATOM     23  C   UNL     1       0.794  -4.715  26.036  0.00  0.00    +0.000 A 
ATOM     24  C   UNL     1       1.252  -5.092  27.298  0.00  0.00    +0.000 A 
ATOM     25  C   UNL     1       2.428  -4.540  27.817  0.00  0.00    +0.004 A 
ENDBRANCH  19  20
ENDBRANCH   6  19
ENDBRANCH   4   6
ENDBRANCH   1   2
BRANCH   1  26
ATOM     26  C   UNL     1       8.302  -4.533  23.795  0.00  0.00    +0.048 C 
BRANCH  26  27
ATOM     27  C   UNL     1       7.817  -4.018  22.436  0.00  0.00    +0.212 C 
BRANCH  27  28
ATOM     28  S   UNL     1       6.299  -4.879  21.978  0.00  0.00    +0.121 S 
ATOM     29  O   UNL     1       5.638  -4.098  20.952  0.00  0.00    -0.137 OA
ATOM     30  O   UNL     1       6.618  -6.280  21.779  0.00  0.00    -0.137 OA
BRANCH  28  31
ATOM     31  O   UNL     1       5.478  -4.724  23.384  0.00  0.00    -0.346 OA
BRANCH  31  35
ATOM     32  C   UNL     1       2.829  -7.625  24.821  0.00  0.00    +0.273 A 
ATOM     33  C   UNL     1       2.551  -7.016  23.594  0.00  0.00    +0.088 A 
ATOM     34  C   UNL     1       3.425  -6.044  23.086  0.00  0.00    +0.055 A 
ATOM     35  C   UNL     1       4.575  -5.683  23.796  0.00  0.00    +0.157 A 
ATOM     36  C   UNL     1       4.839  -6.291  25.031  0.00  0.00    +0.055 A 
ATOM     37  C   UNL     1       3.973  -7.266  25.544  0.00  0.00    +0.088 A 
BRANCH  32  39
ATOM     38  O   UNL     1       1.087  -8.279  26.208  0.00  0.00    -0.576 OA
ATOM     39  N   UNL     1       1.910  -8.640  25.354  0.00  0.00    +0.080 N 
ATOM     40  O   UNL     1       2.007  -9.795  24.916  0.00  0.00    +0.041 OA
ENDBRANCH  32  39
ENDBRANCH  31  35
ENDBRANCH  28  31
ENDBRANCH  27  28
ENDBRANCH  26  27
ENDBRANCH   1  26
BRANCH   1  41
ATOM     41  C   UNL     1       9.694  -2.449  24.346  0.00  0.00    +0.027 C 
BRANCH  41  42
ATOM     42  C   UNL     1       9.515  -1.049  24.954  0.00  0.00    +0.037 C 
BRANCH  42  43
ATOM     43  C   UNL     1       9.650   0.018  23.900  0.00  0.00    -0.047 A 
ATOM     44  C   UNL     1      10.352   1.195  24.182  0.00  0.00    +0.003 A 
ATOM     45  C   UNL     1      10.534   2.154  23.190  0.00  0.00    +0.000 A 
ATOM     46  C   UNL     1      10.009   1.948  21.914  0.00  0.00    +0.000 A 
ATOM     47  C   UNL     1       9.289   0.789  21.632  0.00  0.00    +0.000 A 
ATOM     48  C   UNL     1       9.110  -0.175  22.622  0.00  0.00    +0.003 A 
ENDBRANCH  42  43
ENDBRANCH  41  42
ENDBRANCH   1  41
TORSDOF 17
ENDMDL
MODEL 6
REMARK VINA RESULT:      -6.3      2.290      6.156
REMARK  Name = 
REMARK  17 active torsions:
REMARK  status: ('A' for Active; 'I' for Inactive)
REMARK    1  A    between atoms: N_2  and  C_4
REMARK    2  A    between atoms: C_7  and  O_8
REMARK    3  A    between atoms: O_8  and  S_9
REMARK    4  A    between atoms: S_9  and  C_12
REMARK    5  A    between atoms: C_12  and  C_13
REMARK    6  A    between atoms: C_13  and  C_14
REMARK    7  A    between atoms: C_14  and  C_16
REMARK    8  A    between atoms: C_14  and  N_24
REMARK    9  A    between atoms: C_16  and  C_17
REMARK   10  A    between atoms: C_17  and  C_18
REMARK   11  A    between atoms: C_25  and  C_27
REMARK   12  A    between atoms: C_27  and  C_29
REMARK   13  A    between atoms: C_27  and  N_36
REMARK   14  A    between atoms: C_29  and  C_30
REMARK   15  A    between atoms: C_37  and  O_39
REMARK   16  A    between atoms: O_39  and  C_40
REMARK   17  A    between atoms: C_40  and  C_41
REMARK                            x       y       z     vdW  Elec       q    Type
REMARK                         _______ _______ _______ _____ _____    ______ ____
ROOT
ATOM      1  C   UNL     1       8.581  -3.371  25.146  0.00  0.00    +0.075 C 
ENDROOT
BRANCH   1   2
ATOM      2  N   UNL     1       7.212  -3.324  25.664  0.00  0.00    -0.311 N 
ATOM      3  H   UNL     1       6.577  -2.689  25.203  0.00  0.00    +0.149 HD
ATOM      4  C   UNL     1       6.789  -4.032  26.770  0.00  0.00    +0.234 C 
ATOM      5  O   UNL     1       7.550  -4.783  27.387  0.00  0.00    -0.274 OA
BRANCH   4   6
ATOM      6  C   UNL     1       5.314  -3.840  27.224  0.00  0.00    +0.166 C 
BRANCH   6   7
ATOM      7  N   UNL     1       5.038  -2.419  27.145  0.00  0.00    -0.269 N 
ATOM      8  H   UNL     1       5.578  -1.750  27.677  0.00  0.00    +0.153 HD
ATOM      9  C   UNL     1       4.114  -1.917  26.283  0.00  0.00    +0.401 C 
ATOM     10  O   UNL     1       3.411  -2.593  25.546  0.00  0.00    -0.226 OA
BRANCH   9  11
ATOM     11  O   UNL     1       4.134  -0.568  26.344  0.00  0.00    -0.446 OA
BRANCH  11  12
ATOM     12  C   UNL     1       5.445  -0.017  26.493  0.00  0.00    +0.269 C 
BRANCH  12  13
ATOM     13  C   UNL     1       5.814   0.663  25.199  0.00  0.00    -0.010 A 
ATOM     14  C   UNL     1       6.282  -0.098  24.117  0.00  0.00    +0.007 A 
ATOM     15  C   UNL     1       6.569   0.509  22.896  0.00  0.00    +0.000 A 
ATOM     16  C   UNL     1       6.395   1.883  22.744  0.00  0.00    +0.000 A 
ATOM     17  C   UNL     1       5.932   2.650  23.813  0.00  0.00    +0.000 A 
ATOM     18  C   UNL     1       5.638   2.043  25.035  0.00  0.00    +0.007 A 
ENDBRANCH  12  13
ENDBRANCH  11  12
ENDBRANCH   9  11
ENDBRANCH   6   7
BRANCH   6  19
ATOM     19  C   UNL     1       4.961  -4.468  28.586  0.00  0.00    +0.067 C 
BRANCH  19  20
ATOM     20  C   UNL     1       3.756  -5.378  28.680  0.00  0.00    -0.045 A 
ATOM     21  C   UNL     1       3.836  -6.499  29.523  0.00  0.00    +0.004 A 
ATOM     22  C   UNL     1       2.800  -7.431  29.581  0.00  0.00    +0.000 A 
ATOM     23  C   UNL     1       1.666  -7.253  28.797  0.00  0.00    +0.000 A 
ATOM     24  C   UNL     1       1.566  -6.142  27.961  0.00  0.00    +0.000 A 
ATOM     25  C   UNL     1       2.609  -5.212  27.894  0.00  0.00    +0.004 A 
ENDBRANCH  19  20
ENDBRANCH   6  19
ENDBRANCH   4   6
ENDBRANCH   1   2
BRANCH   1  26
ATOM     26  C   UNL     1       8.524  -3.984  23.731  0.00  0.00    +0.048 C 
BRANCH  26  27
ATOM     27  C   UNL     1       7.461  -3.428  22.776  0.00  0.00    +0.212 C 
BRANCH  27  28
ATOM     28  S   UNL     1       6.317  -4.747  22.321  0.00  0.00    +0.121 S 
ATOM     29  O   UNL     1       5.582  -4.313  21.151  0.00  0.00    -0.137 OA
ATOM     30  O   UNL     1       7.047  -6.001  22.339  0.00  0.00    -0.137 OA
BRANCH  28  31
ATOM     31  O   UNL     1       5.331  -4.698  23.625  0.00  0.00    -0.346 OA
BRANCH  31  35
ATOM     32  C   UNL     1       2.439  -7.623  24.386  0.00  0.00    +0.273 A 
ATOM     33  C   UNL     1       2.211  -6.710  23.352  0.00  0.00    +0.088 A 
ATOM     34  C   UNL     1       3.166  -5.723  23.072  0.00  0.00    +0.055 A 
ATOM     35  C   UNL     1       4.348  -5.647  23.816  0.00  0.00    +0.157 A 
ATOM     36  C   UNL     1       4.563  -6.560  24.858  0.00  0.00    +0.055 A 
ATOM     37  C   UNL     1       3.615  -7.552  25.143  0.00  0.00    +0.088 A 
BRANCH  32  39
ATOM     38  O   UNL     1       0.780  -9.109  23.731  0.00  0.00    -0.576 OA
ATOM     39  N   UNL     1       1.435  -8.654  24.681  0.00  0.00    +0.080 N 
ATOM     40  O   UNL     1       1.303  -9.012  25.860  0.00  0.00    +0.041 OA
ENDBRANCH  32  39
ENDBRANCH  31  35
ENDBRANCH  28  31
ENDBRANCH  27  28
ENDBRANCH  26  27
ENDBRANCH   1  26
BRANCH   1  41
ATOM     41  C   UNL     1       9.187  -1.958  25.159  0.00  0.00    +0.027 C 
BRANCH  41  42
ATOM     42  C   UNL     1      10.013  -1.637  23.903  0.00  0.00    +0.037 C 
BRANCH  42  43
ATOM     43  C   UNL     1      10.010  -0.159  23.620  0.00  0.00    -0.047 A 
ATOM     44  C   UNL     1      10.119   0.301  22.302  0.00  0.00    +0.003 A 
ATOM     45  C   UNL     1      10.050   1.664  22.030  0.00  0.00    +0.000 A 
ATOM     46  C   UNL     1       9.883   2.577  23.072  0.00  0.00    +0.000 A 
ATOM     47  C   UNL     1       9.797   2.128  24.389  0.00  0.00    +0.000 A 
ATOM     48  C   UNL     1       9.860   0.764  24.663  0.00  0.00    +0.003 A 
ENDBRANCH  42  43
ENDBRANCH  41  42
ENDBRANCH   1  41
TORSDOF 17
ENDMDL
MODEL 7
REMARK VINA RESULT:      -6.3      2.105      3.344
REMARK  Name = 
REMARK  17 active torsions:
REMARK  status: ('A' for Active; 'I' for Inactive)
REMARK    1  A    between atoms: N_2  and  C_4
REMARK    2  A    between atoms: C_7  and  O_8
REMARK    3  A    between atoms: O_8  and  S_9
REMARK    4  A    between atoms: S_9  and  C_12
REMARK    5  A    between atoms: C_12  and  C_13
REMARK    6  A    between atoms: C_13  and  C_14
REMARK    7  A    between atoms: C_14  and  C_16
REMARK    8  A    between atoms: C_14  and  N_24
REMARK    9  A    between atoms: C_16  and  C_17
REMARK   10  A    between atoms: C_17  and  C_18
REMARK   11  A    between atoms: C_25  and  C_27
REMARK   12  A    between atoms: C_27  and  C_29
REMARK   13  A    between atoms: C_27  and  N_36
REMARK   14  A    between atoms: C_29  and  C_30
REMARK   15  A    between atoms: C_37  and  O_39
REMARK   16  A    between atoms: O_39  and  C_40
REMARK   17  A    between atoms: C_40  and  C_41
REMARK                            x       y       z     vdW  Elec       q    Type
REMARK                         _______ _______ _______ _____ _____    ______ ____
ROOT
ATOM      1  C   UNL     1       9.861  -0.850  24.184  0.00  0.00    +0.075 C 
ENDROOT
BRANCH   1   2
ATOM      2  N   UNL     1       8.501  -0.614  24.675  0.00  0.00    -0.311 N 
ATOM      3  H   UNL     1       7.821  -0.313  23.992  0.00  0.00    +0.149 HD
ATOM      4  C   UNL     1       8.141  -0.709  26.003  0.00  0.00    +0.234 C 
ATOM      5  O   UNL     1       8.955  -1.031  26.872  0.00  0.00    -0.274 OA
BRANCH   4   6
ATOM      6  C   UNL     1       6.665  -0.383  26.372  0.00  0.00    +0.166 C 
BRANCH   6   7
ATOM      7  N   UNL     1       5.971  -1.653  26.463  0.00  0.00    -0.269 N 
ATOM      8  H   UNL     1       6.182  -2.412  25.830  0.00  0.00    +0.153 HD
ATOM      9  C   UNL     1       5.083  -1.912  27.459  0.00  0.00    +0.401 C 
ATOM     10  O   UNL     1       4.754  -1.111  28.323  0.00  0.00    -0.226 OA
BRANCH   9  11
ATOM     11  O   UNL     1       4.666  -3.193  27.364  0.00  0.00    -0.446 OA
BRANCH  11  12
ATOM     12  C   UNL     1       3.451  -3.457  28.069  0.00  0.00    +0.269 C 
BRANCH  12  13
ATOM     13  C   UNL     1       2.448  -4.001  27.083  0.00  0.00    -0.010 A 
ATOM     14  C   UNL     1       2.226  -3.331  25.870  0.00  0.00    +0.007 A 
ATOM     15  C   UNL     1       1.349  -3.853  24.922  0.00  0.00    +0.000 A 
ATOM     16  C   UNL     1       0.682  -5.049  25.177  0.00  0.00    +0.000 A 
ATOM     17  C   UNL     1       0.894  -5.724  26.379  0.00  0.00    +0.000 A 
ATOM     18  C   UNL     1       1.777  -5.206  27.328  0.00  0.00    +0.007 A 
ENDBRANCH  12  13
ENDBRANCH  11  12
ENDBRANCH   9  11
ENDBRANCH   6   7
BRANCH   6  19
ATOM     19  C   UNL     1       5.972   0.641  25.452  0.00  0.00    +0.067 C 
BRANCH  19  20
ATOM     20  C   UNL     1       6.067   2.111  25.796  0.00  0.00    -0.045 A 
ATOM     21  C   UNL     1       5.121   2.986  25.233  0.00  0.00    +0.004 A 
ATOM     22  C   UNL     1       5.211   4.364  25.429  0.00  0.00    +0.000 A 
ATOM     23  C   UNL     1       6.245   4.888  26.195  0.00  0.00    +0.000 A 
ATOM     24  C   UNL     1       7.186   4.034  26.768  0.00  0.00    +0.000 A 
ATOM     25  C   UNL     1       7.105   2.652  26.563  0.00  0.00    +0.004 A 
ENDBRANCH  19  20
ENDBRANCH   6  19
ENDBRANCH   4   6
ENDBRANCH   1   2
BRANCH   1  26
ATOM     26  C   UNL     1       9.849  -2.178  23.397  0.00  0.00    +0.048 C 
BRANCH  26  27
ATOM     27  C   UNL     1       8.479  -2.809  23.122  0.00  0.00    +0.212 C 
BRANCH  27  28
ATOM     28  S   UNL     1       8.254  -4.239  24.200  0.00  0.00    +0.121 S 
ATOM     29  O   UNL     1       8.288  -5.428  23.374  0.00  0.00    -0.137 OA
ATOM     30  O   UNL     1       9.131  -4.083  25.345  0.00  0.00    -0.137 OA
BRANCH  28  31
ATOM     31  O   UNL     1       6.715  -3.962  24.681  0.00  0.00    -0.346 OA
BRANCH  31  35
ATOM     32  C   UNL     1       3.696  -6.807  24.151  0.00  0.00    +0.273 A 
ATOM     33  C   UNL     1       3.859  -5.817  23.177  0.00  0.00    +0.088 A 
ATOM     34  C   UNL     1       4.867  -4.854  23.327  0.00  0.00    +0.055 A 
ATOM     35  C   UNL     1       5.713  -4.879  24.441  0.00  0.00    +0.157 A 
ATOM     36  C   UNL     1       5.534  -5.869  25.417  0.00  0.00    +0.055 A 
ATOM     37  C   UNL     1       4.531  -6.837  25.274  0.00  0.00    +0.088 A 
BRANCH  32  39
ATOM     38  O   UNL     1       2.630  -8.771  24.781  0.00  0.00    -0.576 OA
ATOM     39  N   UNL     1       2.636  -7.813  23.994  0.00  0.00    +0.080 N 
ATOM     40  O   UNL     1       1.807  -7.643  23.088  0.00  0.00    +0.041 OA
ENDBRANCH  32  39
ENDBRANCH  31  35
ENDBRANCH  28  31
ENDBRANCH  27  28
ENDBRANCH  26  27
ENDBRANCH   1  26
BRANCH   1  41
ATOM     41  C   UNL     1      10.315   0.344  23.330  0.00  0.00    +0.027 C 
BRANCH  41  42
ATOM     42  C   UNL     1      10.317   1.677  24.095  0.00  0.00    +0.037 C 
BRANCH  42  43
ATOM     43  C   UNL     1       9.318   2.637  23.508  0.00  0.00    -0.047 A 
ATOM     44  C   UNL     1       8.287   2.161  22.688  0.00  0.00    +0.003 A 
ATOM     45  C   UNL     1       7.324   3.037  22.197  0.00  0.00    +0.000 A 
ATOM     46  C   UNL     1       7.388   4.395  22.514  0.00  0.00    +0.000 A 
ATOM     47  C   UNL     1       8.423   4.880  23.310  0.00  0.00    +0.000 A 
ATOM     48  C   UNL     1       9.386   4.004  23.807  0.00  0.00    +0.003 A 
ENDBRANCH  42  43
ENDBRANCH  41  42
ENDBRANCH   1  41
TORSDOF 17
ENDMDL
MODEL 8
REMARK VINA RESULT:      -6.3      3.475      8.482
REMARK  Name = 
REMARK  17 active torsions:
REMARK  status: ('A' for Active; 'I' for Inactive)
REMARK    1  A    between atoms: N_2  and  C_4
REMARK    2  A    between atoms: C_7  and  O_8
REMARK    3  A    between atoms: O_8  and  S_9
REMARK    4  A    between atoms: S_9  and  C_12
REMARK    5  A    between atoms: C_12  and  C_13
REMARK    6  A    between atoms: C_13  and  C_14
REMARK    7  A    between atoms: C_14  and  C_16
REMARK    8  A    between atoms: C_14  and  N_24
REMARK    9  A    between atoms: C_16  and  C_17
REMARK   10  A    between atoms: C_17  and  C_18
REMARK   11  A    between atoms: C_25  and  C_27
REMARK   12  A    between atoms: C_27  and  C_29
REMARK   13  A    between atoms: C_27  and  N_36
REMARK   14  A    between atoms: C_29  and  C_30
REMARK   15  A    between atoms: C_37  and  O_39
REMARK   16  A    between atoms: O_39  and  C_40
REMARK   17  A    between atoms: C_40  and  C_41
REMARK                            x       y       z     vdW  Elec       q    Type
REMARK                         _______ _______ _______ _____ _____    ______ ____
ROOT
ATOM      1  C   UNL     1       5.471   1.058  25.361  0.00  0.00    +0.075 C 
ENDROOT
BRANCH   1   2
ATOM      2  N   UNL     1       5.830  -0.274  25.854  0.00  0.00    -0.311 N 
ATOM      3  H   UNL     1       6.796  -0.548  25.751  0.00  0.00    +0.149 HD
ATOM      4  C   UNL     1       4.915  -1.171  26.366  0.00  0.00    +0.234 C 
ATOM      5  O   UNL     1       3.718  -0.888  26.466  0.00  0.00    -0.274 OA
BRANCH   4   6
ATOM      6  C   UNL     1       5.447  -2.565  26.807  0.00  0.00    +0.166 C 
BRANCH   6   7
ATOM      7  N   UNL     1       6.572  -2.869  25.945  0.00  0.00    -0.269 N 
ATOM      8  H   UNL     1       6.712  -2.378  25.072  0.00  0.00    +0.153 HD
ATOM      9  C   UNL     1       7.538  -3.753  26.315  0.00  0.00    +0.401 C 
ATOM     10  O   UNL     1       7.531  -4.393  27.356  0.00  0.00    -0.226 OA
BRANCH   9  11
ATOM     11  O   UNL     1       8.510  -3.769  25.378  0.00  0.00    -0.446 OA
BRANCH  11  12
ATOM     12  C   UNL     1       8.600  -5.004  24.663  0.00  0.00    +0.269 C 
BRANCH  12  13
ATOM     13  C   UNL     1       7.779  -4.874  23.404  0.00  0.00    -0.010 A 
ATOM     14  C   UNL     1       7.487  -6.014  22.640  0.00  0.00    +0.007 A 
ATOM     15  C   UNL     1       6.679  -5.920  21.509  0.00  0.00    +0.000 A 
ATOM     16  C   UNL     1       6.158  -4.685  21.127  0.00  0.00    +0.000 A 
ATOM     17  C   UNL     1       6.443  -3.545  21.879  0.00  0.00    +0.000 A 
ATOM     18  C   UNL     1       7.247  -3.638  23.016  0.00  0.00    +0.007 A 
ENDBRANCH  12  13
ENDBRANCH  11  12
ENDBRANCH   9  11
ENDBRANCH   6   7
BRANCH   6  19
ATOM     19  C   UNL     1       4.386  -3.681  26.864  0.00  0.00    +0.067 C 
BRANCH  19  20
ATOM     20  C   UNL     1       4.222  -4.593  25.668  0.00  0.00    -0.045 A 
ATOM     21  C   UNL     1       3.500  -4.112  24.562  0.00  0.00    +0.004 A 
ATOM     22  C   UNL     1       3.227  -4.934  23.469  0.00  0.00    +0.000 A 
ATOM     23  C   UNL     1       3.676  -6.249  23.464  0.00  0.00    +0.000 A 
ATOM     24  C   UNL     1       4.401  -6.740  24.549  0.00  0.00    +0.000 A 
ATOM     25  C   UNL     1       4.666  -5.921  25.651  0.00  0.00    +0.004 A 
ENDBRANCH  19  20
ENDBRANCH   6  19
ENDBRANCH   4   6
ENDBRANCH   1   2
BRANCH   1  26
ATOM     26  C   UNL     1       6.043   2.093  26.354  0.00  0.00    +0.048 C 
BRANCH  26  27
ATOM     27  C   UNL     1       5.446   3.504  26.306  0.00  0.00    +0.212 C 
BRANCH  27  28
ATOM     28  S   UNL     1       6.773   4.705  26.075  0.00  0.00    +0.121 S 
ATOM     29  O   UNL     1       6.164   6.006  25.879  0.00  0.00    -0.137 OA
ATOM     30  O   UNL     1       7.769   4.479  27.105  0.00  0.00    -0.137 OA
BRANCH  28  31
ATOM     31  O   UNL     1       7.365   4.168  24.648  0.00  0.00    -0.346 OA
BRANCH  31  35
ATOM     32  C   UNL     1      11.287   4.868  23.373  0.00  0.00    +0.273 A 
ATOM     33  C   UNL     1      10.489   5.965  23.714  0.00  0.00    +0.088 A 
ATOM     34  C   UNL     1       9.173   5.759  24.150  0.00  0.00    +0.055 A 
ATOM     35  C   UNL     1       8.653   4.464  24.251  0.00  0.00    +0.157 A 
ATOM     36  C   UNL     1       9.456   3.372  23.895  0.00  0.00    +0.055 A 
ATOM     37  C   UNL     1      10.774   3.569  23.462  0.00  0.00    +0.088 A 
BRANCH  32  39
ATOM     38  O   UNL     1      13.584   4.849  23.710  0.00  0.00    -0.576 OA
ATOM     39  N   UNL     1      12.665   5.087  22.912  0.00  0.00    +0.080 N 
ATOM     40  O   UNL     1      12.829   5.492  21.752  0.00  0.00    +0.041 OA
ENDBRANCH  32  39
ENDBRANCH  31  35
ENDBRANCH  28  31
ENDBRANCH  27  28
ENDBRANCH  26  27
ENDBRANCH   1  26
BRANCH   1  41
ATOM     41  C   UNL     1       6.009   1.242  23.934  0.00  0.00    +0.027 C 
BRANCH  41  42
ATOM     42  C   UNL     1       6.525  -0.061  23.303  0.00  0.00    +0.037 C 
BRANCH  42  43
ATOM     43  C   UNL     1       8.029  -0.086  23.270  0.00  0.00    -0.047 A 
ATOM     44  C   UNL     1       8.753  -0.279  24.452  0.00  0.00    +0.003 A 
ATOM     45  C   UNL     1      10.141  -0.368  24.416  0.00  0.00    +0.000 A 
ATOM     46  C   UNL     1      10.816  -0.257  23.201  0.00  0.00    +0.000 A 
ATOM     47  C   UNL     1      10.106  -0.042  22.022  0.00  0.00    +0.000 A 
ATOM     48  C   UNL     1       8.715   0.043  22.055  0.00  0.00    +0.003 A 
ENDBRANCH  42  43
ENDBRANCH  41  42
ENDBRANCH   1  41
TORSDOF 17
ENDMDL
MODEL 9
REMARK VINA RESULT:      -6.2      1.944      3.096
REMARK  Name = 
REMARK  17 active torsions:
REMARK  status: ('A' for Active; 'I' for Inactive)
REMARK    1  A    between atoms: N_2  and  C_4
REMARK    2  A    between atoms: C_7  and  O_8
REMARK    3  A    between atoms: O_8  and  S_9
REMARK    4  A    between atoms: S_9  and  C_12
REMARK    5  A    between atoms: C_12  and  C_13
REMARK    6  A    between atoms: C_13  and  C_14
REMARK    7  A    between atoms: C_14  and  C_16
REMARK    8  A    between atoms: C_14  and  N_24
REMARK    9  A    between atoms: C_16  and  C_17
REMARK   10  A    between atoms: C_17  and  C_18
REMARK   11  A    between atoms: C_25  and  C_27
REMARK   12  A    between atoms: C_27  and  C_29
REMARK   13  A    between atoms: C_27  and  N_36
REMARK   14  A    between atoms: C_29  and  C_30
REMARK   15  A    between atoms: C_37  and  O_39
REMARK   16  A    between atoms: O_39  and  C_40
REMARK   17  A    between atoms: C_40  and  C_41
REMARK                            x       y       z     vdW  Elec       q    Type
REMARK                         _______ _______ _______ _____ _____    ______ ____
ROOT
ATOM      1  C   UNL     1      10.060   0.416  24.308  0.00  0.00    +0.075 C 
ENDROOT
BRANCH   1   2
ATOM      2  N   UNL     1       8.690   0.919  24.180  0.00  0.00    -0.311 N 
ATOM      3  H   UNL     1       8.435   1.308  23.283  0.00  0.00    +0.149 HD
ATOM      4  C   UNL     1       7.787   0.953  25.222  0.00  0.00    +0.234 C 
ATOM      5  O   UNL     1       8.079   0.528  26.344  0.00  0.00    -0.274 OA
BRANCH   4   6
ATOM      6  C   UNL     1       6.384   1.560  24.937  0.00  0.00    +0.166 C 
BRANCH   6   7
ATOM      7  N   UNL     1       5.416   0.524  25.240  0.00  0.00    -0.269 N 
ATOM      8  H   UNL     1       5.358  -0.318  24.684  0.00  0.00    +0.153 HD
ATOM      9  C   UNL     1       4.614   0.593  26.337  0.00  0.00    +0.401 C 
ATOM     10  O   UNL     1       4.596   1.526  27.126  0.00  0.00    -0.226 OA
BRANCH   9  11
ATOM     11  O   UNL     1       3.889  -0.542  26.431  0.00  0.00    -0.446 OA
BRANCH  11  12
ATOM     12  C   UNL     1       4.624  -1.655  26.947  0.00  0.00    +0.269 C 
BRANCH  12  13
ATOM     13  C   UNL     1       4.138  -2.899  26.247  0.00  0.00    -0.010 A 
ATOM     14  C   UNL     1       3.474  -3.897  26.975  0.00  0.00    +0.007 A 
ATOM     15  C   UNL     1       2.965  -5.024  26.333  0.00  0.00    +0.000 A 
ATOM     16  C   UNL     1       3.118  -5.166  24.955  0.00  0.00    +0.000 A 
ATOM     17  C   UNL     1       3.777  -4.181  24.220  0.00  0.00    +0.000 A 
ATOM     18  C   UNL     1       4.282  -3.049  24.861  0.00  0.00    +0.007 A 
ENDBRANCH  12  13
ENDBRANCH  11  12
ENDBRANCH   9  11
ENDBRANCH   6   7
BRANCH   6  19
ATOM     19  C   UNL     1       6.212   2.183  23.538  0.00  0.00    +0.067 C 
BRANCH  19  20
ATOM     20  C   UNL     1       6.334   3.684  23.388  0.00  0.00    -0.045 A 
ATOM     21  C   UNL     1       6.960   4.185  22.234  0.00  0.00    +0.004 A 
ATOM     22  C   UNL     1       7.193   5.552  22.080  0.00  0.00    +0.000 A 
ATOM     23  C   UNL     1       6.799   6.437  23.075  0.00  0.00    +0.000 A 
ATOM     24  C   UNL     1       6.169   5.957  24.222  0.00  0.00    +0.000 A 
ATOM     25  C   UNL     1       5.944   4.586  24.385  0.00  0.00    +0.004 A 
ENDBRANCH  19  20
ENDBRANCH   6  19
ENDBRANCH   4   6
ENDBRANCH   1   2
BRANCH   1  26
ATOM     26  C   UNL     1      10.159  -0.884  23.482  0.00  0.00    +0.048 C 
BRANCH  26  27
ATOM     27  C   UNL     1       9.194  -1.031  22.301  0.00  0.00    +0.212 C 
BRANCH  27  28
ATOM     28  S   UNL     1       7.922  -2.242  22.714  0.00  0.00    +0.121 S 
ATOM     29  O   UNL     1       6.877  -1.556  23.447  0.00  0.00    -0.137 OA
ATOM     30  O   UNL     1       7.632  -3.016  21.522  0.00  0.00    -0.137 OA
BRANCH  28  31
ATOM     31  O   UNL     1       8.779  -3.176  23.748  0.00  0.00    -0.346 OA
BRANCH  31  35
ATOM     32  C   UNL     1       6.914  -5.269  26.853  0.00  0.00    +0.273 A 
ATOM     33  C   UNL     1       6.784  -5.753  25.548  0.00  0.00    +0.088 A 
ATOM     34  C   UNL     1       7.404  -5.075  24.489  0.00  0.00    +0.055 A 
ATOM     35  C   UNL     1       8.154  -3.919  24.729  0.00  0.00    +0.157 A 
ATOM     36  C   UNL     1       8.269  -3.434  26.039  0.00  0.00    +0.055 A 
ATOM     37  C   UNL     1       7.656  -4.108  27.104  0.00  0.00    +0.088 A 
BRANCH  32  39
ATOM     38  O   UNL     1       5.568  -6.969  27.681  0.00  0.00    -0.576 OA
ATOM     39  N   UNL     1       6.261  -5.979  27.961  0.00  0.00    +0.080 N 
ATOM     40  O   UNL     1       6.442  -5.551  29.109  0.00  0.00    +0.041 OA
ENDBRANCH  32  39
ENDBRANCH  31  35
ENDBRANCH  28  31
ENDBRANCH  27  28
ENDBRANCH  26  27
ENDBRANCH   1  26
BRANCH   1  41
ATOM     41  C   UNL     1      11.051   1.494  23.843  0.00  0.00    +0.027 C 
BRANCH  41  42
ATOM     42  C   UNL     1      10.391   2.622  23.034  0.00  0.00    +0.037 C 
BRANCH  42  43
ATOM     43  C   UNL     1      10.771   3.971  23.581  0.00  0.00    -0.047 A 
ATOM     44  C   UNL     1      12.057   4.479  23.360  0.00  0.00    +0.003 A 
ATOM     45  C   UNL     1      12.391   5.754  23.807  0.00  0.00    +0.000 A 
ATOM     46  C   UNL     1      11.447   6.526  24.485  0.00  0.00    +0.000 A 
ATOM     47  C   UNL     1      10.172   6.019  24.729  0.00  0.00    +0.000 A 
ATOM     48  C   UNL     1       9.834   4.745  24.278  0.00  0.00    +0.003 A 
ENDBRANCH  42  43
ENDBRANCH  41  42
ENDBRANCH   1  41
TORSDOF 17
ENDMDL
