MODEL 1
REMARK VINA RESULT:      -8.7      0.000      0.000
REMARK  Name = 
REMARK  3 active torsions:
REMARK  status: ('A' for Active; 'I' for Inactive)
REMARK    1  A    between atoms: C_9  and  C_11
REMARK    2  A    between atoms: N_16  and  S_19
REMARK    3  A    between atoms: S_19  and  C_22
REMARK                            x       y       z     vdW  Elec       q    Type
REMARK                         _______ _______ _______ _____ _____    ______ ____
ROOT
ATOM      1  C   UNL     1       9.082  -3.779  24.483  0.00  0.00    +0.254 C 
ATOM      2  N   UNL     1       8.888  -2.528  23.865  0.00  0.00    -0.295 N 
ATOM      3  C   UNL     1       7.806  -1.586  24.204  0.00  0.00    +0.125 C 
ATOM      4  C   UNL     1       7.464  -0.679  23.015  0.00  0.00    +0.128 C 
ATOM      5  N   UNL     1       8.667   0.057  22.527  0.00  0.00    -0.172 NA
ATOM      6  C   UNL     1       9.757  -0.904  22.167  0.00  0.00    +0.128 C 
ATOM      7  C   UNL     1      10.084  -1.883  23.306  0.00  0.00    +0.125 C 
ATOM      8  O   UNL     1      10.204  -4.295  24.467  0.00  0.00    -0.269 OA
ENDROOT
BRANCH   1  13
ATOM      9  O   UNL     1       6.622  -5.594  28.876  0.00  0.00    -0.619 OA
ATOM     10  N   UNL     1       6.005  -5.855  27.790  0.00  0.00    -0.170 N 
ATOM     11  C   UNL     1       6.468  -5.427  26.625  0.00  0.00    +0.234 A 
ATOM     12  C   UNL     1       7.642  -4.635  26.451  0.00  0.00    +0.101 A 
ATOM     13  C   UNL     1       7.951  -4.447  25.116  0.00  0.00    +0.081 A 
ATOM     14  S   UNL     1       6.693  -5.053  24.108  0.00  0.00    -0.078 S 
ATOM     15  C   UNL     1       5.830  -5.722  25.428  0.00  0.00    +0.086 A 
ATOM     16  C   UNL     1       4.649  -6.479  25.434  0.00  0.00    +0.027 A 
ATOM     17  C   UNL     1       4.170  -6.938  26.663  0.00  0.00    +0.072 A 
ATOM     18  C   UNL     1       4.856  -6.622  27.832  0.00  0.00    +0.322 A 
ENDBRANCH   1  13
BRANCH   5  19
ATOM     19  S   UNL     1       9.107   1.412  23.446  0.00  0.00    +0.076 S 
ATOM     20  O   UNL     1      10.391   1.899  23.003  0.00  0.00    -0.151 OA
ATOM     21  O   UNL     1       8.823   1.129  24.836  0.00  0.00    -0.151 OA
BRANCH  19  22
ATOM     22  C   UNL     1       7.950   2.678  23.028  0.00  0.00    +0.173 A 
ATOM     23  N   UNL     1       8.400   3.866  22.499  0.00  0.00    -0.339 N 
ATOM     24  H   UNL     1       9.369   4.044  22.267  0.00  0.00    +0.167 HD
ATOM     25  C   UNL     1       7.378   4.783  22.431  0.00  0.00    +0.048 A 
ATOM     26  C   UNL     1       6.212   4.123  22.823  0.00  0.00    +0.003 A 
ATOM     27  C   UNL     1       5.004   4.841  22.864  0.00  0.00    +0.030 A 
ATOM     28  C   UNL     1       5.017   6.201  22.539  0.00  0.00    +0.042 A 
ATOM     29  C   UNL     1       6.193   6.839  22.145  0.00  0.00    +0.022 A 
ATOM     30 CL   UNL     1       3.557   7.108  22.652  0.00  0.00    -0.084 Cl
ATOM     31  C   UNL     1       7.399   6.134  22.070  0.00  0.00    +0.027 A 
ATOM     32  C   UNL     1       6.576   2.787  23.138  0.00  0.00    +0.057 A 
ENDBRANCH  19  22
ENDBRANCH   5  19
TORSDOF 3
ENDMDL
MODEL 2
REMARK VINA RESULT:      -8.3      3.860      9.387
REMARK  Name = 
REMARK  3 active torsions:
REMARK  status: ('A' for Active; 'I' for Inactive)
REMARK    1  A    between atoms: C_9  and  C_11
REMARK    2  A    between atoms: N_16  and  S_19
REMARK    3  A    between atoms: S_19  and  C_22
REMARK                            x       y       z     vdW  Elec       q    Type
REMARK                         _______ _______ _______ _____ _____    ______ ____
ROOT
ATOM      1  C   UNL     1       8.137   2.012  22.831  0.00  0.00    +0.254 C 
ATOM      2  N   UNL     1       8.682   0.719  22.955  0.00  0.00    -0.295 N 
ATOM      3  C   UNL     1       9.703   0.332  23.946  0.00  0.00    +0.125 C 
ATOM      4  C   UNL     1      10.530  -0.864  23.456  0.00  0.00    +0.128 C 
ATOM      5  N   UNL     1       9.657  -2.027  23.118  0.00  0.00    -0.172 NA
ATOM      6  C   UNL     1       8.634  -1.635  22.100  0.00  0.00    +0.128 C 
ATOM      7  C   UNL     1       7.829  -0.394  22.516  0.00  0.00    +0.125 C 
ATOM      8  O   UNL     1       7.027   2.155  22.310  0.00  0.00    -0.269 OA
ENDROOT
BRANCH   1  13
ATOM      9  O   UNL     1      12.755   4.699  23.171  0.00  0.00    -0.619 OA
ATOM     10  N   UNL     1      11.796   5.229  23.824  0.00  0.00    -0.170 N 
ATOM     11  C   UNL     1      10.580   4.703  23.796  0.00  0.00    +0.234 A 
ATOM     12  C   UNL     1      10.204   3.551  23.044  0.00  0.00    +0.101 A 
ATOM     13  C   UNL     1       8.903   3.159  23.307  0.00  0.00    +0.081 A 
ATOM     14  S   UNL     1       8.104   4.321  24.296  0.00  0.00    -0.078 S 
ATOM     15  C   UNL     1       9.528   5.246  24.522  0.00  0.00    +0.086 A 
ATOM     16  C   UNL     1       9.735   6.396  25.299  0.00  0.00    +0.027 A 
ATOM     17  C   UNL     1      11.021   6.940  25.335  0.00  0.00    +0.072 A 
ATOM     18  C   UNL     1      12.042   6.348  24.597  0.00  0.00    +0.322 A 
ENDBRANCH   1  13
BRANCH   5  19
ATOM     19  S   UNL     1       9.117  -2.933  24.446  0.00  0.00    +0.076 S 
ATOM     20  O   UNL     1       8.892  -2.056  25.568  0.00  0.00    -0.151 OA
ATOM     21  O   UNL     1       9.932  -4.124  24.544  0.00  0.00    -0.151 OA
BRANCH  19  22
ATOM     22  C   UNL     1       7.524  -3.548  23.998  0.00  0.00    +0.173 A 
ATOM     23  N   UNL     1       6.395  -2.986  24.549  0.00  0.00    -0.339 N 
ATOM     24  H   UNL     1       6.414  -2.180  25.162  0.00  0.00    +0.167 HD
ATOM     25  C   UNL     1       5.282  -3.727  24.232  0.00  0.00    +0.048 A 
ATOM     26  C   UNL     1       5.697  -4.730  23.356  0.00  0.00    +0.003 A 
ATOM     27  C   UNL     1       4.748  -5.655  22.882  0.00  0.00    +0.030 A 
ATOM     28  C   UNL     1       3.428  -5.555  23.330  0.00  0.00    +0.042 A 
ATOM     29  C   UNL     1       3.035  -4.541  24.202  0.00  0.00    +0.022 A 
ATOM     30 CL   UNL     1       2.273  -6.723  22.812  0.00  0.00    -0.084 Cl
ATOM     31  C   UNL     1       3.957  -3.594  24.661  0.00  0.00    +0.027 A 
ATOM     32  C   UNL     1       7.095  -4.570  23.171  0.00  0.00    +0.057 A 
ENDBRANCH  19  22
ENDBRANCH   5  19
TORSDOF 3
ENDMDL
MODEL 3
REMARK VINA RESULT:      -8.3      4.018      5.682
REMARK  Name = 
REMARK  3 active torsions:
REMARK  status: ('A' for Active; 'I' for Inactive)
REMARK    1  A    between atoms: C_9  and  C_11
REMARK    2  A    between atoms: N_16  and  S_19
REMARK    3  A    between atoms: S_19  and  C_22
REMARK                            x       y       z     vdW  Elec       q    Type
REMARK                         _______ _______ _______ _____ _____    ______ ____
ROOT
ATOM      1  C   UNL     1       3.641  -4.164  25.128  0.00  0.00    +0.254 C 
ATOM      2  N   UNL     1       5.031  -4.210  25.347  0.00  0.00    -0.295 N 
ATOM      3  C   UNL     1       5.886  -5.377  25.058  0.00  0.00    +0.125 C 
ATOM      4  C   UNL     1       7.139  -5.383  25.944  0.00  0.00    +0.128 C 
ATOM      5  N   UNL     1       7.913  -4.116  25.801  0.00  0.00    -0.172 NA
ATOM      6  C   UNL     1       7.048  -2.935  26.112  0.00  0.00    +0.128 C 
ATOM      7  C   UNL     1       5.744  -2.926  25.298  0.00  0.00    +0.125 C 
ATOM      8  O   UNL     1       3.087  -3.071  24.978  0.00  0.00    -0.269 OA
ENDROOT
BRANCH   1  13
ATOM      9  O   UNL     1       1.196  -8.179  27.689  0.00  0.00    -0.619 OA
ATOM     10  N   UNL     1       1.192  -8.294  26.418  0.00  0.00    -0.170 N 
ATOM     11  C   UNL     1       1.717  -7.353  25.648  0.00  0.00    +0.234 A 
ATOM     12  C   UNL     1       2.300  -6.139  26.119  0.00  0.00    +0.101 A 
ATOM     13  C   UNL     1       2.880  -5.408  25.098  0.00  0.00    +0.081 A 
ATOM     14  S   UNL     1       2.520  -6.107  23.566  0.00  0.00    -0.078 S 
ATOM     15  C   UNL     1       1.751  -7.470  24.264  0.00  0.00    +0.086 A 
ATOM     16  C   UNL     1       1.200  -8.602  23.646  0.00  0.00    +0.027 A 
ATOM     17  C   UNL     1       0.657  -9.597  24.462  0.00  0.00    +0.072 A 
ATOM     18  C   UNL     1       0.660  -9.433  25.844  0.00  0.00    +0.322 A 
ENDBRANCH   1  13
BRANCH   5  19
ATOM     19  S   UNL     1       8.884  -4.016  24.414  0.00  0.00    +0.076 S 
ATOM     20  O   UNL     1       8.141  -4.487  23.271  0.00  0.00    -0.151 OA
ATOM     21  O   UNL     1      10.199  -4.519  24.744  0.00  0.00    -0.151 OA
BRANCH  19  22
ATOM     22  C   UNL     1       9.150  -2.294  24.130  0.00  0.00    +0.173 A 
ATOM     23  N   UNL     1       8.876  -1.755  22.894  0.00  0.00    -0.339 N 
ATOM     24  H   UNL     1       8.460  -2.281  22.135  0.00  0.00    +0.167 HD
ATOM     25  C   UNL     1       9.332  -0.461  22.818  0.00  0.00    +0.048 A 
ATOM     26  C   UNL     1       9.812  -0.124  24.084  0.00  0.00    +0.003 A 
ATOM     27  C   UNL     1      10.363   1.155  24.285  0.00  0.00    +0.030 A 
ATOM     28  C   UNL     1      10.437   2.034  23.201  0.00  0.00    +0.042 A 
ATOM     29  C   UNL     1       9.947   1.677  21.945  0.00  0.00    +0.022 A 
ATOM     30 CL   UNL     1      11.172   3.576  23.417  0.00  0.00    -0.084 Cl
ATOM     31  C   UNL     1       9.369   0.421  21.733  0.00  0.00    +0.027 A 
ATOM     32  C   UNL     1       9.638  -1.263  24.913  0.00  0.00    +0.057 A 
ENDBRANCH  19  22
ENDBRANCH   5  19
TORSDOF 3
ENDMDL
MODEL 4
REMARK VINA RESULT:      -8.3      2.914      3.678
REMARK  Name = 
REMARK  3 active torsions:
REMARK  status: ('A' for Active; 'I' for Inactive)
REMARK    1  A    between atoms: C_9  and  C_11
REMARK    2  A    between atoms: N_16  and  S_19
REMARK    3  A    between atoms: S_19  and  C_22
REMARK                            x       y       z     vdW  Elec       q    Type
REMARK                         _______ _______ _______ _____ _____    ______ ____
ROOT
ATOM      1  C   UNL     1       5.863  -5.599  23.843  0.00  0.00    +0.254 C 
ATOM      2  N   UNL     1       6.427  -4.329  23.610  0.00  0.00    -0.295 N 
ATOM      3  C   UNL     1       6.795  -3.370  24.668  0.00  0.00    +0.125 C 
ATOM      4  C   UNL     1       6.765  -1.927  24.148  0.00  0.00    +0.128 C 
ATOM      5  N   UNL     1       7.647  -1.759  22.956  0.00  0.00    -0.172 NA
ATOM      6  C   UNL     1       7.258  -2.722  21.878  0.00  0.00    +0.128 C 
ATOM      7  C   UNL     1       7.204  -4.175  22.373  0.00  0.00    +0.125 C 
ATOM      8  O   UNL     1       5.986  -6.481  22.988  0.00  0.00    -0.269 OA
ENDROOT
BRANCH   1  13
ATOM      9  O   UNL     1       5.693  -7.514  28.838  0.00  0.00    -0.619 OA
ATOM     10  N   UNL     1       4.582  -7.042  28.424  0.00  0.00    -0.170 N 
ATOM     11  C   UNL     1       4.482  -6.489  27.225  0.00  0.00    +0.234 A 
ATOM     12  C   UNL     1       5.559  -6.335  26.302  0.00  0.00    +0.101 A 
ATOM     13  C   UNL     1       5.133  -5.840  25.082  0.00  0.00    +0.081 A 
ATOM     14  S   UNL     1       3.476  -5.377  25.156  0.00  0.00    -0.078 S 
ATOM     15  C   UNL     1       3.278  -5.995  26.742  0.00  0.00    +0.086 A 
ATOM     16  C   UNL     1       2.126  -6.058  27.541  0.00  0.00    +0.027 A 
ATOM     17  C   UNL     1       2.233  -6.652  28.801  0.00  0.00    +0.072 A 
ATOM     18  C   UNL     1       3.463  -7.142  29.230  0.00  0.00    +0.322 A 
ENDBRANCH   1  13
BRANCH   5  19
ATOM     19  S   UNL     1       9.301  -1.610  23.297  0.00  0.00    +0.076 S 
ATOM     20  O   UNL     1      10.066  -1.892  22.107  0.00  0.00    -0.151 OA
ATOM     21  O   UNL     1       9.564  -2.264  24.560  0.00  0.00    -0.151 OA
BRANCH  19  22
ATOM     22  C   UNL     1       9.574   0.099  23.642  0.00  0.00    +0.173 A 
ATOM     23  N   UNL     1       8.734   0.764  24.505  0.00  0.00    -0.339 N 
ATOM     24  H   UNL     1       7.989   0.312  25.020  0.00  0.00    +0.167 HD
ATOM     25  C   UNL     1       8.990   2.115  24.484  0.00  0.00    +0.048 A 
ATOM     26  C   UNL     1      10.104   2.305  23.667  0.00  0.00    +0.003 A 
ATOM     27  C   UNL     1      10.576   3.613  23.453  0.00  0.00    +0.030 A 
ATOM     28  C   UNL     1       9.893   4.680  24.044  0.00  0.00    +0.042 A 
ATOM     29  C   UNL     1       8.783   4.466  24.860  0.00  0.00    +0.022 A 
ATOM     30 CL   UNL     1      10.418   6.291  23.733  0.00  0.00    -0.084 Cl
ATOM     31  C   UNL     1       8.318   3.171  25.109  0.00  0.00    +0.027 A 
ATOM     32  C   UNL     1      10.497   1.026  23.192  0.00  0.00    +0.057 A 
ENDBRANCH  19  22
ENDBRANCH   5  19
TORSDOF 3
ENDMDL
MODEL 5
REMARK VINA RESULT:      -8.3      2.135      2.456
REMARK  Name = 
REMARK  3 active torsions:
REMARK  status: ('A' for Active; 'I' for Inactive)
REMARK    1  A    between atoms: C_9  and  C_11
REMARK    2  A    between atoms: N_16  and  S_19
REMARK    3  A    between atoms: S_19  and  C_22
REMARK                            x       y       z     vdW  Elec       q    Type
REMARK                         _______ _______ _______ _____ _____    ______ ____
ROOT
ATOM      1  C   UNL     1       8.479  -4.592  24.394  0.00  0.00    +0.254 C 
ATOM      2  N   UNL     1       8.688  -3.249  24.023  0.00  0.00    -0.295 N 
ATOM      3  C   UNL     1       7.768  -2.140  24.336  0.00  0.00    +0.125 C 
ATOM      4  C   UNL     1       7.902  -1.000  23.319  0.00  0.00    +0.128 C 
ATOM      5  N   UNL     1       9.309  -0.508  23.235  0.00  0.00    -0.172 NA
ATOM      6  C   UNL     1      10.237  -1.633  22.899  0.00  0.00    +0.128 C 
ATOM      7  C   UNL     1      10.086  -2.829  23.851  0.00  0.00    +0.125 C 
ATOM      8  O   UNL     1       9.446  -5.353  24.487  0.00  0.00    -0.269 OA
ENDROOT
BRANCH   1  13
ATOM      9  O   UNL     1       3.579  -5.808  22.614  0.00  0.00    -0.619 OA
ATOM     10  N   UNL     1       3.717  -5.923  23.878  0.00  0.00    -0.170 N 
ATOM     11  C   UNL     1       4.887  -5.702  24.458  0.00  0.00    +0.234 A 
ATOM     12  C   UNL     1       6.088  -5.353  23.772  0.00  0.00    +0.101 A 
ATOM     13  C   UNL     1       7.120  -5.060  24.645  0.00  0.00    +0.081 A 
ATOM     14  S   UNL     1       6.669  -5.421  26.267  0.00  0.00    -0.078 S 
ATOM     15  C   UNL     1       5.053  -5.793  25.834  0.00  0.00    +0.086 A 
ATOM     16  C   UNL     1       3.966  -6.146  26.647  0.00  0.00    +0.027 A 
ATOM     17  C   UNL     1       2.731  -6.367  26.032  0.00  0.00    +0.072 A 
ATOM     18  C   UNL     1       2.618  -6.250  24.650  0.00  0.00    +0.322 A 
ENDBRANCH   1  13
BRANCH   5  19
ATOM     19  S   UNL     1       9.783   0.538  24.482  0.00  0.00    +0.076 S 
ATOM     20  O   UNL     1      11.215   0.710  24.448  0.00  0.00    -0.151 OA
ATOM     21  O   UNL     1       9.077   0.159  25.685  0.00  0.00    -0.151 OA
BRANCH  19  22
ATOM     22  C   UNL     1       9.107   2.117  24.075  0.00  0.00    +0.173 A 
ATOM     23  N   UNL     1       8.661   2.948  25.077  0.00  0.00    -0.339 N 
ATOM     24  H   UNL     1       8.757   2.736  26.063  0.00  0.00    +0.167 HD
ATOM     25  C   UNL     1       7.996   4.028  24.550  0.00  0.00    +0.048 A 
ATOM     26  C   UNL     1       8.119   3.944  23.162  0.00  0.00    +0.003 A 
ATOM     27  C   UNL     1       7.507   4.927  22.364  0.00  0.00    +0.030 A 
ATOM     28  C   UNL     1       6.770   5.938  22.987  0.00  0.00    +0.042 A 
ATOM     29  C   UNL     1       6.664   6.005  24.376  0.00  0.00    +0.022 A 
ATOM     30 CL   UNL     1       5.957   7.108  22.018  0.00  0.00    -0.084 Cl
ATOM     31  C   UNL     1       7.291   5.055  25.188  0.00  0.00    +0.027 A 
ATOM     32  C   UNL     1       8.868   2.772  22.881  0.00  0.00    +0.057 A 
ENDBRANCH  19  22
ENDBRANCH   5  19
TORSDOF 3
ENDMDL
MODEL 6
REMARK VINA RESULT:      -8.2      1.426      1.660
REMARK  Name = 
REMARK  3 active torsions:
REMARK  status: ('A' for Active; 'I' for Inactive)
REMARK    1  A    between atoms: C_9  and  C_11
REMARK    2  A    between atoms: N_16  and  S_19
REMARK    3  A    between atoms: S_19  and  C_22
REMARK                            x       y       z     vdW  Elec       q    Type
REMARK                         _______ _______ _______ _____ _____    ______ ____
ROOT
ATOM      1  C   UNL     1       8.637  -4.501  24.431  0.00  0.00    +0.254 C 
ATOM      2  N   UNL     1       8.755  -3.151  24.048  0.00  0.00    -0.295 N 
ATOM      3  C   UNL     1       7.769  -2.101  24.366  0.00  0.00    +0.125 C 
ATOM      4  C   UNL     1       7.815  -0.963  23.338  0.00  0.00    +0.128 C 
ATOM      5  N   UNL     1       9.185  -0.381  23.231  0.00  0.00    -0.172 NA
ATOM      6  C   UNL     1      10.180  -1.446  22.890  0.00  0.00    +0.128 C 
ATOM      7  C   UNL     1      10.119  -2.643  23.852  0.00  0.00    +0.125 C 
ATOM      8  O   UNL     1       9.653  -5.197  24.515  0.00  0.00    -0.269 OA
ENDROOT
BRANCH   1  13
ATOM      9  O   UNL     1       4.972  -6.282  27.902  0.00  0.00    -0.619 OA
ATOM     10  N   UNL     1       4.620  -6.376  26.680  0.00  0.00    -0.170 N 
ATOM     11  C   UNL     1       5.403  -5.931  25.709  0.00  0.00    +0.234 A 
ATOM     12  C   UNL     1       6.666  -5.296  25.901  0.00  0.00    +0.101 A 
ATOM     13  C   UNL     1       7.315  -5.053  24.704  0.00  0.00    +0.081 A 
ATOM     14  S   UNL     1       6.287  -5.408  23.369  0.00  0.00    -0.078 S 
ATOM     15  C   UNL     1       5.053  -6.049  24.370  0.00  0.00    +0.086 A 
ATOM     16  C   UNL     1       3.829  -6.638  24.017  0.00  0.00    +0.027 A 
ATOM     17  C   UNL     1       3.011  -7.116  25.044  0.00  0.00    +0.072 A 
ATOM     18  C   UNL     1       3.417  -6.982  26.368  0.00  0.00    +0.322 A 
ENDBRANCH   1  13
BRANCH   5  19
ATOM     19  S   UNL     1       9.608   0.703  24.464  0.00  0.00    +0.076 S 
ATOM     20  O   UNL     1      11.035   0.914  24.451  0.00  0.00    -0.151 OA
ATOM     21  O   UNL     1       8.891   0.329  25.662  0.00  0.00    -0.151 OA
BRANCH  19  22
ATOM     22  C   UNL     1       8.897   2.254  24.012  0.00  0.00    +0.173 A 
ATOM     23  N   UNL     1       8.528   3.147  24.991  0.00  0.00    -0.339 N 
ATOM     24  H   UNL     1       8.701   2.999  25.978  0.00  0.00    +0.167 HD
ATOM     25  C   UNL     1       7.819   4.193  24.450  0.00  0.00    +0.048 A 
ATOM     26  C   UNL     1       7.833   4.021  23.065  0.00  0.00    +0.003 A 
ATOM     27  C   UNL     1       7.157   4.952  22.256  0.00  0.00    +0.030 A 
ATOM     28  C   UNL     1       6.467   6.002  22.870  0.00  0.00    +0.042 A 
ATOM     29  C   UNL     1       6.471   6.157  24.256  0.00  0.00    +0.022 A 
ATOM     30 CL   UNL     1       5.578   7.108  21.895  0.00  0.00    -0.084 Cl
ATOM     31  C   UNL     1       7.163   5.259  25.075  0.00  0.00    +0.027 A 
ATOM     32  C   UNL     1       8.563   2.832  22.801  0.00  0.00    +0.057 A 
ENDBRANCH  19  22
ENDBRANCH   5  19
TORSDOF 3
ENDMDL
MODEL 7
REMARK VINA RESULT:      -7.9      3.849      9.354
REMARK  Name = 
REMARK  3 active torsions:
REMARK  status: ('A' for Active; 'I' for Inactive)
REMARK    1  A    between atoms: C_9  and  C_11
REMARK    2  A    between atoms: N_16  and  S_19
REMARK    3  A    between atoms: S_19  and  C_22
REMARK                            x       y       z     vdW  Elec       q    Type
REMARK                         _______ _______ _______ _____ _____    ______ ____
ROOT
ATOM      1  C   UNL     1       9.375   3.826  23.853  0.00  0.00    +0.254 C 
ATOM      2  N   UNL     1       9.308   2.430  24.024  0.00  0.00    -0.295 N 
ATOM      3  C   UNL     1       8.114   1.609  23.751  0.00  0.00    +0.125 C 
ATOM      4  C   UNL     1       8.114   0.325  24.591  0.00  0.00    +0.128 C 
ATOM      5  N   UNL     1       9.359  -0.468  24.371  0.00  0.00    -0.172 NA
ATOM      6  C   UNL     1      10.568   0.362  24.667  0.00  0.00    +0.128 C 
ATOM      7  C   UNL     1      10.574   1.694  23.901  0.00  0.00    +0.125 C 
ATOM      8  O   UNL     1      10.474   4.363  23.681  0.00  0.00    -0.269 OA
ENDROOT
BRANCH   1  13
ATOM      9  O   UNL     1       5.417   6.106  26.644  0.00  0.00    -0.619 OA
ATOM     10  N   UNL     1       5.300   6.230  25.379  0.00  0.00    -0.170 N 
ATOM     11  C   UNL     1       6.228   5.758  24.560  0.00  0.00    +0.234 A 
ATOM     12  C   UNL     1       7.431   5.110  24.972  0.00  0.00    +0.101 A 
ATOM     13  C   UNL     1       8.147   4.612  23.898  0.00  0.00    +0.081 A 
ATOM     14  S   UNL     1       7.453   5.127  22.409  0.00  0.00    -0.078 S 
ATOM     15  C   UNL     1       6.108   5.856  23.180  0.00  0.00    +0.086 A 
ATOM     16  C   UNL     1       4.986   6.485  22.619  0.00  0.00    +0.027 A 
ATOM     17  C   UNL     1       4.004   6.970  23.486  0.00  0.00    +0.072 A 
ATOM     18  C   UNL     1       4.171   6.835  24.861  0.00  0.00    +0.322 A 
ENDBRANCH   1  13
BRANCH   5  19
ATOM     19  S   UNL     1       9.386  -1.390  22.948  0.00  0.00    +0.076 S 
ATOM     20  O   UNL     1      10.719  -1.896  22.727  0.00  0.00    -0.151 OA
ATOM     21  O   UNL     1       8.651  -0.673  21.930  0.00  0.00    -0.151 OA
BRANCH  19  22
ATOM     22  C   UNL     1       8.387  -2.809  23.270  0.00  0.00    +0.173 A 
ATOM     23  N   UNL     1       7.720  -3.423  22.235  0.00  0.00    -0.339 N 
ATOM     24  H   UNL     1       7.817  -3.148  21.265  0.00  0.00    +0.167 HD
ATOM     25  C   UNL     1       6.850  -4.373  22.716  0.00  0.00    +0.048 A 
ATOM     26  C   UNL     1       7.052  -4.447  24.095  0.00  0.00    +0.003 A 
ATOM     27  C   UNL     1       6.268  -5.339  24.850  0.00  0.00    +0.030 A 
ATOM     28  C   UNL     1       5.293  -6.098  24.197  0.00  0.00    +0.042 A 
ATOM     29  C   UNL     1       5.113  -6.011  22.817  0.00  0.00    +0.022 A 
ATOM     30 CL   UNL     1       4.281  -7.142  25.120  0.00  0.00    -0.084 Cl
ATOM     31  C   UNL     1       5.903  -5.153  22.045  0.00  0.00    +0.027 A 
ATOM     32  C   UNL     1       8.060  -3.503  24.421  0.00  0.00    +0.057 A 
ENDBRANCH  19  22
ENDBRANCH   5  19
TORSDOF 3
ENDMDL
MODEL 8
REMARK VINA RESULT:      -7.8      2.066      2.605
REMARK  Name = 
REMARK  3 active torsions:
REMARK  status: ('A' for Active; 'I' for Inactive)
REMARK    1  A    between atoms: C_9  and  C_11
REMARK    2  A    between atoms: N_16  and  S_19
REMARK    3  A    between atoms: S_19  and  C_22
REMARK                            x       y       z     vdW  Elec       q    Type
REMARK                         _______ _______ _______ _____ _____    ______ ____
ROOT
ATOM      1  C   UNL     1       9.149  -4.120  24.731  0.00  0.00    +0.254 C 
ATOM      2  N   UNL     1       9.091  -2.825  24.181  0.00  0.00    -0.295 N 
ATOM      3  C   UNL     1       8.150  -1.774  24.610  0.00  0.00    +0.125 C 
ATOM      4  C   UNL     1       7.880  -0.771  23.481  0.00  0.00    +0.128 C 
ATOM      5  N   UNL     1       9.148  -0.168  22.974  0.00  0.00    -0.172 NA
ATOM      6  C   UNL     1      10.093  -1.237  22.523  0.00  0.00    +0.128 C 
ATOM      7  C   UNL     1      10.336  -2.306  23.600  0.00  0.00    +0.125 C 
ATOM      8  O   UNL     1      10.195  -4.770  24.642  0.00  0.00    -0.269 OA
ENDROOT
BRANCH   1  13
ATOM      9  O   UNL     1       6.623  -5.773  29.152  0.00  0.00    -0.619 OA
ATOM     10  N   UNL     1       5.950  -5.929  28.079  0.00  0.00    -0.170 N 
ATOM     11  C   UNL     1       6.425  -5.523  26.912  0.00  0.00    +0.234 A 
ATOM     12  C   UNL     1       7.677  -4.865  26.721  0.00  0.00    +0.101 A 
ATOM     13  C   UNL     1       7.967  -4.674  25.382  0.00  0.00    +0.081 A 
ATOM     14  S   UNL     1       6.619  -5.103  24.399  0.00  0.00    -0.078 S 
ATOM     15  C   UNL     1       5.724  -5.709  25.728  0.00  0.00    +0.086 A 
ATOM     16  C   UNL     1       4.464  -6.327  25.752  0.00  0.00    +0.027 A 
ATOM     17  C   UNL     1       3.971  -6.764  26.984  0.00  0.00    +0.072 A 
ATOM     18  C   UNL     1       4.722  -6.562  28.138  0.00  0.00    +0.322 A 
ENDBRANCH   1  13
BRANCH   5  19
ATOM     19  S   UNL     1       9.790   1.074  23.935  0.00  0.00    +0.076 S 
ATOM     20  O   UNL     1      10.403   2.069  23.089  0.00  0.00    -0.151 OA
ATOM     21  O   UNL     1      10.486   0.470  25.050  0.00  0.00    -0.151 OA
BRANCH  19  22
ATOM     22  C   UNL     1       8.407   1.875  24.682  0.00  0.00    +0.173 A 
ATOM     23  N   UNL     1       8.137   1.668  26.015  0.00  0.00    -0.339 N 
ATOM     24  H   UNL     1       8.731   1.125  26.629  0.00  0.00    +0.167 HD
ATOM     25  C   UNL     1       6.920   2.212  26.352  0.00  0.00    +0.048 A 
ATOM     26  C   UNL     1       6.450   2.886  25.225  0.00  0.00    +0.003 A 
ATOM     27  C   UNL     1       5.199   3.527  25.287  0.00  0.00    +0.030 A 
ATOM     28  C   UNL     1       4.456   3.440  26.469  0.00  0.00    +0.042 A 
ATOM     29  C   UNL     1       4.948   2.765  27.585  0.00  0.00    +0.022 A 
ATOM     30 CL   UNL     1       2.893   4.161  26.535  0.00  0.00    -0.084 Cl
ATOM     31  C   UNL     1       6.203   2.147  27.552  0.00  0.00    +0.027 A 
ATOM     32  C   UNL     1       7.419   2.716  24.203  0.00  0.00    +0.057 A 
ENDBRANCH  19  22
ENDBRANCH   5  19
TORSDOF 3
ENDMDL
MODEL 9
REMARK VINA RESULT:      -7.8      2.023      2.417
REMARK  Name = 
REMARK  3 active torsions:
REMARK  status: ('A' for Active; 'I' for Inactive)
REMARK    1  A    between atoms: C_9  and  C_11
REMARK    2  A    between atoms: N_16  and  S_19
REMARK    3  A    between atoms: S_19  and  C_22
REMARK                            x       y       z     vdW  Elec       q    Type
REMARK                         _______ _______ _______ _____ _____    ______ ____
ROOT
ATOM      1  C   UNL     1       9.017  -4.066  24.633  0.00  0.00    +0.254 C 
ATOM      2  N   UNL     1       8.892  -2.882  23.881  0.00  0.00    -0.295 N 
ATOM      3  C   UNL     1       7.764  -1.937  23.988  0.00  0.00    +0.125 C 
ATOM      4  C   UNL     1       7.571  -1.150  22.686  0.00  0.00    +0.128 C 
ATOM      5  N   UNL     1       8.820  -0.435  22.291  0.00  0.00    -0.172 NA
ATOM      6  C   UNL     1       9.957  -1.400  22.165  0.00  0.00    +0.128 C 
ATOM      7  C   UNL     1      10.143  -2.263  23.423  0.00  0.00    +0.125 C 
ATOM      8  O   UNL     1      10.136  -4.556  24.809  0.00  0.00    -0.269 OA
ENDROOT
BRANCH   1  13
ATOM      9  O   UNL     1       4.486  -6.823  23.908  0.00  0.00    -0.619 OA
ATOM     10  N   UNL     1       4.694  -6.473  25.117  0.00  0.00    -0.170 N 
ATOM     11  C   UNL     1       5.799  -5.826  25.459  0.00  0.00    +0.234 A 
ATOM     12  C   UNL     1       6.856  -5.483  24.564  0.00  0.00    +0.101 A 
ATOM     13  C   UNL     1       7.820  -4.699  25.174  0.00  0.00    +0.081 A 
ATOM     14  S   UNL     1       7.527  -4.579  26.867  0.00  0.00    -0.078 S 
ATOM     15  C   UNL     1       6.033  -5.409  26.763  0.00  0.00    +0.086 A 
ATOM     16  C   UNL     1       5.091  -5.689  27.765  0.00  0.00    +0.027 A 
ATOM     17  C   UNL     1       3.923  -6.361  27.399  0.00  0.00    +0.072 A 
ATOM     18  C   UNL     1       3.734  -6.746  26.074  0.00  0.00    +0.322 A 
ENDBRANCH   1  13
BRANCH   5  19
ATOM     19  S   UNL     1       9.122   1.008  23.128  0.00  0.00    +0.076 S 
ATOM     20  O   UNL     1       9.985   1.852  22.339  0.00  0.00    -0.151 OA
ATOM     21  O   UNL     1       9.408   0.680  24.508  0.00  0.00    -0.151 OA
BRANCH  19  22
ATOM     22  C   UNL     1       7.575   1.856  23.208  0.00  0.00    +0.173 A 
ATOM     23  N   UNL     1       6.887   1.911  24.398  0.00  0.00    -0.339 N 
ATOM     24  H   UNL     1       7.248   1.544  25.271  0.00  0.00    +0.167 HD
ATOM     25  C   UNL     1       5.631   2.433  24.207  0.00  0.00    +0.048 A 
ATOM     26  C   UNL     1       5.554   2.830  22.872  0.00  0.00    +0.003 A 
ATOM     27  C   UNL     1       4.354   3.389  22.395  0.00  0.00    +0.030 A 
ATOM     28  C   UNL     1       3.269   3.499  23.270  0.00  0.00    +0.042 A 
ATOM     29  C   UNL     1       3.370   3.100  24.602  0.00  0.00    +0.022 A 
ATOM     30 CL   UNL     1       1.773   4.117  22.680  0.00  0.00    -0.084 Cl
ATOM     31  C   UNL     1       4.564   2.570  25.102  0.00  0.00    +0.027 A 
ATOM     32  C   UNL     1       6.801   2.516  22.271  0.00  0.00    +0.057 A 
ENDBRANCH  19  22
ENDBRANCH   5  19
TORSDOF 3
ENDMDL
