MODEL 1
REMARK VINA RESULT:      -7.5      0.000      0.000
REMARK  Name = 
REMARK  1 active torsions:
REMARK  status: ('A' for Active; 'I' for Inactive)
REMARK    1  A    between atoms: N_2  and  C_4
REMARK                            x       y       z     vdW  Elec       q    Type
REMARK                         _______ _______ _______ _____ _____    ______ ____
ROOT
ATOM      1  C   UNL     1       5.637  -5.156  24.487  0.00  0.00    +0.274 A 
ATOM      2  C   UNL     1       5.049  -4.864  23.251  0.00  0.00    +0.086 A 
ATOM      3  C   UNL     1       5.416  -3.713  22.544  0.00  0.00    +0.033 A 
ATOM      4  C   UNL     1       6.388  -2.881  23.116  0.00  0.00    +0.048 A 
ATOM      5  N   UNL     1       6.950  -1.712  22.645  0.00  0.00    -0.354 N 
ATOM      6  H   UNL     1       6.701  -1.272  21.771  0.00  0.00    +0.166 HD
ATOM      7  C   UNL     1       7.883  -1.230  23.533  0.00  0.00    +0.053 A 
ATOM      8  C   UNL     1       8.690  -0.022  23.344  0.00  0.00    +0.020 A 
ATOM      9  C   UNL     1       9.142   0.302  22.051  0.00  0.00    +0.012 A 
ATOM     10  C   UNL     1       9.908   1.448  21.822  0.00  0.00    +0.001 A 
ATOM     11  C   UNL     1      10.213   2.301  22.874  0.00  0.00    +0.002 A 
ATOM     12  C   UNL     1       9.760   2.005  24.160  0.00  0.00    +0.024 A 
ATOM     13  C   UNL     1       9.033   0.831  24.417  0.00  0.00    +0.043 A 
ATOM     14  N   UNL     1       8.674   0.636  25.768  0.00  0.00    -0.285 N 
ATOM     15  H   UNL     1       8.660   1.449  26.370  0.00  0.00    +0.155 HD
ATOM     16  C   UNL     1       8.404  -0.515  26.460  0.00  0.00    +0.222 C 
ATOM     17  O   UNL     1       8.033  -0.426  27.634  0.00  0.00    -0.275 OA
ATOM     18  C   UNL     1       8.703  -1.858  25.831  0.00  0.00    +0.134 C 
ATOM     19  C   UNL     1       7.873  -2.076  24.624  0.00  0.00    -0.005 A 
ATOM     20  C   UNL     1       6.968  -3.141  24.356  0.00  0.00    +0.010 A 
ATOM     21  C   UNL     1       6.590  -4.300  25.060  0.00  0.00    +0.094 A 
ENDROOT
BRANCH   1  23
ATOM     22  O   UNL     1       5.664  -6.523  26.366  0.00  0.00    -0.576 OA
ATOM     23  N   UNL     1       5.263  -6.385  25.201  0.00  0.00    +0.080 N 
ATOM     24  O   UNL     1       4.575  -7.217  24.590  0.00  0.00    +0.041 OA
ENDBRANCH   1  23
TORSDOF 1
ENDMDL
MODEL 2
REMARK VINA RESULT:      -7.4      2.572      3.026
REMARK  Name = 
REMARK  1 active torsions:
REMARK  status: ('A' for Active; 'I' for Inactive)
REMARK    1  A    between atoms: N_2  and  C_4
REMARK                            x       y       z     vdW  Elec       q    Type
REMARK                         _______ _______ _______ _____ _____    ______ ____
ROOT
ATOM      1  C   UNL     1       7.543  -3.896  23.364  0.00  0.00    +0.274 A 
ATOM      2  C   UNL     1       6.173  -3.681  23.557  0.00  0.00    +0.086 A 
ATOM      3  C   UNL     1       5.657  -2.380  23.592  0.00  0.00    +0.033 A 
ATOM      4  C   UNL     1       6.556  -1.318  23.422  0.00  0.00    +0.048 A 
ATOM      5  N   UNL     1       6.333   0.042  23.389  0.00  0.00    -0.354 N 
ATOM      6  H   UNL     1       5.428   0.475  23.508  0.00  0.00    +0.166 HD
ATOM      7  C   UNL     1       7.511   0.723  23.185  0.00  0.00    +0.053 A 
ATOM      8  C   UNL     1       7.643   2.178  23.072  0.00  0.00    +0.020 A 
ATOM      9  C   UNL     1       6.626   2.908  22.430  0.00  0.00    +0.012 A 
ATOM     10  C   UNL     1       6.705   4.298  22.306  0.00  0.00    +0.001 A 
ATOM     11  C   UNL     1       7.787   4.982  22.844  0.00  0.00    +0.002 A 
ATOM     12  C   UNL     1       8.797   4.277  23.498  0.00  0.00    +0.024 A 
ATOM     13  C   UNL     1       8.759   2.875  23.587  0.00  0.00    +0.043 A 
ATOM     14  N   UNL     1       9.865   2.288  24.238  0.00  0.00    -0.285 N 
ATOM     15  H   UNL     1      10.409   2.877  24.857  0.00  0.00    +0.155 HD
ATOM     16  C   UNL     1      10.405   1.035  24.121  0.00  0.00    +0.222 C 
ATOM     17  O   UNL     1      11.342   0.724  24.862  0.00  0.00    -0.275 OA
ATOM     18  C   UNL     1       9.952   0.122  23.003  0.00  0.00    +0.134 C 
ATOM     19  C   UNL     1       8.518  -0.221  23.147  0.00  0.00    -0.005 A 
ATOM     20  C   UNL     1       7.926  -1.510  23.252  0.00  0.00    +0.010 A 
ATOM     21  C   UNL     1       8.436  -2.823  23.221  0.00  0.00    +0.094 A 
ENDROOT
BRANCH   1  23
ATOM     22  O   UNL     1       8.958  -5.588  24.096  0.00  0.00    -0.576 OA
ATOM     23  N   UNL     1       8.063  -5.269  23.299  0.00  0.00    +0.080 N 
ATOM     24  O   UNL     1       7.581  -6.026  22.442  0.00  0.00    +0.041 OA
ENDBRANCH   1  23
TORSDOF 1
ENDMDL
MODEL 3
REMARK VINA RESULT:      -7.3      2.212      6.613
REMARK  Name = 
REMARK  1 active torsions:
REMARK  status: ('A' for Active; 'I' for Inactive)
REMARK    1  A    between atoms: N_2  and  C_4
REMARK                            x       y       z     vdW  Elec       q    Type
REMARK                         _______ _______ _______ _____ _____    ______ ____
ROOT
ATOM      1  C   UNL     1       9.956  -0.045  23.502  0.00  0.00    +0.274 A 
ATOM      2  C   UNL     1       9.824  -0.262  22.126  0.00  0.00    +0.086 A 
ATOM      3  C   UNL     1       8.971  -1.261  21.643  0.00  0.00    +0.033 A 
ATOM      4  C   UNL     1       8.259  -2.020  22.584  0.00  0.00    +0.048 A 
ATOM      5  N   UNL     1       7.347  -3.038  22.402  0.00  0.00    -0.354 N 
ATOM      6  H   UNL     1       7.069  -3.400  21.501  0.00  0.00    +0.166 HD
ATOM      7  C   UNL     1       6.882  -3.495  23.612  0.00  0.00    +0.053 A 
ATOM      8  C   UNL     1       5.885  -4.554  23.795  0.00  0.00    +0.020 A 
ATOM      9  C   UNL     1       4.824  -4.658  22.877  0.00  0.00    +0.012 A 
ATOM     10  C   UNL     1       3.855  -5.656  23.006  0.00  0.00    +0.001 A 
ATOM     11  C   UNL     1       3.944  -6.581  24.038  0.00  0.00    +0.002 A 
ATOM     12  C   UNL     1       4.998  -6.504  24.948  0.00  0.00    +0.024 A 
ATOM     13  C   UNL     1       5.953  -5.477  24.863  0.00  0.00    +0.043 A 
ATOM     14  N   UNL     1       6.939  -5.494  25.872  0.00  0.00    -0.285 N 
ATOM     15  H   UNL     1       7.096  -6.368  26.357  0.00  0.00    +0.155 HD
ATOM     16  C   UNL     1       7.702  -4.480  26.389  0.00  0.00    +0.222 C 
ATOM     17  O   UNL     1       8.565  -4.758  27.226  0.00  0.00    -0.275 OA
ATOM     18  C   UNL     1       7.379  -3.044  26.041  0.00  0.00    +0.134 C 
ATOM     19  C   UNL     1       7.558  -2.795  24.592  0.00  0.00    -0.005 A 
ATOM     20  C   UNL     1       8.395  -1.836  23.958  0.00  0.00    +0.010 A 
ATOM     21  C   UNL     1       9.259  -0.829  24.433  0.00  0.00    +0.094 A 
ENDROOT
BRANCH   1  23
ATOM     22  O   UNL     1      10.707   2.154  23.485  0.00  0.00    -0.576 OA
ATOM     23  N   UNL     1      10.833   1.029  23.990  0.00  0.00    +0.080 N 
ATOM     24  O   UNL     1      11.655   0.743  24.874  0.00  0.00    +0.041 OA
ENDBRANCH   1  23
TORSDOF 1
ENDMDL
MODEL 4
REMARK VINA RESULT:      -7.2      1.682      2.219
REMARK  Name = 
REMARK  1 active torsions:
REMARK  status: ('A' for Active; 'I' for Inactive)
REMARK    1  A    between atoms: N_2  and  C_4
REMARK                            x       y       z     vdW  Elec       q    Type
REMARK                         _______ _______ _______ _____ _____    ______ ____
ROOT
ATOM      1  C   UNL     1       6.273  -5.488  27.169  0.00  0.00    +0.274 A 
ATOM      2  C   UNL     1       5.770  -6.008  25.971  0.00  0.00    +0.086 A 
ATOM      3  C   UNL     1       5.992  -5.343  24.759  0.00  0.00    +0.033 A 
ATOM      4  C   UNL     1       6.733  -4.154  24.796  0.00  0.00    +0.048 A 
ATOM      5  N   UNL     1       7.118  -3.311  23.774  0.00  0.00    -0.354 N 
ATOM      6  H   UNL     1       6.884  -3.450  22.802  0.00  0.00    +0.166 HD
ATOM      7  C   UNL     1       7.853  -2.257  24.265  0.00  0.00    +0.053 A 
ATOM      8  C   UNL     1       8.443  -1.185  23.460  0.00  0.00    +0.020 A 
ATOM      9  C   UNL     1       8.957  -1.491  22.186  0.00  0.00    +0.012 A 
ATOM     10  C   UNL     1       9.522  -0.499  21.380  0.00  0.00    +0.001 A 
ATOM     11  C   UNL     1       9.557   0.817  21.820  0.00  0.00    +0.002 A 
ATOM     12  C   UNL     1       9.037   1.143  23.073  0.00  0.00    +0.024 A 
ATOM     13  C   UNL     1       8.513   0.151  23.918  0.00  0.00    +0.043 A 
ATOM     14  N   UNL     1       8.060   0.613  25.172  0.00  0.00    -0.285 N 
ATOM     15  H   UNL     1       7.837   1.597  25.254  0.00  0.00    +0.155 HD
ATOM     16  C   UNL     1       7.934  -0.039  26.370  0.00  0.00    +0.222 C 
ATOM     17  O   UNL     1       7.436   0.565  27.323  0.00  0.00    -0.275 OA
ATOM     18  C   UNL     1       8.535  -1.417  26.541  0.00  0.00    +0.134 C 
ATOM     19  C   UNL     1       7.886  -2.396  25.639  0.00  0.00    -0.005 A 
ATOM     20  C   UNL     1       7.222  -3.607  25.981  0.00  0.00    +0.010 A 
ATOM     21  C   UNL     1       6.991  -4.283  27.195  0.00  0.00    +0.094 A 
ENDROOT
BRANCH   1  23
ATOM     22  O   UNL     1       5.627  -7.377  28.359  0.00  0.00    -0.576 OA
ATOM     23  N   UNL     1       6.058  -6.216  28.427  0.00  0.00    +0.080 N 
ATOM     24  O   UNL     1       6.312  -5.621  29.486  0.00  0.00    +0.041 OA
ENDBRANCH   1  23
TORSDOF 1
ENDMDL
MODEL 5
REMARK VINA RESULT:      -7.1      2.386      2.726
REMARK  Name = 
REMARK  1 active torsions:
REMARK  status: ('A' for Active; 'I' for Inactive)
REMARK    1  A    between atoms: N_2  and  C_4
REMARK                            x       y       z     vdW  Elec       q    Type
REMARK                         _______ _______ _______ _____ _____    ______ ____
ROOT
ATOM      1  C   UNL     1       7.575  -4.824  26.328  0.00  0.00    +0.274 A 
ATOM      2  C   UNL     1       8.620  -5.220  25.485  0.00  0.00    +0.086 A 
ATOM      3  C   UNL     1       9.342  -4.268  24.754  0.00  0.00    +0.033 A 
ATOM      4  C   UNL     1       8.982  -2.922  24.905  0.00  0.00    +0.048 A 
ATOM      5  N   UNL     1       9.520  -1.786  24.337  0.00  0.00    -0.354 N 
ATOM      6  H   UNL     1      10.289  -1.786  23.681  0.00  0.00    +0.166 HD
ATOM      7  C   UNL     1       8.860  -0.663  24.777  0.00  0.00    +0.053 A 
ATOM      8  C   UNL     1       9.182   0.715  24.398  0.00  0.00    +0.020 A 
ATOM      9  C   UNL     1      10.529   1.075  24.207  0.00  0.00    +0.012 A 
ATOM     10  C   UNL     1      10.882   2.375  23.837  0.00  0.00    +0.001 A 
ATOM     11  C   UNL     1       9.896   3.329  23.626  0.00  0.00    +0.002 A 
ATOM     12  C   UNL     1       8.554   2.987  23.794  0.00  0.00    +0.024 A 
ATOM     13  C   UNL     1       8.184   1.699  24.215  0.00  0.00    +0.043 A 
ATOM     14  N   UNL     1       6.797   1.503  24.385  0.00  0.00    -0.285 N 
ATOM     15  H   UNL     1       6.173   2.139  23.905  0.00  0.00    +0.155 HD
ATOM     16  C   UNL     1       6.112   0.619  25.177  0.00  0.00    +0.222 C 
ATOM     17  O   UNL     1       4.882   0.585  25.098  0.00  0.00    -0.275 OA
ATOM     18  C   UNL     1       6.855  -0.181  26.225  0.00  0.00    +0.134 C 
ATOM     19  C   UNL     1       7.837  -1.095  25.598  0.00  0.00    -0.005 A 
ATOM     20  C   UNL     1       7.930  -2.509  25.720  0.00  0.00    +0.010 A 
ATOM     21  C   UNL     1       7.208  -3.475  26.449  0.00  0.00    +0.094 A 
ENDROOT
BRANCH   1  23
ATOM     22  O   UNL     1       5.895  -6.411  26.571  0.00  0.00    -0.576 OA
ATOM     23  N   UNL     1       6.849  -5.832  27.112  0.00  0.00    +0.080 N 
ATOM     24  O   UNL     1       7.229  -6.040  28.275  0.00  0.00    +0.041 OA
ENDBRANCH   1  23
TORSDOF 1
ENDMDL
MODEL 6
REMARK VINA RESULT:      -7.1      2.929      4.530
REMARK  Name = 
REMARK  1 active torsions:
REMARK  status: ('A' for Active; 'I' for Inactive)
REMARK    1  A    between atoms: N_2  and  C_4
REMARK                            x       y       z     vdW  Elec       q    Type
REMARK                         _______ _______ _______ _____ _____    ______ ____
ROOT
ATOM      1  C   UNL     1       7.982  -1.758  22.951  0.00  0.00    +0.274 A 
ATOM      2  C   UNL     1       8.809  -1.779  21.821  0.00  0.00    +0.086 A 
ATOM      3  C   UNL     1       9.605  -0.672  21.503  0.00  0.00    +0.033 A 
ATOM      4  C   UNL     1       9.544   0.439  22.355  0.00  0.00    +0.048 A 
ATOM      5  N   UNL     1      10.220   1.640  22.303  0.00  0.00    -0.354 N 
ATOM      6  H   UNL     1      10.881   1.892  21.582  0.00  0.00    +0.166 HD
ATOM      7  C   UNL     1       9.860   2.446  23.358  0.00  0.00    +0.053 A 
ATOM      8  C   UNL     1      10.398   3.781  23.629  0.00  0.00    +0.020 A 
ATOM      9  C   UNL     1      11.753   4.041  23.354  0.00  0.00    +0.012 A 
ATOM     10  C   UNL     1      12.309   5.301  23.589  0.00  0.00    +0.001 A 
ATOM     11  C   UNL     1      11.514   6.329  24.078  0.00  0.00    +0.002 A 
ATOM     12  C   UNL     1      10.164   6.096  24.341  0.00  0.00    +0.024 A 
ATOM     13  C   UNL     1       9.602   4.822  24.160  0.00  0.00    +0.043 A 
ATOM     14  N   UNL     1       8.237   4.717  24.504  0.00  0.00    -0.285 N 
ATOM     15  H   UNL     1       7.696   5.572  24.534  0.00  0.00    +0.155 HD
ATOM     16  C   UNL     1       7.499   3.632  24.898  0.00  0.00    +0.222 C 
ATOM     17  O   UNL     1       6.287   3.776  25.076  0.00  0.00    -0.275 OA
ATOM     18  C   UNL     1       8.196   2.336  25.247  0.00  0.00    +0.134 C 
ATOM     19  C   UNL     1       8.887   1.769  24.066  0.00  0.00    -0.005 A 
ATOM     20  C   UNL     1       8.710   0.489  23.470  0.00  0.00    +0.010 A 
ATOM     21  C   UNL     1       7.911  -0.629  23.780  0.00  0.00    +0.094 A 
ENDROOT
BRANCH   1  23
ATOM     22  O   UNL     1       6.799  -3.668  22.357  0.00  0.00    -0.576 OA
ATOM     23  N   UNL     1       7.177  -2.941  23.287  0.00  0.00    +0.080 N 
ATOM     24  O   UNL     1       6.916  -3.137  24.484  0.00  0.00    +0.041 OA
ENDBRANCH   1  23
TORSDOF 1
ENDMDL
MODEL 7
REMARK VINA RESULT:      -7.1      3.784      7.706
REMARK  Name = 
REMARK  1 active torsions:
REMARK  status: ('A' for Active; 'I' for Inactive)
REMARK    1  A    between atoms: N_2  and  C_4
REMARK                            x       y       z     vdW  Elec       q    Type
REMARK                         _______ _______ _______ _____ _____    ______ ____
ROOT
ATOM      1  C   UNL     1       9.329   4.565  24.198  0.00  0.00    +0.274 A 
ATOM      2  C   UNL     1       8.363   4.645  25.208  0.00  0.00    +0.086 A 
ATOM      3  C   UNL     1       7.817   3.481  25.761  0.00  0.00    +0.033 A 
ATOM      4  C   UNL     1       8.276   2.250  25.272  0.00  0.00    +0.048 A 
ATOM      5  N   UNL     1       7.939   0.963  25.638  0.00  0.00    -0.354 N 
ATOM      6  H   UNL     1       7.257   0.732  26.346  0.00  0.00    +0.166 HD
ATOM      7  C   UNL     1       8.650   0.047  24.898  0.00  0.00    +0.053 A 
ATOM      8  C   UNL     1       8.562  -1.409  25.038  0.00  0.00    +0.020 A 
ATOM      9  C   UNL     1       8.378  -1.963  26.319  0.00  0.00    +0.012 A 
ATOM     10  C   UNL     1       8.280  -3.344  26.500  0.00  0.00    +0.001 A 
ATOM     11  C   UNL     1       8.338  -4.194  25.403  0.00  0.00    +0.002 A 
ATOM     12  C   UNL     1       8.503  -3.663  24.124  0.00  0.00    +0.024 A 
ATOM     13  C   UNL     1       8.654  -2.280  23.929  0.00  0.00    +0.043 A 
ATOM     14  N   UNL     1       8.855  -1.884  22.589  0.00  0.00    -0.285 N 
ATOM     15  H   UNL     1       8.560  -2.525  21.864  0.00  0.00    +0.155 HD
ATOM     16  C   UNL     1       9.473  -0.777  22.071  0.00  0.00    +0.222 C 
ATOM     17  O   UNL     1       9.458  -0.610  20.848  0.00  0.00    -0.275 OA
ATOM     18  C   UNL     1      10.279   0.128  22.977  0.00  0.00    +0.134 C 
ATOM     19  C   UNL     1       9.413   0.763  23.998  0.00  0.00    -0.005 A 
ATOM     20  C   UNL     1       9.220   2.149  24.251  0.00  0.00    +0.010 A 
ATOM     21  C   UNL     1       9.761   3.327  23.699  0.00  0.00    +0.094 A 
ENDROOT
BRANCH   1  23
ATOM     22  O   UNL     1       9.149   6.735  23.387  0.00  0.00    -0.576 OA
ATOM     23  N   UNL     1       9.915   5.797  23.651  0.00  0.00    +0.080 N 
ATOM     24  O   UNL     1      11.143   5.821  23.476  0.00  0.00    +0.041 OA
ENDBRANCH   1  23
TORSDOF 1
ENDMDL
MODEL 8
REMARK VINA RESULT:      -7.0      2.517      6.696
REMARK  Name = 
REMARK  1 active torsions:
REMARK  status: ('A' for Active; 'I' for Inactive)
REMARK    1  A    between atoms: N_2  and  C_4
REMARK                            x       y       z     vdW  Elec       q    Type
REMARK                         _______ _______ _______ _____ _____    ______ ____
ROOT
ATOM      1  C   UNL     1       8.898   1.983  22.872  0.00  0.00    +0.274 A 
ATOM      2  C   UNL     1       9.792   1.418  21.955  0.00  0.00    +0.086 A 
ATOM      3  C   UNL     1       9.707   0.060  21.624  0.00  0.00    +0.033 A 
ATOM      4  C   UNL     1       8.699  -0.697  22.237  0.00  0.00    +0.048 A 
ATOM      5  N   UNL     1       8.369  -2.028  22.089  0.00  0.00    -0.354 N 
ATOM      6  H   UNL     1       8.859  -2.673  21.487  0.00  0.00    +0.166 HD
ATOM      7  C   UNL     1       7.292  -2.352  22.881  0.00  0.00    +0.053 A 
ATOM      8  C   UNL     1       6.660  -3.671  22.957  0.00  0.00    +0.020 A 
ATOM      9  C   UNL     1       6.565  -4.451  21.789  0.00  0.00    +0.012 A 
ATOM     10  C   UNL     1       5.977  -5.719  21.815  0.00  0.00    +0.001 A 
ATOM     11  C   UNL     1       5.499  -6.238  23.011  0.00  0.00    +0.002 A 
ATOM     12  C   UNL     1       5.599  -5.487  24.181  0.00  0.00    +0.024 A 
ATOM     13  C   UNL     1       6.140  -4.190  24.164  0.00  0.00    +0.043 A 
ATOM     14  N   UNL     1       6.142  -3.528  25.410  0.00  0.00    -0.285 N 
ATOM     15  H   UNL     1       6.077  -4.100  26.243  0.00  0.00    +0.155 HD
ATOM     16  C   UNL     1       6.138  -2.191  25.709  0.00  0.00    +0.222 C 
ATOM     17  O   UNL     1       6.218  -1.849  26.891  0.00  0.00    -0.275 OA
ATOM     18  C   UNL     1       5.888  -1.178  24.613  0.00  0.00    +0.134 C 
ATOM     19  C   UNL     1       6.965  -1.218  23.597  0.00  0.00    -0.005 A 
ATOM     20  C   UNL     1       7.814  -0.159  23.170  0.00  0.00    +0.010 A 
ATOM     21  C   UNL     1       7.910   1.207  23.498  0.00  0.00    +0.094 A 
ENDROOT
BRANCH   1  23
ATOM     22  O   UNL     1       8.018   4.133  22.879  0.00  0.00    -0.576 OA
ATOM     23  N   UNL     1       8.982   3.416  23.184  0.00  0.00    +0.080 N 
ATOM     24  O   UNL     1      10.019   3.826  23.728  0.00  0.00    +0.041 OA
ENDBRANCH   1  23
TORSDOF 1
ENDMDL
MODEL 9
REMARK VINA RESULT:      -7.0      1.763      2.043
REMARK  Name = 
REMARK  1 active torsions:
REMARK  status: ('A' for Active; 'I' for Inactive)
REMARK    1  A    between atoms: N_2  and  C_4
REMARK                            x       y       z     vdW  Elec       q    Type
REMARK                         _______ _______ _______ _____ _____    ______ ____
ROOT
ATOM      1  C   UNL     1       5.151  -5.620  23.335  0.00  0.00    +0.274 A 
ATOM      2  C   UNL     1       5.957  -5.830  22.210  0.00  0.00    +0.086 A 
ATOM      3  C   UNL     1       6.974  -4.923  21.886  0.00  0.00    +0.033 A 
ATOM      4  C   UNL     1       7.151  -3.816  22.727  0.00  0.00    +0.048 A 
ATOM      5  N   UNL     1       8.069  -2.789  22.668  0.00  0.00    -0.354 N 
ATOM      6  H   UNL     1       8.771  -2.693  21.947  0.00  0.00    +0.166 HD
ATOM      7  C   UNL     1       7.889  -1.914  23.713  0.00  0.00    +0.053 A 
ATOM      8  C   UNL     1       8.701  -0.723  23.975  0.00  0.00    +0.020 A 
ATOM      9  C   UNL     1      10.081  -0.764  23.704  0.00  0.00    +0.012 A 
ATOM     10  C   UNL     1      10.894   0.349  23.930  0.00  0.00    +0.001 A 
ATOM     11  C   UNL     1      10.337   1.529  24.406  0.00  0.00    +0.002 A 
ATOM     12  C   UNL     1       8.968   1.594  24.665  0.00  0.00    +0.024 A 
ATOM     13  C   UNL     1       8.145   0.469  24.492  0.00  0.00    +0.043 A 
ATOM     14  N   UNL     1       6.790   0.664  24.832  0.00  0.00    -0.285 N 
ATOM     15  H   UNL     1       6.445   1.615  24.851  0.00  0.00    +0.155 HD
ATOM     16  C   UNL     1       5.834  -0.233  25.232  0.00  0.00    +0.222 C 
ATOM     17  O   UNL     1       4.680   0.169  25.403  0.00  0.00    -0.275 OA
ATOM     18  C   UNL     1       6.235  -1.646  25.596  0.00  0.00    +0.134 C 
ATOM     19  C   UNL     1       6.791  -2.359  24.423  0.00  0.00    -0.005 A 
ATOM     20  C   UNL     1       6.344  -3.577  23.838  0.00  0.00    +0.010 A 
ATOM     21  C   UNL     1       5.323  -4.494  24.154  0.00  0.00    +0.094 A 
ENDROOT
BRANCH   1  23
ATOM     22  O   UNL     1       2.992  -6.460  23.162  0.00  0.00    -0.576 OA
ATOM     23  N   UNL     1       4.110  -6.599  23.679  0.00  0.00    +0.080 N 
ATOM     24  O   UNL     1       4.411  -7.502  24.474  0.00  0.00    +0.041 OA
ENDBRANCH   1  23
TORSDOF 1
ENDMDL
