MODEL 1
REMARK VINA RESULT:      -4.8      0.000      0.000
REMARK  Name = 
REMARK  2 active torsions:
REMARK  status: ('A' for Active; 'I' for Inactive)
REMARK    1  A    between atoms: O_1  and  C_2
REMARK    2  A    between atoms: C_5  and  N_8
REMARK                            x       y       z     vdW  Elec       q    Type
REMARK                         _______ _______ _______ _____ _____    ______ ____
ROOT
ATOM      1  C   UNL     1      10.036   1.095  22.210  0.00  0.00    +0.117 A 
ATOM      2  C   UNL     1      10.359   1.056  23.564  0.00  0.00    +0.052 A 
ATOM      3  C   UNL     1      10.175  -0.124  24.288  0.00  0.00    +0.088 A 
ATOM      4  C   UNL     1       9.667  -1.257  23.638  0.00  0.00    +0.273 A 
ATOM      5  C   UNL     1       9.348  -1.213  22.271  0.00  0.00    +0.088 A 
ATOM      6  C   UNL     1       9.535  -0.028  21.556  0.00  0.00    +0.052 A 
ENDROOT
BRANCH   4   7
ATOM      7  N   UNL     1       9.462  -2.499  24.393  0.00  0.00    +0.080 N 
ATOM      8  O   UNL     1       8.608  -2.495  25.292  0.00  0.00    +0.041 OA
ATOM      9  O   UNL     1      10.155  -3.480  24.086  0.00  0.00    -0.576 OA
ENDBRANCH   4   7
BRANCH   1  10
ATOM     10  O   UNL     1      10.227   2.273  21.551  0.00  0.00    -0.507 OA
ATOM     11  H   UNL     1      10.408   2.088  20.616  0.00  0.00    +0.292 HD
ENDBRANCH   1  10
TORSDOF 2
ENDMDL
MODEL 2
REMARK VINA RESULT:      -4.8      0.222      1.826
REMARK  Name = 
REMARK  2 active torsions:
REMARK  status: ('A' for Active; 'I' for Inactive)
REMARK    1  A    between atoms: O_1  and  C_2
REMARK    2  A    between atoms: C_5  and  N_8
REMARK                            x       y       z     vdW  Elec       q    Type
REMARK                         _______ _______ _______ _____ _____    ______ ____
ROOT
ATOM      1  C   UNL     1      10.031   1.095  22.217  0.00  0.00    +0.117 A 
ATOM      2  C   UNL     1       9.491   0.027  21.506  0.00  0.00    +0.052 A 
ATOM      3  C   UNL     1       9.264  -1.191  22.149  0.00  0.00    +0.088 A 
ATOM      4  C   UNL     1       9.584  -1.321  23.508  0.00  0.00    +0.273 A 
ATOM      5  C   UNL     1      10.123  -0.239  24.221  0.00  0.00    +0.088 A 
ATOM      6  C   UNL     1      10.347   0.976  23.568  0.00  0.00    +0.052 A 
ENDROOT
BRANCH   4   7
ATOM      7  N   UNL     1       9.356  -2.601  24.190  0.00  0.00    +0.080 N 
ATOM      8  O   UNL     1      10.220  -3.482  24.070  0.00  0.00    +0.041 OA
ATOM      9  O   UNL     1       8.313  -2.725  24.848  0.00  0.00    -0.576 OA
ENDBRANCH   4   7
BRANCH   1  10
ATOM     10  O   UNL     1      10.240   2.260  21.540  0.00  0.00    -0.507 OA
ATOM     11  H   UNL     1       9.417   2.522  21.097  0.00  0.00    +0.292 HD
ENDBRANCH   1  10
TORSDOF 2
ENDMDL
MODEL 3
REMARK VINA RESULT:      -4.5      2.662      4.322
REMARK  Name = 
REMARK  2 active torsions:
REMARK  status: ('A' for Active; 'I' for Inactive)
REMARK    1  A    between atoms: O_1  and  C_2
REMARK    2  A    between atoms: C_5  and  N_8
REMARK                            x       y       z     vdW  Elec       q    Type
REMARK                         _______ _______ _______ _____ _____    ______ ____
ROOT
ATOM      1  C   UNL     1       9.958  -0.577  22.186  0.00  0.00    +0.117 A 
ATOM      2  C   UNL     1      10.539  -0.362  23.432  0.00  0.00    +0.052 A 
ATOM      3  C   UNL     1      10.641   0.936  23.937  0.00  0.00    +0.088 A 
ATOM      4  C   UNL     1      10.152   2.008  23.179  0.00  0.00    +0.273 A 
ATOM      5  C   UNL     1       9.562   1.785  21.925  0.00  0.00    +0.088 A 
ATOM      6  C   UNL     1       9.466   0.483  21.428  0.00  0.00    +0.052 A 
ENDROOT
BRANCH   4   7
ATOM      7  N   UNL     1      10.262   3.377  23.698  0.00  0.00    +0.080 N 
ATOM      8  O   UNL     1      11.290   4.016  23.430  0.00  0.00    +0.041 OA
ATOM      9  O   UNL     1       9.319   3.814  24.373  0.00  0.00    -0.576 OA
ENDBRANCH   4   7
BRANCH   1  10
ATOM     10  O   UNL     1       9.890  -1.861  21.735  0.00  0.00    -0.507 OA
ATOM     11  H   UNL     1       9.924  -1.860  20.765  0.00  0.00    +0.292 HD
ENDBRANCH   1  10
TORSDOF 2
ENDMDL
MODEL 4
REMARK VINA RESULT:      -4.4      2.759      4.435
REMARK  Name = 
REMARK  2 active torsions:
REMARK  status: ('A' for Active; 'I' for Inactive)
REMARK    1  A    between atoms: O_1  and  C_2
REMARK    2  A    between atoms: C_5  and  N_8
REMARK                            x       y       z     vdW  Elec       q    Type
REMARK                         _______ _______ _______ _____ _____    ______ ____
ROOT
ATOM      1  C   UNL     1      10.031  -0.393  22.203  0.00  0.00    +0.117 A 
ATOM      2  C   UNL     1       9.407   0.640  21.508  0.00  0.00    +0.052 A 
ATOM      3  C   UNL     1       9.267   1.894  22.107  0.00  0.00    +0.088 A 
ATOM      4  C   UNL     1       9.760   2.095  23.404  0.00  0.00    +0.273 A 
ATOM      5  C   UNL     1      10.392   1.051  24.097  0.00  0.00    +0.088 A 
ATOM      6  C   UNL     1      10.527  -0.200  23.490  0.00  0.00    +0.052 A 
ENDROOT
BRANCH   4   7
ATOM      7  N   UNL     1       9.610   3.407  24.044  0.00  0.00    +0.080 N 
ATOM      8  O   UNL     1      10.356   4.323  23.668  0.00  0.00    +0.041 OA
ATOM      9  O   UNL     1       8.744   3.523  24.924  0.00  0.00    -0.576 OA
ENDBRANCH   4   7
BRANCH   1  10
ATOM     10  O   UNL     1      10.135  -1.599  21.577  0.00  0.00    -0.507 OA
ATOM     11  H   UNL     1       9.369  -2.147  21.813  0.00  0.00    +0.292 HD
ENDBRANCH   1  10
TORSDOF 2
ENDMDL
MODEL 5
REMARK VINA RESULT:      -4.2      4.883      6.396
REMARK  Name = 
REMARK  2 active torsions:
REMARK  status: ('A' for Active; 'I' for Inactive)
REMARK    1  A    between atoms: O_1  and  C_2
REMARK    2  A    between atoms: C_5  and  N_8
REMARK                            x       y       z     vdW  Elec       q    Type
REMARK                         _______ _______ _______ _____ _____    ______ ____
ROOT
ATOM      1  C   UNL     1       7.577  -5.519  26.506  0.00  0.00    +0.117 A 
ATOM      2  C   UNL     1       6.348  -5.551  25.851  0.00  0.00    +0.052 A 
ATOM      3  C   UNL     1       6.267  -5.181  24.508  0.00  0.00    +0.088 A 
ATOM      4  C   UNL     1       7.429  -4.781  23.834  0.00  0.00    +0.273 A 
ATOM      5  C   UNL     1       8.666  -4.755  24.497  0.00  0.00    +0.088 A 
ATOM      6  C   UNL     1       8.737  -5.127  25.842  0.00  0.00    +0.052 A 
ENDROOT
BRANCH   4   7
ATOM      7  N   UNL     1       7.352  -4.382  22.423  0.00  0.00    +0.080 N 
ATOM      8  O   UNL     1       7.478  -3.178  22.155  0.00  0.00    +0.041 OA
ATOM      9  O   UNL     1       7.165  -5.273  21.582  0.00  0.00    -0.576 OA
ENDBRANCH   4   7
BRANCH   1  10
ATOM     10  O   UNL     1       7.600  -5.882  27.819  0.00  0.00    -0.507 OA
ATOM     11  H   UNL     1       8.418  -6.374  27.998  0.00  0.00    +0.292 HD
ENDBRANCH   1  10
TORSDOF 2
ENDMDL
MODEL 6
REMARK VINA RESULT:      -4.2      1.869      2.313
REMARK  Name = 
REMARK  2 active torsions:
REMARK  status: ('A' for Active; 'I' for Inactive)
REMARK    1  A    between atoms: O_1  and  C_2
REMARK    2  A    between atoms: C_5  and  N_8
REMARK                            x       y       z     vdW  Elec       q    Type
REMARK                         _______ _______ _______ _____ _____    ______ ____
ROOT
ATOM      1  C   UNL     1       8.468   2.102  22.210  0.00  0.00    +0.117 A 
ATOM      2  C   UNL     1       7.451   1.276  22.679  0.00  0.00    +0.052 A 
ATOM      3  C   UNL     1       7.676  -0.095  22.814  0.00  0.00    +0.088 A 
ATOM      4  C   UNL     1       8.931  -0.622  22.476  0.00  0.00    +0.273 A 
ATOM      5  C   UNL     1       9.955   0.217  22.009  0.00  0.00    +0.088 A 
ATOM      6  C   UNL     1       9.718   1.588  21.876  0.00  0.00    +0.052 A 
ENDROOT
BRANCH   4   7
ATOM      7  N   UNL     1       9.175  -2.063  22.608  0.00  0.00    +0.080 N 
ATOM      8  O   UNL     1      10.320  -2.431  22.909  0.00  0.00    +0.041 OA
ATOM      9  O   UNL     1       8.220  -2.830  22.410  0.00  0.00    -0.576 OA
ENDBRANCH   4   7
BRANCH   1  10
ATOM     10  O   UNL     1       8.193   3.432  22.088  0.00  0.00    -0.507 OA
ATOM     11  H   UNL     1       8.153   3.663  21.146  0.00  0.00    +0.292 HD
ENDBRANCH   1  10
TORSDOF 2
ENDMDL
MODEL 7
REMARK VINA RESULT:      -4.1      5.430      6.379
REMARK  Name = 
REMARK  2 active torsions:
REMARK  status: ('A' for Active; 'I' for Inactive)
REMARK    1  A    between atoms: O_1  and  C_2
REMARK    2  A    between atoms: C_5  and  N_8
REMARK                            x       y       z     vdW  Elec       q    Type
REMARK                         _______ _______ _______ _____ _____    ______ ____
ROOT
ATOM      1  C   UNL     1       5.866  -5.737  23.005  0.00  0.00    +0.117 A 
ATOM      2  C   UNL     1       7.200  -5.339  22.984  0.00  0.00    +0.052 A 
ATOM      3  C   UNL     1       7.877  -5.114  24.184  0.00  0.00    +0.088 A 
ATOM      4  C   UNL     1       7.201  -5.295  25.399  0.00  0.00    +0.273 A 
ATOM      5  C   UNL     1       5.858  -5.702  25.414  0.00  0.00    +0.088 A 
ATOM      6  C   UNL     1       5.189  -5.923  24.208  0.00  0.00    +0.052 A 
ENDROOT
BRANCH   4   7
ATOM      7  N   UNL     1       7.902  -5.053  26.665  0.00  0.00    +0.080 N 
ATOM      8  O   UNL     1       7.570  -5.730  27.649  0.00  0.00    +0.041 OA
ATOM      9  O   UNL     1       8.788  -4.185  26.677  0.00  0.00    -0.576 OA
ENDBRANCH   4   7
BRANCH   1  10
ATOM     10  O   UNL     1       5.249  -5.935  21.806  0.00  0.00    -0.507 OA
ATOM     11  H   UNL     1       5.902  -5.841  21.093  0.00  0.00    +0.292 HD
ENDBRANCH   1  10
TORSDOF 2
ENDMDL
MODEL 8
REMARK VINA RESULT:      -4.1      1.275      1.548
REMARK  Name = 
REMARK  2 active torsions:
REMARK  status: ('A' for Active; 'I' for Inactive)
REMARK    1  A    between atoms: O_1  and  C_2
REMARK    2  A    between atoms: C_5  and  N_8
REMARK                            x       y       z     vdW  Elec       q    Type
REMARK                         _______ _______ _______ _____ _____    ______ ____
ROOT
ATOM      1  C   UNL     1       8.855   0.461  21.840  0.00  0.00    +0.117 A 
ATOM      2  C   UNL     1       9.977  -0.360  21.768  0.00  0.00    +0.052 A 
ATOM      3  C   UNL     1      10.120  -1.421  22.663  0.00  0.00    +0.088 A 
ATOM      4  C   UNL     1       9.125  -1.648  23.625  0.00  0.00    +0.273 A 
ATOM      5  C   UNL     1       7.993  -0.821  23.689  0.00  0.00    +0.088 A 
ATOM      6  C   UNL     1       7.860   0.240  22.790  0.00  0.00    +0.052 A 
ENDROOT
BRANCH   4   7
ATOM      7  N   UNL     1       9.270  -2.757  24.575  0.00  0.00    +0.080 N 
ATOM      8  O   UNL     1       8.637  -2.694  25.639  0.00  0.00    +0.041 OA
ATOM      9  O   UNL     1      10.018  -3.694  24.257  0.00  0.00    -0.576 OA
ENDBRANCH   4   7
BRANCH   1  10
ATOM     10  O   UNL     1       8.768   1.489  20.949  0.00  0.00    -0.507 OA
ATOM     11  H   UNL     1       8.834   1.134  20.048  0.00  0.00    +0.292 HD
ENDBRANCH   1  10
TORSDOF 2
ENDMDL
MODEL 9
REMARK VINA RESULT:      -4.1      1.900      4.106
REMARK  Name = 
REMARK  2 active torsions:
REMARK  status: ('A' for Active; 'I' for Inactive)
REMARK    1  A    between atoms: O_1  and  C_2
REMARK    2  A    between atoms: C_5  and  N_8
REMARK                            x       y       z     vdW  Elec       q    Type
REMARK                         _______ _______ _______ _____ _____    ______ ____
ROOT
ATOM      1  C   UNL     1       9.974  -1.915  23.591  0.00  0.00    +0.117 A 
ATOM      2  C   UNL     1       9.828  -0.983  24.615  0.00  0.00    +0.052 A 
ATOM      3  C   UNL     1       9.690   0.372  24.308  0.00  0.00    +0.088 A 
ATOM      4  C   UNL     1       9.699   0.776  22.965  0.00  0.00    +0.273 A 
ATOM      5  C   UNL     1       9.840  -0.169  21.936  0.00  0.00    +0.088 A 
ATOM      6  C   UNL     1       9.979  -1.522  22.255  0.00  0.00    +0.052 A 
ENDROOT
BRANCH   4   7
ATOM      7  N   UNL     1       9.562   2.199  22.632  0.00  0.00    +0.080 N 
ATOM      8  O   UNL     1      10.425   2.979  23.063  0.00  0.00    +0.041 OA
ATOM      9  O   UNL     1       8.592   2.538  21.938  0.00  0.00    -0.576 OA
ENDBRANCH   4   7
BRANCH   1  10
ATOM     10  O   UNL     1      10.113  -3.223  23.946  0.00  0.00    -0.507 OA
ATOM     11  H   UNL     1       9.263  -3.677  23.826  0.00  0.00    +0.292 HD
ENDBRANCH   1  10
TORSDOF 2
ENDMDL
