MODEL 1
REMARK VINA RESULT:      -6.3      0.000      0.000
REMARK  Name = 
REMARK  19 active torsions:
REMARK  status: ('A' for Active; 'I' for Inactive)
REMARK    1  A    between atoms: C_1  and  C_2
REMARK    2  A    between atoms: C_2  and  C_3
REMARK    3  A    between atoms: C_2  and  O_4
REMARK    4  A    between atoms: O_4  and  C_5
REMARK    5  A    between atoms: C_5  and  C_7
REMARK    6  A    between atoms: C_7  and  C_8
REMARK    7  A    between atoms: C_8  and  C_9
REMARK    8  A    between atoms: C_9  and  C_10
REMARK    9  A    between atoms: C_11  and  C_12
REMARK   10  A    between atoms: C_12  and  C_13
REMARK   11  A    between atoms: C_15  and  O_17
REMARK   12  A    between atoms: C_19  and  O_21
REMARK   13  A    between atoms: C_22  and  C_24
REMARK   14  A    between atoms: C_25  and  C_26
REMARK   15  A    between atoms: C_26  and  O_28
REMARK   16  A    between atoms: C_26  and  C_29
REMARK   17  A    between atoms: C_29  and  O_30
REMARK   18  A    between atoms: O_30  and  C_31
REMARK   19  A    between atoms: C_35  and  C_37
REMARK                            x       y       z     vdW  Elec       q    Type
REMARK                         _______ _______ _______ _____ _____    ______ ____
ROOT
ATOM      1  C   UNL     1       8.313  -3.635  24.329  0.00  0.00    +0.031 C 
ATOM      2  C   UNL     1       7.985  -3.343  25.825  0.00  0.00    +0.046 C 
ATOM      3  C   UNL     1       8.084  -4.726  26.529  0.00  0.00    +0.124 C 
ATOM      4  C   UNL     1       8.284  -5.757  25.422  0.00  0.00    +0.063 C 
ATOM      5  C   UNL     1       9.042  -4.984  24.358  0.00  0.00    +0.121 C 
ENDROOT
BRANCH   2   6
ATOM      6  C   UNL     1       6.676  -2.581  25.945  0.00  0.00    -0.022 C 
ATOM      7  C   UNL     1       5.646  -2.862  26.763  0.00  0.00    +0.003 C 
BRANCH   7   8
ATOM      8  C   UNL     1       4.326  -2.140  26.859  0.00  0.00    +0.174 C 
BRANCH   8   9
ATOM      9  O   UNL     1       4.370  -0.951  26.073  0.00  0.00    -0.384 OA
ATOM     10  H   UNL     1       5.247  -0.560  26.218  0.00  0.00    +0.210 HD
ENDBRANCH   8   9
BRANCH   8  11
ATOM     11  C   UNL     1       3.167  -3.043  26.389  0.00  0.00    +0.264 C 
BRANCH  11  12
ATOM     12  O   UNL     1       3.155  -3.074  24.957  0.00  0.00    -0.489 OA
BRANCH  12  13
ATOM     13  C   UNL     1       3.801  -4.128  24.374  0.00  0.00    +0.121 A 
ATOM     14  C   UNL     1       4.552  -4.054  23.200  0.00  0.00    +0.058 A 
ATOM     15  C   UNL     1       5.273  -5.174  22.743  0.00  0.00    +0.058 A 
ATOM     16  C   UNL     1       5.208  -6.372  23.469  0.00  0.00    +0.012 A 
ATOM     17  C   UNL     1       4.452  -6.446  24.638  0.00  0.00    +0.004 A 
ATOM     18  C   UNL     1       3.762  -5.322  25.093  0.00  0.00    +0.045 A 
BRANCH  15  19
ATOM     19  C   UNL     1       6.128  -5.057  21.505  0.00  0.00    +0.418 C 
ATOM     20  F   UNL     1       6.033  -3.827  20.925  0.00  0.00    -0.166 F 
ATOM     21  F   UNL     1       5.774  -5.951  20.541  0.00  0.00    -0.166 F 
ATOM     22  F   UNL     1       7.455  -5.258  21.734  0.00  0.00    -0.166 F 
ENDBRANCH  15  19
ENDBRANCH  12  13
ENDBRANCH  11  12
ENDBRANCH   8  11
ENDBRANCH   7   8
ENDBRANCH   2   6
BRANCH   5  23
ATOM     23  O   UNL     1      10.395  -4.844  24.785  0.00  0.00    -0.391 OA
ATOM     24  H   UNL     1      10.398  -4.218  25.531  0.00  0.00    +0.210 HD
ENDBRANCH   5  23
BRANCH   3  25
ATOM     25  O   UNL     1       9.210  -4.733  27.408  0.00  0.00    -0.391 OA
ATOM     26  H   UNL     1       9.837  -5.388  27.044  0.00  0.00    +0.210 HD
ENDBRANCH   3  25
BRANCH   1  27
ATOM     27  C   UNL     1       9.108  -2.496  23.674  0.00  0.00    +0.033 C 
BRANCH  27  29
ATOM     28  C   UNL     1       8.996  -1.084  21.572  0.00  0.00    -0.031 C 
ATOM     29  C   UNL     1       8.546  -2.091  22.336  0.00  0.00    -0.031 C 
BRANCH  28  30
ATOM     30  C   UNL     1      10.150  -0.192  21.935  0.00  0.00    +0.027 C 
BRANCH  30  31
ATOM     31  C   UNL     1       9.750   1.280  21.932  0.00  0.00    +0.015 C 
BRANCH  31  32
ATOM     32  C   UNL     1      10.406   2.034  23.086  0.00  0.00    +0.121 C 
BRANCH  32  33
ATOM     33  C   UNL     1      10.046   1.397  24.403  0.00  0.00    +0.307 C 
ATOM     34  O   UNL     1      10.763   0.630  25.030  0.00  0.00    -0.251 OA
BRANCH  33  35
ATOM     35  O   UNL     1       8.809   1.809  24.797  0.00  0.00    -0.462 OA
BRANCH  35  37
ATOM     36  C   UNL     1       7.321   1.037  26.538  0.00  0.00    +0.052 C 
ATOM     37  C   UNL     1       7.904   0.751  25.158  0.00  0.00    +0.170 C 
ATOM     38  C   UNL     1       6.805   0.698  24.105  0.00  0.00    +0.052 C 
ENDBRANCH  35  37
ENDBRANCH  33  35
ENDBRANCH  32  33
ENDBRANCH  31  32
ENDBRANCH  30  31
ENDBRANCH  28  30
ENDBRANCH  27  29
ENDBRANCH   1  27
TORSDOF 17
ENDMDL
MODEL 2
REMARK VINA RESULT:      -6.2      1.598      5.185
REMARK  Name = 
REMARK  19 active torsions:
REMARK  status: ('A' for Active; 'I' for Inactive)
REMARK    1  A    between atoms: C_1  and  C_2
REMARK    2  A    between atoms: C_2  and  C_3
REMARK    3  A    between atoms: C_2  and  O_4
REMARK    4  A    between atoms: O_4  and  C_5
REMARK    5  A    between atoms: C_5  and  C_7
REMARK    6  A    between atoms: C_7  and  C_8
REMARK    7  A    between atoms: C_8  and  C_9
REMARK    8  A    between atoms: C_9  and  C_10
REMARK    9  A    between atoms: C_11  and  C_12
REMARK   10  A    between atoms: C_12  and  C_13
REMARK   11  A    between atoms: C_15  and  O_17
REMARK   12  A    between atoms: C_19  and  O_21
REMARK   13  A    between atoms: C_22  and  C_24
REMARK   14  A    between atoms: C_25  and  C_26
REMARK   15  A    between atoms: C_26  and  O_28
REMARK   16  A    between atoms: C_26  and  C_29
REMARK   17  A    between atoms: C_29  and  O_30
REMARK   18  A    between atoms: O_30  and  C_31
REMARK   19  A    between atoms: C_35  and  C_37
REMARK                            x       y       z     vdW  Elec       q    Type
REMARK                         _______ _______ _______ _____ _____    ______ ____
ROOT
ATOM      1  C   UNL     1       8.939   0.860  23.103  0.00  0.00    +0.031 C 
ATOM      2  C   UNL     1       7.579   1.617  23.032  0.00  0.00    +0.046 C 
ATOM      3  C   UNL     1       7.941   3.107  23.286  0.00  0.00    +0.124 C 
ATOM      4  C   UNL     1       9.421   3.132  23.657  0.00  0.00    +0.063 C 
ATOM      5  C   UNL     1       9.993   1.955  22.888  0.00  0.00    +0.121 C 
ENDROOT
BRANCH   2   6
ATOM      6  C   UNL     1       6.560   0.971  23.955  0.00  0.00    -0.022 C 
ATOM      7  C   UNL     1       6.812   0.191  25.022  0.00  0.00    +0.003 C 
BRANCH   7   8
ATOM      8  C   UNL     1       5.809  -0.491  25.918  0.00  0.00    +0.174 C 
BRANCH   8   9
ATOM      9  O   UNL     1       4.549   0.169  25.819  0.00  0.00    -0.384 OA
ATOM     10  H   UNL     1       4.720   1.023  25.390  0.00  0.00    +0.210 HD
ENDBRANCH   8   9
BRANCH   8  11
ATOM     11  C   UNL     1       5.656  -1.981  25.542  0.00  0.00    +0.264 C 
BRANCH  11  12
ATOM     12  O   UNL     1       4.639  -2.105  24.542  0.00  0.00    -0.489 OA
BRANCH  12  13
ATOM     13  C   UNL     1       4.553  -3.319  23.921  0.00  0.00    +0.121 A 
ATOM     14  C   UNL     1       5.490  -3.824  23.019  0.00  0.00    +0.058 A 
ATOM     15  C   UNL     1       5.367  -5.135  22.521  0.00  0.00    +0.058 A 
ATOM     16  C   UNL     1       4.276  -5.919  22.923  0.00  0.00    +0.012 A 
ATOM     17  C   UNL     1       3.336  -5.411  23.819  0.00  0.00    +0.004 A 
ATOM     18  C   UNL     1       3.484  -4.119  24.323  0.00  0.00    +0.045 A 
BRANCH  15  19
ATOM     19  C   UNL     1       6.424  -5.684  21.595  0.00  0.00    +0.418 C 
ATOM     20  F   UNL     1       6.789  -6.956  21.922  0.00  0.00    -0.166 F 
ATOM     21  F   UNL     1       7.570  -4.950  21.618  0.00  0.00    -0.166 F 
ATOM     22  F   UNL     1       6.037  -5.733  20.290  0.00  0.00    -0.166 F 
ENDBRANCH  15  19
ENDBRANCH  12  13
ENDBRANCH  11  12
ENDBRANCH   8  11
ENDBRANCH   7   8
ENDBRANCH   2   6
BRANCH   5  23
ATOM     23  O   UNL     1      10.097   2.325  21.515  0.00  0.00    -0.391 OA
ATOM     24  H   UNL     1       9.222   2.184  21.112  0.00  0.00    +0.210 HD
ENDBRANCH   5  23
BRANCH   3  25
ATOM     25  O   UNL     1       7.729   3.860  22.090  0.00  0.00    -0.391 OA
ATOM     26  H   UNL     1       7.198   3.292  21.500  0.00  0.00    +0.210 HD
ENDBRANCH   3  25
BRANCH   1  27
ATOM     27  C   UNL     1       9.015  -0.300  22.099  0.00  0.00    +0.033 C 
BRANCH  27  29
ATOM     28  C   UNL     1      10.204  -2.302  23.100  0.00  0.00    -0.031 C 
ATOM     29  C   UNL     1      10.201  -1.198  22.338  0.00  0.00    -0.031 C 
BRANCH  28  30
ATOM     30  C   UNL     1       9.008  -2.824  23.844  0.00  0.00    +0.027 C 
BRANCH  30  31
ATOM     31  C   UNL     1       9.291  -4.174  24.494  0.00  0.00    +0.015 C 
BRANCH  31  32
ATOM     32  C   UNL     1       8.010  -4.812  25.027  0.00  0.00    +0.121 C 
BRANCH  32  33
ATOM     33  C   UNL     1       8.131  -5.083  26.504  0.00  0.00    +0.307 C 
ATOM     34  O   UNL     1       8.941  -4.550  27.249  0.00  0.00    -0.251 OA
BRANCH  33  35
ATOM     35  O   UNL     1       7.199  -5.999  26.887  0.00  0.00    -0.462 OA
BRANCH  35  37
ATOM     36  C   UNL     1       4.918  -6.770  26.677  0.00  0.00    +0.052 C 
ATOM     37  C   UNL     1       5.834  -5.555  26.779  0.00  0.00    +0.170 C 
ATOM     38  C   UNL     1       5.511  -4.735  28.021  0.00  0.00    +0.052 C 
ENDBRANCH  35  37
ENDBRANCH  33  35
ENDBRANCH  32  33
ENDBRANCH  31  32
ENDBRANCH  30  31
ENDBRANCH  28  30
ENDBRANCH  27  29
ENDBRANCH   1  27
TORSDOF 17
ENDMDL
MODEL 3
REMARK VINA RESULT:      -6.2      2.605      6.478
REMARK  Name = 
REMARK  19 active torsions:
REMARK  status: ('A' for Active; 'I' for Inactive)
REMARK    1  A    between atoms: C_1  and  C_2
REMARK    2  A    between atoms: C_2  and  C_3
REMARK    3  A    between atoms: C_2  and  O_4
REMARK    4  A    between atoms: O_4  and  C_5
REMARK    5  A    between atoms: C_5  and  C_7
REMARK    6  A    between atoms: C_7  and  C_8
REMARK    7  A    between atoms: C_8  and  C_9
REMARK    8  A    between atoms: C_9  and  C_10
REMARK    9  A    between atoms: C_11  and  C_12
REMARK   10  A    between atoms: C_12  and  C_13
REMARK   11  A    between atoms: C_15  and  O_17
REMARK   12  A    between atoms: C_19  and  O_21
REMARK   13  A    between atoms: C_22  and  C_24
REMARK   14  A    between atoms: C_25  and  C_26
REMARK   15  A    between atoms: C_26  and  O_28
REMARK   16  A    between atoms: C_26  and  C_29
REMARK   17  A    between atoms: C_29  and  O_30
REMARK   18  A    between atoms: O_30  and  C_31
REMARK   19  A    between atoms: C_35  and  C_37
REMARK                            x       y       z     vdW  Elec       q    Type
REMARK                         _______ _______ _______ _____ _____    ______ ____
ROOT
ATOM      1  C   UNL     1       9.409   3.658  23.990  0.00  0.00    +0.031 C 
ATOM      2  C   UNL     1       8.175   3.726  23.039  0.00  0.00    +0.046 C 
ATOM      3  C   UNL     1       7.706   5.207  23.105  0.00  0.00    +0.124 C 
ATOM      4  C   UNL     1       8.547   5.876  24.188  0.00  0.00    +0.063 C 
ATOM      5  C   UNL     1       9.861   5.118  24.128  0.00  0.00    +0.121 C 
ENDROOT
BRANCH   2   6
ATOM      6  C   UNL     1       7.166   2.649  23.398  0.00  0.00    -0.022 C 
ATOM      7  C   UNL     1       6.691   2.357  24.622  0.00  0.00    +0.003 C 
BRANCH   7   8
ATOM      8  C   UNL     1       5.724   1.262  24.995  0.00  0.00    +0.174 C 
BRANCH   8   9
ATOM      9  O   UNL     1       5.699   0.273  23.969  0.00  0.00    -0.384 OA
ATOM     10  H   UNL     1       6.615   0.170  23.666  0.00  0.00    +0.210 HD
ENDBRANCH   8   9
BRANCH   8  11
ATOM     11  C   UNL     1       6.112   0.618  26.343  0.00  0.00    +0.264 C 
BRANCH  11  12
ATOM     12  O   UNL     1       7.369  -0.050  26.192  0.00  0.00    -0.489 OA
BRANCH  12  13
ATOM     13  C   UNL     1       7.328  -1.416  26.192  0.00  0.00    +0.121 A 
ATOM     14  C   UNL     1       8.336  -2.247  25.700  0.00  0.00    +0.058 A 
ATOM     15  C   UNL     1       8.247  -3.643  25.851  0.00  0.00    +0.058 A 
ATOM     16  C   UNL     1       7.120  -4.192  26.481  0.00  0.00    +0.012 A 
ATOM     17  C   UNL     1       6.111  -3.362  26.966  0.00  0.00    +0.004 A 
ATOM     18  C   UNL     1       6.223  -1.979  26.831  0.00  0.00    +0.045 A 
BRANCH  15  19
ATOM     19  C   UNL     1       9.375  -4.520  25.367  0.00  0.00    +0.418 C 
ATOM     20  F   UNL     1      10.179  -4.938  26.384  0.00  0.00    -0.166 F 
ATOM     21  F   UNL     1      10.192  -3.879  24.486  0.00  0.00    -0.166 F 
ATOM     22  F   UNL     1       8.957  -5.651  24.735  0.00  0.00    -0.166 F 
ENDBRANCH  15  19
ENDBRANCH  12  13
ENDBRANCH  11  12
ENDBRANCH   8  11
ENDBRANCH   7   8
ENDBRANCH   2   6
BRANCH   5  23
ATOM     23  O   UNL     1      10.580   5.558  22.978  0.00  0.00    -0.391 OA
ATOM     24  H   UNL     1      10.487   4.867  22.298  0.00  0.00    +0.210 HD
ENDBRANCH   5  23
BRANCH   3  25
ATOM     25  O   UNL     1       7.946   5.838  21.846  0.00  0.00    -0.391 OA
ATOM     26  H   UNL     1       8.772   5.451  21.498  0.00  0.00    +0.210 HD
ENDBRANCH   3  25
BRANCH   1  27
ATOM     27  C   UNL     1      10.494   2.704  23.470  0.00  0.00    +0.033 C 
BRANCH  27  29
ATOM     28  C   UNL     1      10.321   0.195  23.785  0.00  0.00    -0.031 C 
ATOM     29  C   UNL     1      10.569   1.424  24.262  0.00  0.00    -0.031 C 
BRANCH  28  30
ATOM     30  C   UNL     1       9.928  -0.103  22.366  0.00  0.00    +0.027 C 
BRANCH  30  31
ATOM     31  C   UNL     1       8.528  -0.704  22.281  0.00  0.00    +0.015 C 
BRANCH  31  32
ATOM     32  C   UNL     1       8.587  -2.220  22.109  0.00  0.00    +0.121 C 
BRANCH  32  33
ATOM     33  C   UNL     1       7.238  -2.834  22.379  0.00  0.00    +0.307 C 
ATOM     34  O   UNL     1       6.202  -2.204  22.540  0.00  0.00    -0.251 OA
BRANCH  33  35
ATOM     35  O   UNL     1       7.341  -4.192  22.407  0.00  0.00    -0.462 OA
BRANCH  35  37
ATOM     36  C   UNL     1       6.229  -5.751  20.932  0.00  0.00    +0.052 C 
ATOM     37  C   UNL     1       6.105  -4.896  22.190  0.00  0.00    +0.170 C 
ATOM     38  C   UNL     1       5.844  -5.766  23.412  0.00  0.00    +0.052 C 
ENDBRANCH  35  37
ENDBRANCH  33  35
ENDBRANCH  32  33
ENDBRANCH  31  32
ENDBRANCH  30  31
ENDBRANCH  28  30
ENDBRANCH  27  29
ENDBRANCH   1  27
TORSDOF 17
ENDMDL
MODEL 4
REMARK VINA RESULT:      -6.1      2.572      5.096
REMARK  Name = 
REMARK  19 active torsions:
REMARK  status: ('A' for Active; 'I' for Inactive)
REMARK    1  A    between atoms: C_1  and  C_2
REMARK    2  A    between atoms: C_2  and  C_3
REMARK    3  A    between atoms: C_2  and  O_4
REMARK    4  A    between atoms: O_4  and  C_5
REMARK    5  A    between atoms: C_5  and  C_7
REMARK    6  A    between atoms: C_7  and  C_8
REMARK    7  A    between atoms: C_8  and  C_9
REMARK    8  A    between atoms: C_9  and  C_10
REMARK    9  A    between atoms: C_11  and  C_12
REMARK   10  A    between atoms: C_12  and  C_13
REMARK   11  A    between atoms: C_15  and  O_17
REMARK   12  A    between atoms: C_19  and  O_21
REMARK   13  A    between atoms: C_22  and  C_24
REMARK   14  A    between atoms: C_25  and  C_26
REMARK   15  A    between atoms: C_26  and  O_28
REMARK   16  A    between atoms: C_26  and  C_29
REMARK   17  A    between atoms: C_29  and  O_30
REMARK   18  A    between atoms: O_30  and  C_31
REMARK   19  A    between atoms: C_35  and  C_37
REMARK                            x       y       z     vdW  Elec       q    Type
REMARK                         _______ _______ _______ _____ _____    ______ ____
ROOT
ATOM      1  C   UNL     1       3.674  -5.489  24.424  0.00  0.00    +0.031 C 
ATOM      2  C   UNL     1       3.874  -6.963  24.890  0.00  0.00    +0.046 C 
ATOM      3  C   UNL     1       2.452  -7.588  24.847  0.00  0.00    +0.124 C 
ATOM      4  C   UNL     1       1.489  -6.445  24.538  0.00  0.00    +0.063 C 
ATOM      5  C   UNL     1       2.327  -5.504  23.691  0.00  0.00    +0.121 C 
ENDROOT
BRANCH   2   6
ATOM      6  C   UNL     1       4.625  -7.007  26.210  0.00  0.00    -0.022 C 
ATOM      7  C   UNL     1       4.194  -6.564  27.404  0.00  0.00    +0.003 C 
BRANCH   7   8
ATOM      8  C   UNL     1       4.947  -6.563  28.711  0.00  0.00    +0.174 C 
BRANCH   8   9
ATOM      9  O   UNL     1       5.976  -7.548  28.672  0.00  0.00    -0.384 OA
ATOM     10  H   UNL     1       6.602  -7.265  27.986  0.00  0.00    +0.210 HD
ENDBRANCH   8   9
BRANCH   8  11
ATOM     11  C   UNL     1       5.555  -5.174  28.996  0.00  0.00    +0.264 C 
BRANCH  11  12
ATOM     12  O   UNL     1       5.239  -4.297  27.908  0.00  0.00    -0.489 OA
BRANCH  12  13
ATOM     13  C   UNL     1       6.302  -3.722  27.271  0.00  0.00    +0.121 A 
ATOM     14  C   UNL     1       7.337  -4.424  26.651  0.00  0.00    +0.058 A 
ATOM     15  C   UNL     1       8.327  -3.738  25.922  0.00  0.00    +0.058 A 
ATOM     16  C   UNL     1       8.276  -2.339  25.848  0.00  0.00    +0.012 A 
ATOM     17  C   UNL     1       7.245  -1.639  26.474  0.00  0.00    +0.004 A 
ATOM     18  C   UNL     1       6.257  -2.332  27.172  0.00  0.00    +0.045 A 
BRANCH  15  19
ATOM     19  C   UNL     1       9.403  -4.519  25.207  0.00  0.00    +0.418 C 
ATOM     20  F   UNL     1      10.183  -3.724  24.421  0.00  0.00    -0.166 F 
ATOM     21  F   UNL     1       8.892  -5.473  24.381  0.00  0.00    -0.166 F 
ATOM     22  F   UNL     1      10.258  -5.167  26.045  0.00  0.00    -0.166 F 
ENDBRANCH  15  19
ENDBRANCH  12  13
ENDBRANCH  11  12
ENDBRANCH   8  11
ENDBRANCH   7   8
ENDBRANCH   2   6
BRANCH   5  23
ATOM     23  O   UNL     1       2.443  -6.061  22.383  0.00  0.00    -0.391 OA
ATOM     24  H   UNL     1       3.233  -6.631  22.383  0.00  0.00    +0.210 HD
ENDBRANCH   5  23
BRANCH   3  25
ATOM     25  O   UNL     1       2.393  -8.566  23.806  0.00  0.00    -0.391 OA
ATOM     26  H   UNL     1       2.098  -8.094  23.004  0.00  0.00    +0.210 HD
ENDBRANCH   3  25
BRANCH   1  27
ATOM     27  C   UNL     1       4.852  -4.979  23.579  0.00  0.00    +0.033 C 
BRANCH  27  29
ATOM     28  C   UNL     1       5.951  -2.762  23.034  0.00  0.00    -0.031 C 
ATOM     29  C   UNL     1       4.946  -3.476  23.562  0.00  0.00    -0.031 C 
BRANCH  28  30
ATOM     30  C   UNL     1       7.157  -3.358  22.365  0.00  0.00    +0.027 C 
BRANCH  30  31
ATOM     31  C   UNL     1       8.267  -2.330  22.178  0.00  0.00    +0.015 C 
BRANCH  31  32
ATOM     32  C   UNL     1       7.833  -0.951  22.673  0.00  0.00    +0.121 C 
BRANCH  32  33
ATOM     33  C   UNL     1       8.781   0.109  22.175  0.00  0.00    +0.307 C 
ATOM     34  O   UNL     1       9.396   0.058  21.120  0.00  0.00    -0.251 OA
BRANCH  33  35
ATOM     35  O   UNL     1       8.841   1.136  23.068  0.00  0.00    -0.462 OA
BRANCH  35  37
ATOM     36  C   UNL     1      10.122   3.052  23.797  0.00  0.00    +0.052 C 
ATOM     37  C   UNL     1      10.171   1.584  23.387  0.00  0.00    +0.170 C 
ATOM     38  C   UNL     1      10.693   0.720  24.527  0.00  0.00    +0.052 C 
ENDBRANCH  35  37
ENDBRANCH  33  35
ENDBRANCH  32  33
ENDBRANCH  31  32
ENDBRANCH  30  31
ENDBRANCH  28  30
ENDBRANCH  27  29
ENDBRANCH   1  27
TORSDOF 17
ENDMDL
MODEL 5
REMARK VINA RESULT:      -6.1      2.325      5.490
REMARK  Name = 
REMARK  19 active torsions:
REMARK  status: ('A' for Active; 'I' for Inactive)
REMARK    1  A    between atoms: C_1  and  C_2
REMARK    2  A    between atoms: C_2  and  C_3
REMARK    3  A    between atoms: C_2  and  O_4
REMARK    4  A    between atoms: O_4  and  C_5
REMARK    5  A    between atoms: C_5  and  C_7
REMARK    6  A    between atoms: C_7  and  C_8
REMARK    7  A    between atoms: C_8  and  C_9
REMARK    8  A    between atoms: C_9  and  C_10
REMARK    9  A    between atoms: C_11  and  C_12
REMARK   10  A    between atoms: C_12  and  C_13
REMARK   11  A    between atoms: C_15  and  O_17
REMARK   12  A    between atoms: C_19  and  O_21
REMARK   13  A    between atoms: C_22  and  C_24
REMARK   14  A    between atoms: C_25  and  C_26
REMARK   15  A    between atoms: C_26  and  O_28
REMARK   16  A    between atoms: C_26  and  C_29
REMARK   17  A    between atoms: C_29  and  O_30
REMARK   18  A    between atoms: O_30  and  C_31
REMARK   19  A    between atoms: C_35  and  C_37
REMARK                            x       y       z     vdW  Elec       q    Type
REMARK                         _______ _______ _______ _____ _____    ______ ____
ROOT
ATOM      1  C   UNL     1       1.917  -5.747  25.432  0.00  0.00    +0.031 C 
ATOM      2  C   UNL     1       3.061  -6.728  25.033  0.00  0.00    +0.046 C 
ATOM      3  C   UNL     1       2.334  -8.043  24.637  0.00  0.00    +0.124 C 
ATOM      4  C   UNL     1       0.861  -7.840  24.979  0.00  0.00    +0.063 C 
ATOM      5  C   UNL     1       0.662  -6.347  24.787  0.00  0.00    +0.121 C 
ENDROOT
BRANCH   2   6
ATOM      6  C   UNL     1       4.108  -6.802  26.131  0.00  0.00    -0.022 C 
ATOM      7  C   UNL     1       4.007  -6.319  27.382  0.00  0.00    +0.003 C 
BRANCH   7   8
ATOM      8  C   UNL     1       5.055  -6.348  28.465  0.00  0.00    +0.174 C 
BRANCH   8   9
ATOM      9  O   UNL     1       5.728  -7.605  28.450  0.00  0.00    -0.384 OA
ATOM     10  H   UNL     1       5.175  -8.205  27.923  0.00  0.00    +0.210 HD
ENDBRANCH   8   9
BRANCH   8  11
ATOM     11  C   UNL     1       6.072  -5.202  28.280  0.00  0.00    +0.264 C 
BRANCH  11  12
ATOM     12  O   UNL     1       7.296  -5.746  27.774  0.00  0.00    -0.489 OA
BRANCH  12  13
ATOM     13  C   UNL     1       7.714  -5.263  26.565  0.00  0.00    +0.121 A 
ATOM     14  C   UNL     1       7.229  -5.684  25.326  0.00  0.00    +0.058 A 
ATOM     15  C   UNL     1       7.642  -5.043  24.143  0.00  0.00    +0.058 A 
ATOM     16  C   UNL     1       8.566  -3.990  24.223  0.00  0.00    +0.012 A 
ATOM     17  C   UNL     1       9.055  -3.576  25.461  0.00  0.00    +0.004 A 
ATOM     18  C   UNL     1       8.618  -4.204  26.627  0.00  0.00    +0.045 A 
BRANCH  15  19
ATOM     19  C   UNL     1       7.061  -5.472  22.819  0.00  0.00    +0.418 C 
ATOM     20  F   UNL     1       5.867  -6.115  22.961  0.00  0.00    -0.166 F 
ATOM     21  F   UNL     1       7.872  -6.337  22.150  0.00  0.00    -0.166 F 
ATOM     22  F   UNL     1       6.826  -4.440  21.963  0.00  0.00    -0.166 F 
ENDBRANCH  15  19
ENDBRANCH  12  13
ENDBRANCH  11  12
ENDBRANCH   8  11
ENDBRANCH   7   8
ENDBRANCH   2   6
BRANCH   5  23
ATOM     23  O   UNL     1       0.608  -6.079  23.387  0.00  0.00    -0.391 OA
ATOM     24  H   UNL     1       1.527  -5.997  23.074  0.00  0.00    +0.210 HD
ENDBRANCH   5  23
BRANCH   3  25
ATOM     25  O   UNL     1       2.479  -8.264  23.233  0.00  0.00    -0.391 OA
ATOM     26  H   UNL     1       3.377  -8.627  23.104  0.00  0.00    +0.210 HD
ENDBRANCH   3  25
BRANCH   1  27
ATOM     27  C   UNL     1       2.217  -4.300  25.014  0.00  0.00    +0.033 C 
BRANCH  27  29
ATOM     28  C   UNL     1       4.512  -3.408  24.411  0.00  0.00    -0.031 C 
ATOM     29  C   UNL     1       3.450  -4.187  24.155  0.00  0.00    -0.031 C 
BRANCH  28  30
ATOM     30  C   UNL     1       4.640  -2.515  25.613  0.00  0.00    +0.027 C 
BRANCH  30  31
ATOM     31  C   UNL     1       5.907  -1.667  25.554  0.00  0.00    +0.015 C 
BRANCH  31  32
ATOM     32  C   UNL     1       6.099  -1.055  24.168  0.00  0.00    +0.121 C 
BRANCH  32  33
ATOM     33  C   UNL     1       7.458  -0.413  24.060  0.00  0.00    +0.307 C 
ATOM     34  O   UNL     1       7.967   0.296  24.915  0.00  0.00    -0.251 OA
BRANCH  33  35
ATOM     35  O   UNL     1       8.038  -0.750  22.874  0.00  0.00    -0.462 OA
BRANCH  35  37
ATOM     36  C   UNL     1      10.298  -1.424  22.344  0.00  0.00    +0.052 C 
ATOM     37  C   UNL     1       9.379  -0.259  22.697  0.00  0.00    +0.170 C 
ATOM     38  C   UNL     1       9.353   0.769  21.574  0.00  0.00    +0.052 C 
ENDBRANCH  35  37
ENDBRANCH  33  35
ENDBRANCH  32  33
ENDBRANCH  31  32
ENDBRANCH  30  31
ENDBRANCH  28  30
ENDBRANCH  27  29
ENDBRANCH   1  27
TORSDOF 17
ENDMDL
MODEL 6
REMARK VINA RESULT:      -6.0      3.719      7.488
REMARK  Name = 
REMARK  19 active torsions:
REMARK  status: ('A' for Active; 'I' for Inactive)
REMARK    1  A    between atoms: C_1  and  C_2
REMARK    2  A    between atoms: C_2  and  C_3
REMARK    3  A    between atoms: C_2  and  O_4
REMARK    4  A    between atoms: O_4  and  C_5
REMARK    5  A    between atoms: C_5  and  C_7
REMARK    6  A    between atoms: C_7  and  C_8
REMARK    7  A    between atoms: C_8  and  C_9
REMARK    8  A    between atoms: C_9  and  C_10
REMARK    9  A    between atoms: C_11  and  C_12
REMARK   10  A    between atoms: C_12  and  C_13
REMARK   11  A    between atoms: C_15  and  O_17
REMARK   12  A    between atoms: C_19  and  O_21
REMARK   13  A    between atoms: C_22  and  C_24
REMARK   14  A    between atoms: C_25  and  C_26
REMARK   15  A    between atoms: C_26  and  O_28
REMARK   16  A    between atoms: C_26  and  C_29
REMARK   17  A    between atoms: C_29  and  O_30
REMARK   18  A    between atoms: O_30  and  C_31
REMARK   19  A    between atoms: C_35  and  C_37
REMARK                            x       y       z     vdW  Elec       q    Type
REMARK                         _______ _______ _______ _____ _____    ______ ____
ROOT
ATOM      1  C   UNL     1       6.155  -3.786  23.486  0.00  0.00    +0.031 C 
ATOM      2  C   UNL     1       6.775  -3.661  22.061  0.00  0.00    +0.046 C 
ATOM      3  C   UNL     1       6.785  -5.112  21.505  0.00  0.00    +0.124 C 
ATOM      4  C   UNL     1       6.351  -6.016  22.655  0.00  0.00    +0.063 C 
ATOM      5  C   UNL     1       5.417  -5.131  23.460  0.00  0.00    +0.121 C 
ENDROOT
BRANCH   2   6
ATOM      6  C   UNL     1       8.098  -2.917  22.119  0.00  0.00    -0.022 C 
ATOM      7  C   UNL     1       8.881  -2.736  23.197  0.00  0.00    +0.003 C 
BRANCH   7   8
ATOM      8  C   UNL     1      10.173  -1.963  23.275  0.00  0.00    +0.174 C 
BRANCH   8   9
ATOM      9  O   UNL     1      10.551  -1.526  21.972  0.00  0.00    -0.384 OA
ATOM     10  H   UNL     1       9.771  -1.646  21.406  0.00  0.00    +0.210 HD
ENDBRANCH   8   9
BRANCH   8  11
ATOM     11  C   UNL     1      10.035  -0.751  24.220  0.00  0.00    +0.264 C 
BRANCH  11  12
ATOM     12  O   UNL     1       8.660  -0.353  24.266  0.00  0.00    -0.489 OA
BRANCH  12  13
ATOM     13  C   UNL     1       8.368   0.866  23.723  0.00  0.00    +0.121 A 
ATOM     14  C   UNL     1       8.866   2.086  24.184  0.00  0.00    +0.058 A 
ATOM     15  C   UNL     1       8.595   3.276  23.484  0.00  0.00    +0.058 A 
ATOM     16  C   UNL     1       7.798   3.226  22.331  0.00  0.00    +0.012 A 
ATOM     17  C   UNL     1       7.296   2.008  21.876  0.00  0.00    +0.004 A 
ATOM     18  C   UNL     1       7.592   0.832  22.565  0.00  0.00    +0.045 A 
BRANCH  15  19
ATOM     19  C   UNL     1       9.192   4.577  23.963  0.00  0.00    +0.418 C 
ATOM     20  F   UNL     1       9.091   4.726  25.314  0.00  0.00    -0.166 F 
ATOM     21  F   UNL     1       8.577   5.664  23.421  0.00  0.00    -0.166 F 
ATOM     22  F   UNL     1      10.516   4.712  23.673  0.00  0.00    -0.166 F 
ENDBRANCH  15  19
ENDBRANCH  12  13
ENDBRANCH  11  12
ENDBRANCH   8  11
ENDBRANCH   7   8
ENDBRANCH   2   6
BRANCH   5  23
ATOM     23  O   UNL     1       4.176  -5.038  22.764  0.00  0.00    -0.391 OA
ATOM     24  H   UNL     1       3.841  -5.945  22.650  0.00  0.00    +0.210 HD
ENDBRANCH   5  23
BRANCH   3  25
ATOM     25  O   UNL     1       5.852  -5.216  20.428  0.00  0.00    -0.391 OA
ATOM     26  H   UNL     1       4.972  -5.030  20.809  0.00  0.00    +0.210 HD
ENDBRANCH   3  25
BRANCH   1  27
ATOM     27  C   UNL     1       5.272  -2.583  23.847  0.00  0.00    +0.033 C 
BRANCH  27  29
ATOM     28  C   UNL     1       4.938  -2.383  26.351  0.00  0.00    -0.031 C 
ATOM     29  C   UNL     1       5.568  -2.036  25.219  0.00  0.00    -0.031 C 
BRANCH  28  30
ATOM     30  C   UNL     1       3.823  -3.387  26.429  0.00  0.00    +0.027 C 
BRANCH  30  31
ATOM     31  C   UNL     1       4.321  -4.749  26.903  0.00  0.00    +0.015 C 
BRANCH  31  32
ATOM     32  C   UNL     1       5.334  -4.604  28.037  0.00  0.00    +0.121 C 
BRANCH  32  33
ATOM     33  C   UNL     1       6.513  -5.514  27.809  0.00  0.00    +0.307 C 
ATOM     34  O   UNL     1       6.937  -6.326  28.619  0.00  0.00    -0.251 OA
BRANCH  33  35
ATOM     35  O   UNL     1       7.028  -5.306  26.565  0.00  0.00    -0.462 OA
BRANCH  35  37
ATOM     36  C   UNL     1       9.048  -5.503  25.254  0.00  0.00    +0.052 C 
ATOM     37  C   UNL     1       8.425  -4.966  26.538  0.00  0.00    +0.170 C 
ATOM     38  C   UNL     1       8.537  -3.449  26.601  0.00  0.00    +0.052 C 
ENDBRANCH  35  37
ENDBRANCH  33  35
ENDBRANCH  32  33
ENDBRANCH  31  32
ENDBRANCH  30  31
ENDBRANCH  28  30
ENDBRANCH  27  29
ENDBRANCH   1  27
TORSDOF 17
ENDMDL
MODEL 7
REMARK VINA RESULT:      -6.0      2.776      5.792
REMARK  Name = 
REMARK  19 active torsions:
REMARK  status: ('A' for Active; 'I' for Inactive)
REMARK    1  A    between atoms: C_1  and  C_2
REMARK    2  A    between atoms: C_2  and  C_3
REMARK    3  A    between atoms: C_2  and  O_4
REMARK    4  A    between atoms: O_4  and  C_5
REMARK    5  A    between atoms: C_5  and  C_7
REMARK    6  A    between atoms: C_7  and  C_8
REMARK    7  A    between atoms: C_8  and  C_9
REMARK    8  A    between atoms: C_9  and  C_10
REMARK    9  A    between atoms: C_11  and  C_12
REMARK   10  A    between atoms: C_12  and  C_13
REMARK   11  A    between atoms: C_15  and  O_17
REMARK   12  A    between atoms: C_19  and  O_21
REMARK   13  A    between atoms: C_22  and  C_24
REMARK   14  A    between atoms: C_25  and  C_26
REMARK   15  A    between atoms: C_26  and  O_28
REMARK   16  A    between atoms: C_26  and  C_29
REMARK   17  A    between atoms: C_29  and  O_30
REMARK   18  A    between atoms: O_30  and  C_31
REMARK   19  A    between atoms: C_35  and  C_37
REMARK                            x       y       z     vdW  Elec       q    Type
REMARK                         _______ _______ _______ _____ _____    ______ ____
ROOT
ATOM      1  C   UNL     1       8.362  -3.369  24.692  0.00  0.00    +0.031 C 
ATOM      2  C   UNL     1       8.245  -3.241  26.242  0.00  0.00    +0.046 C 
ATOM      3  C   UNL     1       7.855  -4.665  26.728  0.00  0.00    +0.124 C 
ATOM      4  C   UNL     1       7.596  -5.492  25.472  0.00  0.00    +0.063 C 
ATOM      5  C   UNL     1       8.531  -4.874  24.448  0.00  0.00    +0.121 C 
ENDROOT
BRANCH   2   6
ATOM      6  C   UNL     1       7.326  -2.091  26.615  0.00  0.00    -0.022 C 
ATOM      7  C   UNL     1       5.981  -2.089  26.601  0.00  0.00    +0.003 C 
BRANCH   7   8
ATOM      8  C   UNL     1       5.061  -0.941  26.927  0.00  0.00    +0.174 C 
BRANCH   8   9
ATOM      9  O   UNL     1       5.478  -0.319  28.139  0.00  0.00    -0.384 OA
ATOM     10  H   UNL     1       4.691  -0.266  28.705  0.00  0.00    +0.210 HD
ENDBRANCH   8   9
BRANCH   8  11
ATOM     11  C   UNL     1       5.042   0.093  25.781  0.00  0.00    +0.264 C 
BRANCH  11  12
ATOM     12  O   UNL     1       6.021   1.103  26.051  0.00  0.00    -0.489 OA
BRANCH  12  13
ATOM     13  C   UNL     1       6.914   1.357  25.049  0.00  0.00    +0.121 A 
ATOM     14  C   UNL     1       8.295   1.180  25.145  0.00  0.00    +0.058 A 
ATOM     15  C   UNL     1       9.118   1.361  24.017  0.00  0.00    +0.058 A 
ATOM     16  C   UNL     1       8.536   1.747  22.801  0.00  0.00    +0.012 A 
ATOM     17  C   UNL     1       7.157   1.931  22.708  0.00  0.00    +0.004 A 
ATOM     18  C   UNL     1       6.351   1.724  23.827  0.00  0.00    +0.045 A 
BRANCH  15  19
ATOM     19  C   UNL     1      10.601   1.105  24.126  0.00  0.00    +0.418 C 
ATOM     20  F   UNL     1      11.332   2.251  24.024  0.00  0.00    -0.166 F 
ATOM     21  F   UNL     1      11.061   0.281  23.145  0.00  0.00    -0.166 F 
ATOM     22  F   UNL     1      10.973   0.531  25.303  0.00  0.00    -0.166 F 
ENDBRANCH  15  19
ENDBRANCH  12  13
ENDBRANCH  11  12
ENDBRANCH   8  11
ENDBRANCH   7   8
ENDBRANCH   2   6
BRANCH   5  23
ATOM     23  O   UNL     1       9.859  -5.308  24.736  0.00  0.00    -0.391 OA
ATOM     24  H   UNL     1       9.854  -6.282  24.717  0.00  0.00    +0.210 HD
ENDBRANCH   5  23
BRANCH   3  25
ATOM     25  O   UNL     1       8.940  -5.231  27.465  0.00  0.00    -0.391 OA
ATOM     26  H   UNL     1       8.948  -6.184  27.252  0.00  0.00    +0.210 HD
ENDBRANCH   3  25
BRANCH   1  27
ATOM     27  C   UNL     1       9.491  -2.500  24.119  0.00  0.00    +0.033 C 
BRANCH  27  29
ATOM     28  C   UNL     1       8.092  -1.836  22.112  0.00  0.00    -0.031 C 
ATOM     29  C   UNL     1       9.272  -2.146  22.671  0.00  0.00    -0.031 C 
BRANCH  28  30
ATOM     30  C   UNL     1       6.786  -1.793  22.854  0.00  0.00    +0.027 C 
BRANCH  30  31
ATOM     31  C   UNL     1       5.737  -2.691  22.206  0.00  0.00    +0.015 C 
BRANCH  31  32
ATOM     32  C   UNL     1       6.358  -3.994  21.706  0.00  0.00    +0.121 C 
BRANCH  32  33
ATOM     33  C   UNL     1       5.570  -5.177  22.204  0.00  0.00    +0.307 C 
ATOM     34  O   UNL     1       6.018  -6.306  22.349  0.00  0.00    -0.251 OA
BRANCH  33  35
ATOM     35  O   UNL     1       4.290  -4.802  22.482  0.00  0.00    -0.462 OA
BRANCH  35  37
ATOM     36  C   UNL     1       3.960  -4.808  24.876  0.00  0.00    +0.052 C 
ATOM     37  C   UNL     1       3.669  -5.523  23.560  0.00  0.00    +0.170 C 
ATOM     38  C   UNL     1       2.171  -5.568  23.288  0.00  0.00    +0.052 C 
ENDBRANCH  35  37
ENDBRANCH  33  35
ENDBRANCH  32  33
ENDBRANCH  31  32
ENDBRANCH  30  31
ENDBRANCH  28  30
ENDBRANCH  27  29
ENDBRANCH   1  27
TORSDOF 17
ENDMDL
MODEL 8
REMARK VINA RESULT:      -6.0      3.119      6.179
REMARK  Name = 
REMARK  19 active torsions:
REMARK  status: ('A' for Active; 'I' for Inactive)
REMARK    1  A    between atoms: C_1  and  C_2
REMARK    2  A    between atoms: C_2  and  C_3
REMARK    3  A    between atoms: C_2  and  O_4
REMARK    4  A    between atoms: O_4  and  C_5
REMARK    5  A    between atoms: C_5  and  C_7
REMARK    6  A    between atoms: C_7  and  C_8
REMARK    7  A    between atoms: C_8  and  C_9
REMARK    8  A    between atoms: C_9  and  C_10
REMARK    9  A    between atoms: C_11  and  C_12
REMARK   10  A    between atoms: C_12  and  C_13
REMARK   11  A    between atoms: C_15  and  O_17
REMARK   12  A    between atoms: C_19  and  O_21
REMARK   13  A    between atoms: C_22  and  C_24
REMARK   14  A    between atoms: C_25  and  C_26
REMARK   15  A    between atoms: C_26  and  O_28
REMARK   16  A    between atoms: C_26  and  C_29
REMARK   17  A    between atoms: C_29  and  O_30
REMARK   18  A    between atoms: O_30  and  C_31
REMARK   19  A    between atoms: C_35  and  C_37
REMARK                            x       y       z     vdW  Elec       q    Type
REMARK                         _______ _______ _______ _____ _____    ______ ____
ROOT
ATOM      1  C   UNL     1       4.518  -5.749  25.491  0.00  0.00    +0.031 C 
ATOM      2  C   UNL     1       5.793  -6.153  26.291  0.00  0.00    +0.046 C 
ATOM      3  C   UNL     1       5.323  -6.231  27.771  0.00  0.00    +0.124 C 
ATOM      4  C   UNL     1       3.887  -5.715  27.794  0.00  0.00    +0.063 C 
ATOM      5  C   UNL     1       3.355  -6.105  26.427  0.00  0.00    +0.121 C 
ENDROOT
BRANCH   2   6
ATOM      6  C   UNL     1       6.946  -5.220  25.964  0.00  0.00    -0.022 C 
ATOM      7  C   UNL     1       8.235  -5.557  25.779  0.00  0.00    +0.003 C 
BRANCH   7   8
ATOM      8  C   UNL     1       9.394  -4.635  25.498  0.00  0.00    +0.174 C 
BRANCH   8   9
ATOM      9  O   UNL     1      10.559  -5.402  25.204  0.00  0.00    -0.384 OA
ATOM     10  H   UNL     1      10.332  -6.327  25.391  0.00  0.00    +0.210 HD
ENDBRANCH   8   9
BRANCH   8  11
ATOM     11  C   UNL     1       9.073  -3.688  24.322  0.00  0.00    +0.264 C 
BRANCH  11  12
ATOM     12  O   UNL     1      10.189  -2.816  24.111  0.00  0.00    -0.489 OA
BRANCH  12  13
ATOM     13  C   UNL     1       9.931  -1.668  23.415  0.00  0.00    +0.121 A 
ATOM     14  C   UNL     1      10.278  -0.383  23.836  0.00  0.00    +0.058 A 
ATOM     15  C   UNL     1      10.070   0.724  22.992  0.00  0.00    +0.058 A 
ATOM     16  C   UNL     1       9.487   0.524  21.732  0.00  0.00    +0.012 A 
ATOM     17  C   UNL     1       9.135  -0.759  21.316  0.00  0.00    +0.004 A 
ATOM     18  C   UNL     1       9.369  -1.851  22.152  0.00  0.00    +0.045 A 
BRANCH  15  19
ATOM     19  C   UNL     1      10.507   2.096  23.441  0.00  0.00    +0.418 C 
ATOM     20  F   UNL     1      11.693   2.069  24.113  0.00  0.00    -0.166 F 
ATOM     21  F   UNL     1       9.613   2.677  24.288  0.00  0.00    -0.166 F 
ATOM     22  F   UNL     1      10.681   2.978  22.418  0.00  0.00    -0.166 F 
ENDBRANCH  15  19
ENDBRANCH  12  13
ENDBRANCH  11  12
ENDBRANCH   8  11
ENDBRANCH   7   8
ENDBRANCH   2   6
BRANCH   5  23
ATOM     23  O   UNL     1       3.092  -7.506  26.432  0.00  0.00    -0.391 OA
ATOM     24  H   UNL     1       2.816  -7.744  27.335  0.00  0.00    +0.210 HD
ENDBRANCH   5  23
BRANCH   3  25
ATOM     25  O   UNL     1       5.356  -7.590  28.211  0.00  0.00    -0.391 OA
ATOM     26  H   UNL     1       6.210  -7.955  27.910  0.00  0.00    +0.210 HD
ENDBRANCH   3  25
BRANCH   1  27
ATOM     27  C   UNL     1       4.454  -6.425  24.114  0.00  0.00    +0.033 C 
BRANCH  27  29
ATOM     28  C   UNL     1       5.943  -5.012  22.627  0.00  0.00    -0.031 C 
ATOM     29  C   UNL     1       5.679  -6.155  23.278  0.00  0.00    -0.031 C 
BRANCH  28  30
ATOM     30  C   UNL     1       5.049  -3.805  22.631  0.00  0.00    +0.027 C 
BRANCH  30  31
ATOM     31  C   UNL     1       5.750  -2.583  23.216  0.00  0.00    +0.015 C 
BRANCH  31  32
ATOM     32  C   UNL     1       5.301  -2.324  24.653  0.00  0.00    +0.121 C 
BRANCH  32  33
ATOM     33  C   UNL     1       6.342  -1.525  25.393  0.00  0.00    +0.307 C 
ATOM     34  O   UNL     1       6.688  -1.726  26.548  0.00  0.00    -0.251 OA
BRANCH  33  35
ATOM     35  O   UNL     1       6.848  -0.555  24.582  0.00  0.00    -0.462 OA
BRANCH  35  37
ATOM     36  C   UNL     1       7.344   1.374  25.952  0.00  0.00    +0.052 C 
ATOM     37  C   UNL     1       6.417   0.782  24.896  0.00  0.00    +0.170 C 
ATOM     38  C   UNL     1       6.465   1.600  23.612  0.00  0.00    +0.052 C 
ENDBRANCH  35  37
ENDBRANCH  33  35
ENDBRANCH  32  33
ENDBRANCH  31  32
ENDBRANCH  30  31
ENDBRANCH  28  30
ENDBRANCH  27  29
ENDBRANCH   1  27
TORSDOF 17
ENDMDL
MODEL 9
REMARK VINA RESULT:      -6.0      2.884      6.460
REMARK  Name = 
REMARK  19 active torsions:
REMARK  status: ('A' for Active; 'I' for Inactive)
REMARK    1  A    between atoms: C_1  and  C_2
REMARK    2  A    between atoms: C_2  and  C_3
REMARK    3  A    between atoms: C_2  and  O_4
REMARK    4  A    between atoms: O_4  and  C_5
REMARK    5  A    between atoms: C_5  and  C_7
REMARK    6  A    between atoms: C_7  and  C_8
REMARK    7  A    between atoms: C_8  and  C_9
REMARK    8  A    between atoms: C_9  and  C_10
REMARK    9  A    between atoms: C_11  and  C_12
REMARK   10  A    between atoms: C_12  and  C_13
REMARK   11  A    between atoms: C_15  and  O_17
REMARK   12  A    between atoms: C_19  and  O_21
REMARK   13  A    between atoms: C_22  and  C_24
REMARK   14  A    between atoms: C_25  and  C_26
REMARK   15  A    between atoms: C_26  and  O_28
REMARK   16  A    between atoms: C_26  and  C_29
REMARK   17  A    between atoms: C_29  and  O_30
REMARK   18  A    between atoms: O_30  and  C_31
REMARK   19  A    between atoms: C_35  and  C_37
REMARK                            x       y       z     vdW  Elec       q    Type
REMARK                         _______ _______ _______ _____ _____    ______ ____
ROOT
ATOM      1  C   UNL     1       5.270  -4.453  28.016  0.00  0.00    +0.031 C 
ATOM      2  C   UNL     1       5.360  -5.354  26.747  0.00  0.00    +0.046 C 
ATOM      3  C   UNL     1       5.072  -6.792  27.261  0.00  0.00    +0.124 C 
ATOM      4  C   UNL     1       5.005  -6.699  28.783  0.00  0.00    +0.063 C 
ATOM      5  C   UNL     1       4.477  -5.296  29.023  0.00  0.00    +0.121 C 
ENDROOT
BRANCH   2   6
ATOM      6  C   UNL     1       6.668  -5.114  26.014  0.00  0.00    -0.022 C 
ATOM      7  C   UNL     1       7.893  -4.995  26.557  0.00  0.00    +0.003 C 
BRANCH   7   8
ATOM      8  C   UNL     1       9.191  -4.713  25.843  0.00  0.00    +0.174 C 
BRANCH   8   9
ATOM      9  O   UNL     1       9.916  -5.928  25.668  0.00  0.00    -0.384 OA
ATOM     10  H   UNL     1      10.148  -5.975  24.726  0.00  0.00    +0.210 HD
ENDBRANCH   8   9
BRANCH   8  11
ATOM     11  C   UNL     1       8.935  -4.047  24.475  0.00  0.00    +0.264 C 
BRANCH  11  12
ATOM     12  O   UNL     1      10.050  -3.208  24.152  0.00  0.00    -0.489 OA
BRANCH  12  13
ATOM     13  C   UNL     1       9.802  -1.865  24.120  0.00  0.00    +0.121 A 
ATOM     14  C   UNL     1       9.773  -1.084  22.964  0.00  0.00    +0.058 A 
ATOM     15  C   UNL     1       9.395   0.270  23.027  0.00  0.00    +0.058 A 
ATOM     16  C   UNL     1       9.070   0.833  24.270  0.00  0.00    +0.012 A 
ATOM     17  C   UNL     1       9.106   0.053  25.426  0.00  0.00    +0.004 A 
ATOM     18  C   UNL     1       9.459  -1.294  25.346  0.00  0.00    +0.045 A 
BRANCH  15  19
ATOM     19  C   UNL     1       9.312   1.082  21.758  0.00  0.00    +0.418 C 
ATOM     20  F   UNL     1      10.415   1.858  21.567  0.00  0.00    -0.166 F 
ATOM     21  F   UNL     1       8.251   1.935  21.754  0.00  0.00    -0.166 F 
ATOM     22  F   UNL     1       9.190   0.327  20.632  0.00  0.00    -0.166 F 
ENDBRANCH  15  19
ENDBRANCH  12  13
ENDBRANCH  11  12
ENDBRANCH   8  11
ENDBRANCH   7   8
ENDBRANCH   2   6
BRANCH   5  23
ATOM     23  O   UNL     1       3.081  -5.288  28.734  0.00  0.00    -0.391 OA
ATOM     24  H   UNL     1       2.958  -4.760  27.924  0.00  0.00    +0.210 HD
ENDBRANCH   5  23
BRANCH   3  25
ATOM     25  O   UNL     1       3.816  -7.240  26.748  0.00  0.00    -0.391 OA
ATOM     26  H   UNL     1       3.785  -8.204  26.902  0.00  0.00    +0.210 HD
ENDBRANCH   3  25
BRANCH   1  27
ATOM     27  C   UNL     1       4.656  -3.079  27.714  0.00  0.00    +0.033 C 
BRANCH  27  29
ATOM     28  C   UNL     1       5.898  -1.068  26.798  0.00  0.00    -0.031 C 
ATOM     29  C   UNL     1       5.670  -1.965  27.768  0.00  0.00    -0.031 C 
BRANCH  28  30
ATOM     30  C   UNL     1       5.166  -1.031  25.486  0.00  0.00    +0.027 C 
BRANCH  30  31
ATOM     31  C   UNL     1       5.992  -1.645  24.360  0.00  0.00    +0.015 C 
BRANCH  31  32
ATOM     32  C   UNL     1       5.210  -2.739  23.634  0.00  0.00    +0.121 C 
BRANCH  32  33
ATOM     33  C   UNL     1       5.938  -3.165  22.386  0.00  0.00    +0.307 C 
ATOM     34  O   UNL     1       6.890  -2.576  21.894  0.00  0.00    -0.251 OA
BRANCH  33  35
ATOM     35  O   UNL     1       5.386  -4.309  21.892  0.00  0.00    -0.462 OA
BRANCH  35  37
ATOM     36  C   UNL     1       4.255  -6.154  22.969  0.00  0.00    +0.052 C 
ATOM     37  C   UNL     1       5.597  -5.480  22.700  0.00  0.00    +0.170 C 
ATOM     38  C   UNL     1       6.527  -6.412  21.936  0.00  0.00    +0.052 C 
ENDBRANCH  35  37
ENDBRANCH  33  35
ENDBRANCH  32  33
ENDBRANCH  31  32
ENDBRANCH  30  31
ENDBRANCH  28  30
ENDBRANCH  27  29
ENDBRANCH   1  27
TORSDOF 17
ENDMDL
