MODEL 1
REMARK VINA RESULT:      -7.0      0.000      0.000
REMARK  Name = 
REMARK  3 active torsions:
REMARK  status: ('A' for Active; 'I' for Inactive)
REMARK    1  A    between atoms: C_1  and  C_2
REMARK    2  A    between atoms: N_10  and  C_17
REMARK    3  A    between atoms: C_13  and  O_14
REMARK                            x       y       z     vdW  Elec       q    Type
REMARK                         _______ _______ _______ _____ _____    ______ ____
ROOT
ATOM      1  C   UNL     1       2.005  -5.641  22.981  0.00  0.00    +0.044 C 
ATOM      2  C   UNL     1       3.361  -5.609  23.622  0.00  0.00    -0.046 A 
ATOM      3  C   UNL     1       4.231  -4.542  23.353  0.00  0.00    +0.059 A 
ATOM      4  C   UNL     1       5.465  -4.426  24.002  0.00  0.00    +0.187 A 
ATOM      5  N   UNL     1       6.234  -3.285  23.736  0.00  0.00    -0.042 NA
ATOM      6  C   UNL     1       7.408  -3.161  24.266  0.00  0.00    +0.334 C 
ATOM      7  C   UNL     1       8.061  -4.248  25.120  0.00  0.00    +0.235 C 
ATOM      8  C   UNL     1       7.058  -5.214  25.709  0.00  0.00    +0.211 C 
ATOM      9  O   UNL     1       7.309  -5.906  26.695  0.00  0.00    -0.288 OA
ATOM     10  C   UNL     1       8.804  -3.388  26.140  0.00  0.00    +0.099 C 
ATOM     11  C   UNL     1       9.135  -2.078  25.402  0.00  0.00    +0.236 C 
ATOM     12  N   UNL     1       8.231  -2.049  24.255  0.00  0.00    -0.188 N 
ATOM     13  C   UNL     1       5.806  -5.391  24.955  0.00  0.00    +0.072 A 
ATOM     14  C   UNL     1       4.974  -6.490  25.201  0.00  0.00    +0.016 A 
ATOM     15  C   UNL     1       3.756  -6.598  24.528  0.00  0.00    +0.004 A 
ENDROOT
BRANCH  12  16
ATOM     16  C   UNL     1       8.260  -0.996  23.328  0.00  0.00    +0.121 A 
ATOM     17  C   UNL     1       7.323   0.055  23.367  0.00  0.00    +0.049 A 
ATOM     18  C   UNL     1       7.359   1.121  22.457  0.00  0.00    +0.004 A 
ATOM     19  C   UNL     1       8.340   1.168  21.474  0.00  0.00    +0.000 A 
ATOM     20  C   UNL     1       9.286   0.155  21.412  0.00  0.00    +0.004 A 
ATOM     21  C   UNL     1       9.247  -0.902  22.332  0.00  0.00    +0.049 A 
ENDBRANCH  12  16
BRANCH   7  22
ATOM     22  O   UNL     1       9.018  -5.012  24.386  0.00  0.00    -0.370 OA
ATOM     23  H   UNL     1       9.549  -4.369  23.873  0.00  0.00    +0.211 HD
ENDBRANCH   7  22
TORSDOF 2
ENDMDL
MODEL 2
REMARK VINA RESULT:      -7.0      2.058      3.194
REMARK  Name = 
REMARK  3 active torsions:
REMARK  status: ('A' for Active; 'I' for Inactive)
REMARK    1  A    between atoms: C_1  and  C_2
REMARK    2  A    between atoms: N_10  and  C_17
REMARK    3  A    between atoms: C_13  and  O_14
REMARK                            x       y       z     vdW  Elec       q    Type
REMARK                         _______ _______ _______ _____ _____    ______ ____
ROOT
ATOM      1  C   UNL     1       3.967  -5.276  22.991  0.00  0.00    +0.044 C 
ATOM      2  C   UNL     1       5.355  -4.712  23.064  0.00  0.00    -0.046 A 
ATOM      3  C   UNL     1       5.545  -3.324  23.006  0.00  0.00    +0.059 A 
ATOM      4  C   UNL     1       6.813  -2.754  23.165  0.00  0.00    +0.187 A 
ATOM      5  N   UNL     1       6.899  -1.356  23.176  0.00  0.00    -0.042 NA
ATOM      6  C   UNL     1       8.056  -0.782  23.261  0.00  0.00    +0.334 C 
ATOM      7  C   UNL     1       9.376  -1.554  23.267  0.00  0.00    +0.235 C 
ATOM      8  C   UNL     1       9.210  -2.998  23.682  0.00  0.00    +0.211 C 
ATOM      9  O   UNL     1      10.145  -3.673  24.110  0.00  0.00    -0.288 OA
ATOM     10  C   UNL     1      10.193  -0.696  24.230  0.00  0.00    +0.099 C 
ATOM     11  C   UNL     1       9.635   0.731  24.075  0.00  0.00    +0.236 C 
ATOM     12  N   UNL     1       8.325   0.561  23.451  0.00  0.00    -0.188 N 
ATOM     13  C   UNL     1       7.895  -3.604  23.415  0.00  0.00    +0.072 A 
ATOM     14  C   UNL     1       7.735  -4.994  23.428  0.00  0.00    +0.016 A 
ATOM     15  C   UNL     1       6.464  -5.545  23.247  0.00  0.00    +0.004 A 
ENDROOT
BRANCH  12  16
ATOM     16  C   UNL     1       7.520   1.665  23.134  0.00  0.00    +0.121 A 
ATOM     17  C   UNL     1       6.257   1.861  23.727  0.00  0.00    +0.049 A 
ATOM     18  C   UNL     1       5.457   2.972  23.430  0.00  0.00    +0.004 A 
ATOM     19  C   UNL     1       5.896   3.928  22.523  0.00  0.00    +0.000 A 
ATOM     20  C   UNL     1       7.139   3.774  21.925  0.00  0.00    +0.004 A 
ATOM     21  C   UNL     1       7.937   2.663  22.236  0.00  0.00    +0.049 A 
ENDBRANCH  12  16
BRANCH   7  22
ATOM     22  O   UNL     1      10.016  -1.541  21.991  0.00  0.00    -0.370 OA
ATOM     23  H   UNL     1      10.847  -2.050  22.094  0.00  0.00    +0.211 HD
ENDBRANCH   7  22
TORSDOF 2
ENDMDL
MODEL 3
REMARK VINA RESULT:      -6.6      3.558      6.928
REMARK  Name = 
REMARK  3 active torsions:
REMARK  status: ('A' for Active; 'I' for Inactive)
REMARK    1  A    between atoms: C_1  and  C_2
REMARK    2  A    between atoms: N_10  and  C_17
REMARK    3  A    between atoms: C_13  and  O_14
REMARK                            x       y       z     vdW  Elec       q    Type
REMARK                         _______ _______ _______ _____ _____    ______ ____
ROOT
ATOM      1  C   UNL     1       5.328   2.780  28.025  0.00  0.00    +0.044 C 
ATOM      2  C   UNL     1       6.446   2.698  27.028  0.00  0.00    -0.046 A 
ATOM      3  C   UNL     1       6.729   1.476  26.401  0.00  0.00    +0.059 A 
ATOM      4  C   UNL     1       7.701   1.378  25.398  0.00  0.00    +0.187 A 
ATOM      5  N   UNL     1       7.860   0.137  24.769  0.00  0.00    -0.042 NA
ATOM      6  C   UNL     1       8.785  -0.019  23.877  0.00  0.00    +0.334 C 
ATOM      7  C   UNL     1       9.795   1.072  23.517  0.00  0.00    +0.235 C 
ATOM      8  C   UNL     1       9.318   2.458  23.885  0.00  0.00    +0.211 C 
ATOM      9  O   UNL     1       9.777   3.474  23.364  0.00  0.00    -0.288 OA
ATOM     10  C   UNL     1       9.951   0.820  22.019  0.00  0.00    +0.099 C 
ATOM     11  C   UNL     1       9.689  -0.686  21.831  0.00  0.00    +0.236 C 
ATOM     12  N   UNL     1       8.984  -1.103  23.041  0.00  0.00    -0.188 N 
ATOM     13  C   UNL     1       8.370   2.542  25.009  0.00  0.00    +0.072 A 
ATOM     14  C   UNL     1       8.137   3.762  25.655  0.00  0.00    +0.016 A 
ATOM     15  C   UNL     1       7.178   3.835  26.668  0.00  0.00    +0.004 A 
ENDROOT
BRANCH  12  16
ATOM     16  C   UNL     1       8.595  -2.437  23.236  0.00  0.00    +0.121 A 
ATOM     17  C   UNL     1       7.682  -3.079  22.376  0.00  0.00    +0.049 A 
ATOM     18  C   UNL     1       7.306  -4.417  22.554  0.00  0.00    +0.004 A 
ATOM     19  C   UNL     1       7.832  -5.159  23.604  0.00  0.00    +0.000 A 
ATOM     20  C   UNL     1       8.742  -4.562  24.465  0.00  0.00    +0.004 A 
ATOM     21  C   UNL     1       9.119  -3.226  24.275  0.00  0.00    +0.049 A 
ENDBRANCH  12  16
BRANCH   7  22
ATOM     22  O   UNL     1      11.060   0.867  24.147  0.00  0.00    -0.370 OA
ATOM     23  H   UNL     1      11.339  -0.043  23.917  0.00  0.00    +0.211 HD
ENDBRANCH   7  22
TORSDOF 2
ENDMDL
MODEL 4
REMARK VINA RESULT:      -6.6      2.182      2.498
REMARK  Name = 
REMARK  3 active torsions:
REMARK  status: ('A' for Active; 'I' for Inactive)
REMARK    1  A    between atoms: C_1  and  C_2
REMARK    2  A    between atoms: N_10  and  C_17
REMARK    3  A    between atoms: C_13  and  O_14
REMARK                            x       y       z     vdW  Elec       q    Type
REMARK                         _______ _______ _______ _____ _____    ______ ____
ROOT
ATOM      1  C   UNL     1       6.082  -6.000  20.506  0.00  0.00    +0.044 C 
ATOM      2  C   UNL     1       6.246  -5.451  21.893  0.00  0.00    -0.046 A 
ATOM      3  C   UNL     1       6.873  -4.210  22.078  0.00  0.00    +0.059 A 
ATOM      4  C   UNL     1       6.962  -3.620  23.345  0.00  0.00    +0.187 A 
ATOM      5  N   UNL     1       7.531  -2.343  23.426  0.00  0.00    -0.042 NA
ATOM      6  C   UNL     1       7.688  -1.780  24.581  0.00  0.00    +0.334 C 
ATOM      7  C   UNL     1       7.361  -2.475  25.903  0.00  0.00    +0.235 C 
ATOM      8  C   UNL     1       6.387  -3.619  25.741  0.00  0.00    +0.211 C 
ATOM      9  O   UNL     1       5.716  -4.053  26.677  0.00  0.00    -0.288 OA
ATOM     10  C   UNL     1       6.838  -1.292  26.715  0.00  0.00    +0.099 C 
ATOM     11  C   UNL     1       7.570  -0.060  26.153  0.00  0.00    +0.236 C 
ATOM     12  N   UNL     1       8.070  -0.477  24.846  0.00  0.00    -0.188 N 
ATOM     13  C   UNL     1       6.382  -4.286  24.428  0.00  0.00    +0.072 A 
ATOM     14  C   UNL     1       5.795  -5.548  24.272  0.00  0.00    +0.016 A 
ATOM     15  C   UNL     1       5.734  -6.129  23.004  0.00  0.00    +0.004 A 
ENDROOT
BRANCH  12  16
ATOM     16  C   UNL     1       8.817   0.393  24.038  0.00  0.00    +0.121 A 
ATOM     17  C   UNL     1       8.504   0.602  22.680  0.00  0.00    +0.049 A 
ATOM     18  C   UNL     1       9.233   1.486  21.873  0.00  0.00    +0.004 A 
ATOM     19  C   UNL     1      10.306   2.191  22.402  0.00  0.00    +0.000 A 
ATOM     20  C   UNL     1      10.638   2.019  23.739  0.00  0.00    +0.004 A 
ATOM     21  C   UNL     1       9.897   1.139  24.540  0.00  0.00    +0.049 A 
ENDBRANCH  12  16
BRANCH   7  22
ATOM     22  O   UNL     1       8.528  -2.989  26.548  0.00  0.00    -0.370 OA
ATOM     23  H   UNL     1       8.369  -2.908  27.510  0.00  0.00    +0.211 HD
ENDBRANCH   7  22
TORSDOF 2
ENDMDL
MODEL 5
REMARK VINA RESULT:      -6.6      2.452      3.686
REMARK  Name = 
REMARK  3 active torsions:
REMARK  status: ('A' for Active; 'I' for Inactive)
REMARK    1  A    between atoms: C_1  and  C_2
REMARK    2  A    between atoms: N_10  and  C_17
REMARK    3  A    between atoms: C_13  and  O_14
REMARK                            x       y       z     vdW  Elec       q    Type
REMARK                         _______ _______ _______ _____ _____    ______ ____
ROOT
ATOM      1  C   UNL     1       5.311  -5.265  30.075  0.00  0.00    +0.044 C 
ATOM      2  C   UNL     1       5.087  -5.540  28.617  0.00  0.00    -0.046 A 
ATOM      3  C   UNL     1       5.792  -4.802  27.655  0.00  0.00    +0.059 A 
ATOM      4  C   UNL     1       5.682  -5.090  26.290  0.00  0.00    +0.187 A 
ATOM      5  N   UNL     1       6.485  -4.358  25.406  0.00  0.00    -0.042 NA
ATOM      6  C   UNL     1       6.377  -4.547  24.130  0.00  0.00    +0.334 C 
ATOM      7  C   UNL     1       5.340  -5.482  23.506  0.00  0.00    +0.235 C 
ATOM      8  C   UNL     1       4.830  -6.524  24.476  0.00  0.00    +0.211 C 
ATOM      9  O   UNL     1       4.304  -7.572  24.103  0.00  0.00    -0.288 OA
ATOM     10  C   UNL     1       6.140  -6.034  22.328  0.00  0.00    +0.099 C 
ATOM     11  C   UNL     1       7.132  -4.918  21.954  0.00  0.00    +0.236 C 
ATOM     12  N   UNL     1       7.187  -4.048  23.126  0.00  0.00    -0.188 N 
ATOM     13  C   UNL     1       4.867  -6.158  25.902  0.00  0.00    +0.072 A 
ATOM     14  C   UNL     1       4.117  -6.875  26.842  0.00  0.00    +0.016 A 
ATOM     15  C   UNL     1       4.225  -6.558  28.197  0.00  0.00    +0.004 A 
ENDROOT
BRANCH  12  16
ATOM     16  C   UNL     1       7.987  -2.895  23.143  0.00  0.00    +0.121 A 
ATOM     17  C   UNL     1       7.535  -1.669  22.616  0.00  0.00    +0.049 A 
ATOM     18  C   UNL     1       8.321  -0.509  22.649  0.00  0.00    +0.004 A 
ATOM     19  C   UNL     1       9.590  -0.540  23.211  0.00  0.00    +0.000 A 
ATOM     20  C   UNL     1      10.065  -1.727  23.749  0.00  0.00    +0.004 A 
ATOM     21  C   UNL     1       9.268  -2.881  23.720  0.00  0.00    +0.049 A 
ENDBRANCH  12  16
BRANCH   7  22
ATOM     22  O   UNL     1       4.209  -4.775  22.997  0.00  0.00    -0.370 OA
ATOM     23  H   UNL     1       3.646  -4.562  23.770  0.00  0.00    +0.211 HD
ENDBRANCH   7  22
TORSDOF 2
ENDMDL
MODEL 6
REMARK VINA RESULT:      -6.4      2.839      6.671
REMARK  Name = 
REMARK  3 active torsions:
REMARK  status: ('A' for Active; 'I' for Inactive)
REMARK    1  A    between atoms: C_1  and  C_2
REMARK    2  A    between atoms: N_10  and  C_17
REMARK    3  A    between atoms: C_13  and  O_14
REMARK                            x       y       z     vdW  Elec       q    Type
REMARK                         _______ _______ _______ _____ _____    ______ ____
ROOT
ATOM      1  C   UNL     1       4.024   3.419  23.160  0.00  0.00    +0.044 C 
ATOM      2  C   UNL     1       5.447   2.948  23.095  0.00  0.00    -0.046 A 
ATOM      3  C   UNL     1       5.771   1.654  23.529  0.00  0.00    +0.059 A 
ATOM      4  C   UNL     1       7.068   1.145  23.399  0.00  0.00    +0.187 A 
ATOM      5  N   UNL     1       7.283  -0.185  23.782  0.00  0.00    -0.042 NA
ATOM      6  C   UNL     1       8.476  -0.684  23.736  0.00  0.00    +0.334 C 
ATOM      7  C   UNL     1       9.712   0.133  23.359  0.00  0.00    +0.235 C 
ATOM      8  C   UNL     1       9.375   1.376  22.567  0.00  0.00    +0.211 C 
ATOM      9  O   UNL     1      10.201   1.952  21.860  0.00  0.00    -0.288 OA
ATOM     10  C   UNL     1      10.517  -0.918  22.598  0.00  0.00    +0.099 C 
ATOM     11  C   UNL     1      10.111  -2.267  23.219  0.00  0.00    +0.236 C 
ATOM     12  N   UNL     1       8.852  -2.004  23.911  0.00  0.00    -0.188 N 
ATOM     13  C   UNL     1       8.038   1.949  22.795  0.00  0.00    +0.072 A 
ATOM     14  C   UNL     1       7.748   3.260  22.400  0.00  0.00    +0.016 A 
ATOM     15  C   UNL     1       6.453   3.758  22.557  0.00  0.00    +0.004 A 
ENDROOT
BRANCH  12  16
ATOM     16  C   UNL     1       8.185  -3.013  24.622  0.00  0.00    +0.121 A 
ATOM     17  C   UNL     1       8.327  -3.160  26.016  0.00  0.00    +0.049 A 
ATOM     18  C   UNL     1       7.648  -4.153  26.735  0.00  0.00    +0.004 A 
ATOM     19  C   UNL     1       6.800  -5.036  26.078  0.00  0.00    +0.000 A 
ATOM     20  C   UNL     1       6.627  -4.915  24.706  0.00  0.00    +0.004 A 
ATOM     21  C   UNL     1       7.305  -3.913  23.997  0.00  0.00    +0.049 A 
ENDBRANCH  12  16
BRANCH   7  22
ATOM     22  O   UNL     1      10.462   0.540  24.504  0.00  0.00    -0.370 OA
ATOM     23  H   UNL     1       9.831   0.994  25.100  0.00  0.00    +0.211 HD
ENDBRANCH   7  22
TORSDOF 2
ENDMDL
MODEL 7
REMARK VINA RESULT:      -6.3      2.695      3.213
REMARK  Name = 
REMARK  3 active torsions:
REMARK  status: ('A' for Active; 'I' for Inactive)
REMARK    1  A    between atoms: C_1  and  C_2
REMARK    2  A    between atoms: N_10  and  C_17
REMARK    3  A    between atoms: C_13  and  O_14
REMARK                            x       y       z     vdW  Elec       q    Type
REMARK                         _______ _______ _______ _____ _____    ______ ____
ROOT
ATOM      1  C   UNL     1       3.411  -0.918  28.789  0.00  0.00    +0.044 C 
ATOM      2  C   UNL     1       4.267  -2.014  28.227  0.00  0.00    -0.046 A 
ATOM      3  C   UNL     1       5.229  -1.713  27.252  0.00  0.00    +0.059 A 
ATOM      4  C   UNL     1       6.109  -2.689  26.770  0.00  0.00    +0.187 A 
ATOM      5  N   UNL     1       7.092  -2.282  25.859  0.00  0.00    -0.042 NA
ATOM      6  C   UNL     1       7.892  -3.158  25.341  0.00  0.00    +0.334 C 
ATOM      7  C   UNL     1       7.775  -4.659  25.604  0.00  0.00    +0.235 C 
ATOM      8  C   UNL     1       7.020  -4.976  26.875  0.00  0.00    +0.211 C 
ATOM      9  O   UNL     1       7.132  -6.053  27.458  0.00  0.00    -0.288 OA
ATOM     10  C   UNL     1       9.250  -5.054  25.614  0.00  0.00    +0.099 C 
ATOM     11  C   UNL     1       9.945  -4.048  24.679  0.00  0.00    +0.236 C 
ATOM     12  N   UNL     1       9.014  -2.928  24.565  0.00  0.00    -0.188 N 
ATOM     13  C   UNL     1       6.029  -3.977  27.307  0.00  0.00    +0.072 A 
ATOM     14  C   UNL     1       5.044  -4.309  28.245  0.00  0.00    +0.016 A 
ATOM     15  C   UNL     1       4.161  -3.327  28.698  0.00  0.00    +0.004 A 
ENDROOT
BRANCH  12  16
ATOM     16  C   UNL     1       9.306  -1.815  23.763  0.00  0.00    +0.121 A 
ATOM     17  C   UNL     1       9.951  -0.674  24.279  0.00  0.00    +0.049 A 
ATOM     18  C   UNL     1      10.265   0.433  23.479  0.00  0.00    +0.004 A 
ATOM     19  C   UNL     1       9.939   0.434  22.128  0.00  0.00    +0.000 A 
ATOM     20  C   UNL     1       9.311  -0.677  21.582  0.00  0.00    +0.004 A 
ATOM     21  C   UNL     1       9.010  -1.783  22.389  0.00  0.00    +0.049 A 
ENDBRANCH  12  16
BRANCH   7  22
ATOM     22  O   UNL     1       7.127  -5.347  24.533  0.00  0.00    -0.370 OA
ATOM     23  H   UNL     1       7.204  -4.769  23.747  0.00  0.00    +0.211 HD
ENDBRANCH   7  22
TORSDOF 2
ENDMDL
MODEL 8
REMARK VINA RESULT:      -6.3      2.552      3.256
REMARK  Name = 
REMARK  3 active torsions:
REMARK  status: ('A' for Active; 'I' for Inactive)
REMARK    1  A    between atoms: C_1  and  C_2
REMARK    2  A    between atoms: N_10  and  C_17
REMARK    3  A    between atoms: C_13  and  O_14
REMARK                            x       y       z     vdW  Elec       q    Type
REMARK                         _______ _______ _______ _____ _____    ______ ____
ROOT
ATOM      1  C   UNL     1       4.557  -3.797  28.613  0.00  0.00    +0.044 C 
ATOM      2  C   UNL     1       5.558  -3.883  27.498  0.00  0.00    -0.046 A 
ATOM      3  C   UNL     1       5.927  -2.721  26.806  0.00  0.00    +0.059 A 
ATOM      4  C   UNL     1       6.924  -2.743  25.824  0.00  0.00    +0.187 A 
ATOM      5  N   UNL     1       7.288  -1.521  25.242  0.00  0.00    -0.042 NA
ATOM      6  C   UNL     1       8.163  -1.497  24.288  0.00  0.00    +0.334 C 
ATOM      7  C   UNL     1       8.779  -2.759  23.685  0.00  0.00    +0.235 C 
ATOM      8  C   UNL     1       8.689  -3.956  24.605  0.00  0.00    +0.211 C 
ATOM      9  O   UNL     1       9.427  -4.934  24.490  0.00  0.00    -0.288 OA
ATOM     10  C   UNL     1      10.197  -2.268  23.404  0.00  0.00    +0.099 C 
ATOM     11  C   UNL     1      10.058  -0.756  23.147  0.00  0.00    +0.236 C 
ATOM     12  N   UNL     1       8.763  -0.391  23.715  0.00  0.00    -0.188 N 
ATOM     13  C   UNL     1       7.572  -3.954  25.564  0.00  0.00    +0.072 A 
ATOM     14  C   UNL     1       7.185  -5.135  26.209  0.00  0.00    +0.016 A 
ATOM     15  C   UNL     1       6.173  -5.096  27.171  0.00  0.00    +0.004 A 
ENDROOT
BRANCH  12  16
ATOM     16  C   UNL     1       8.280   0.925  23.647  0.00  0.00    +0.121 A 
ATOM     17  C   UNL     1       7.422   1.351  22.615  0.00  0.00    +0.049 A 
ATOM     18  C   UNL     1       6.920   2.658  22.553  0.00  0.00    +0.004 A 
ATOM     19  C   UNL     1       7.266   3.586  23.527  0.00  0.00    +0.000 A 
ATOM     20  C   UNL     1       8.102   3.200  24.565  0.00  0.00    +0.004 A 
ATOM     21  C   UNL     1       8.591   1.888  24.623  0.00  0.00    +0.049 A 
ENDBRANCH  12  16
BRANCH   7  22
ATOM     22  O   UNL     1       8.169  -3.120  22.445  0.00  0.00    -0.370 OA
ATOM     23  H   UNL     1       7.339  -2.605  22.386  0.00  0.00    +0.211 HD
ENDBRANCH   7  22
TORSDOF 2
ENDMDL
MODEL 9
REMARK VINA RESULT:      -6.3      4.560      8.692
REMARK  Name = 
REMARK  3 active torsions:
REMARK  status: ('A' for Active; 'I' for Inactive)
REMARK    1  A    between atoms: C_1  and  C_2
REMARK    2  A    between atoms: N_10  and  C_17
REMARK    3  A    between atoms: C_13  and  O_14
REMARK                            x       y       z     vdW  Elec       q    Type
REMARK                         _______ _______ _______ _____ _____    ______ ____
ROOT
ATOM      1  C   UNL     1      13.194   5.037  22.990  0.00  0.00    +0.044 C 
ATOM      2  C   UNL     1      11.750   4.901  23.373  0.00  0.00    -0.046 A 
ATOM      3  C   UNL     1      11.155   3.631  23.397  0.00  0.00    +0.059 A 
ATOM      4  C   UNL     1       9.839   3.450  23.837  0.00  0.00    +0.187 A 
ATOM      5  N   UNL     1       9.354   2.138  23.907  0.00  0.00    -0.042 NA
ATOM      6  C   UNL     1       8.125   1.923  24.252  0.00  0.00    +0.334 C 
ATOM      7  C   UNL     1       7.120   3.045  24.514  0.00  0.00    +0.235 C 
ATOM      8  C   UNL     1       7.783   4.364  24.842  0.00  0.00    +0.211 C 
ATOM      9  O   UNL     1       7.198   5.267  25.438  0.00  0.00    -0.288 OA
ATOM     10  C   UNL     1       6.310   2.430  25.654  0.00  0.00    +0.099 C 
ATOM     11  C   UNL     1       6.382   0.909  25.427  0.00  0.00    +0.236 C 
ATOM     12  N   UNL     1       7.522   0.711  24.535  0.00  0.00    -0.188 N 
ATOM     13  C   UNL     1       9.131   4.569  24.285  0.00  0.00    +0.072 A 
ATOM     14  C   UNL     1       9.689   5.851  24.223  0.00  0.00    +0.016 A 
ATOM     15  C   UNL     1      10.996   6.013  23.760  0.00  0.00    +0.004 A 
ENDROOT
BRANCH  12  16
ATOM     16  C   UNL     1       7.885  -0.568  24.087  0.00  0.00    +0.121 A 
ATOM     17  C   UNL     1       8.979  -1.266  24.635  0.00  0.00    +0.049 A 
ATOM     18  C   UNL     1       9.333  -2.553  24.206  0.00  0.00    +0.004 A 
ATOM     19  C   UNL     1       8.601  -3.184  23.209  0.00  0.00    +0.000 A 
ATOM     20  C   UNL     1       7.510  -2.532  22.653  0.00  0.00    +0.004 A 
ATOM     21  C   UNL     1       7.158  -1.248  23.094  0.00  0.00    +0.049 A 
ENDBRANCH  12  16
BRANCH   7  22
ATOM     22  O   UNL     1       6.249   3.263  23.403  0.00  0.00    -0.370 OA
ATOM     23  H   UNL     1       6.759   3.789  22.753  0.00  0.00    +0.211 HD
ENDBRANCH   7  22
TORSDOF 2
ENDMDL
