MODEL 1
REMARK VINA RESULT:      -4.3      0.000      0.000
REMARK  Name = 
REMARK  46 active torsions:
REMARK  status: ('A' for Active; 'I' for Inactive)
REMARK    1  A    between atoms: C_1  and  C_2
REMARK    2  A    between atoms: C_2  and  C_3
REMARK    3  A    between atoms: C_3  and  C_4
REMARK    4  A    between atoms: C_4  and  C_5
REMARK    5  A    between atoms: C_5  and  C_6
REMARK    6  A    between atoms: C_6  and  C_7
REMARK    7  A    between atoms: C_7  and  C_8
REMARK    8  A    between atoms: C_8  and  C_9
REMARK    9  A    between atoms: C_9  and  C_10
REMARK   10  A    between atoms: C_10  and  C_11
REMARK   11  A    between atoms: C_11  and  C_12
REMARK   12  A    between atoms: C_12  and  C_13
REMARK   13  A    between atoms: C_13  and  C_14
REMARK   14  A    between atoms: C_14  and  C_15
REMARK   15  A    between atoms: C_15  and  C_16
REMARK   16  A    between atoms: C_16  and  O_18
REMARK   17  A    between atoms: O_18  and  C_19
REMARK   18  A    between atoms: C_19  and  C_20
REMARK   19  A    between atoms: C_19  and  C_41
REMARK   20  A    between atoms: C_20  and  O_21
REMARK   21  A    between atoms: O_21  and  C_22
REMARK   22  A    between atoms: C_22  and  C_24
REMARK   23  A    between atoms: C_24  and  C_25
REMARK   24  A    between atoms: C_25  and  C_26
REMARK   25  A    between atoms: C_26  and  C_27
REMARK   26  A    between atoms: C_27  and  C_28
REMARK   27  A    between atoms: C_28  and  C_29
REMARK   28  A    between atoms: C_29  and  C_30
REMARK   29  A    between atoms: C_30  and  C_31
REMARK   30  A    between atoms: C_32  and  C_33
REMARK   31  A    between atoms: C_33  and  C_34
REMARK   32  A    between atoms: C_34  and  C_35
REMARK   33  A    between atoms: C_35  and  C_36
REMARK   34  A    between atoms: C_36  and  C_37
REMARK   35  A    between atoms: C_37  and  C_38
REMARK   36  A    between atoms: C_38  and  C_39
REMARK   37  A    between atoms: C_39  and  C_40
REMARK   38  A    between atoms: C_41  and  O_42
REMARK   39  A    between atoms: O_42  and  P_43
REMARK   40  A    between atoms: P_43  and  O_46
REMARK   41  A    between atoms: O_46  and  C_47
REMARK   42  A    between atoms: C_47  and  C_48
REMARK   43  A    between atoms: C_48  and  N_49
REMARK   44  A    between atoms: N_49  and  C_50
REMARK   45  A    between atoms: N_49  and  C_51
REMARK   46  A    between atoms: N_49  and  C_52
REMARK                            x       y       z     vdW  Elec       q    Type
REMARK                         _______ _______ _______ _____ _____    ______ ____
ROOT
ATOM      1  C   UNL     1       5.369  -5.712  25.443  0.00  0.00    +0.240 C 
ENDROOT
BRANCH   1   2
ATOM      2  C   UNL     1       5.047  -5.127  24.057  0.00  0.00    +0.279 C 
BRANCH   2   3
ATOM      3  O   UNL     1       6.187  -5.306  23.189  0.00  0.00    -0.461 OA
BRANCH   3   4
ATOM      4  C   UNL     1       6.436  -4.262  22.356  0.00  0.00    +0.307 C 
ATOM      5  O   UNL     1       5.630  -3.784  21.569  0.00  0.00    -0.251 OA
BRANCH   4   6
ATOM      6  C   UNL     1       7.830  -3.735  22.586  0.00  0.00    +0.120 C 
BRANCH   6   7
ATOM      7  C   UNL     1       7.834  -2.225  22.389  0.00  0.00    +0.011 C 
BRANCH   7   8
ATOM      8  C   UNL     1       9.197  -1.696  21.949  0.00  0.00    +0.001 C 
BRANCH   8   9
ATOM      9  C   UNL     1      10.148  -1.739  23.140  0.00  0.00    +0.000 C 
BRANCH   9  10
ATOM     10  C   UNL     1       9.622  -0.965  24.344  0.00  0.00    +0.000 C 
BRANCH  10  11
ATOM     11  C   UNL     1      10.508   0.241  24.672  0.00  0.00    +0.004 C 
BRANCH  11  12
ATOM     12  C   UNL     1       9.903   1.599  24.302  0.00  0.00    +0.027 C 
BRANCH  12  13
ATOM     13  C   UNL     1      10.094   1.942  22.848  0.00  0.00    -0.031 C 
ATOM     14  C   UNL     1       9.119   1.934  21.927  0.00  0.00    -0.031 C 
BRANCH  14  15
ATOM     15  C   UNL     1       7.698   1.602  22.259  0.00  0.00    +0.027 C 
BRANCH  15  16
ATOM     16  C   UNL     1       6.926   2.781  22.832  0.00  0.00    +0.004 C 
BRANCH  16  17
ATOM     17  C   UNL     1       7.177   4.010  21.963  0.00  0.00    +0.000 C 
BRANCH  17  18
ATOM     18  C   UNL     1       7.453   5.234  22.821  0.00  0.00    +0.000 C 
BRANCH  18  19
ATOM     19  C   UNL     1       8.119   4.835  24.134  0.00  0.00    -0.000 C 
BRANCH  19  20
ATOM     20  C   UNL     1       8.846   6.028  24.743  0.00  0.00    -0.000 C 
BRANCH  20  21
ATOM     21  C   UNL     1      10.013   6.474  23.869  0.00  0.00    -0.003 C 
ATOM     22  C   UNL     1      11.063   5.381  23.771  0.00  0.00    +0.004 C 
ENDBRANCH  20  21
ENDBRANCH  19  20
ENDBRANCH  18  19
ENDBRANCH  17  18
ENDBRANCH  16  17
ENDBRANCH  15  16
ENDBRANCH  14  15
ENDBRANCH  12  13
ENDBRANCH  11  12
ENDBRANCH  10  11
ENDBRANCH   9  10
ENDBRANCH   8   9
ENDBRANCH   7   8
ENDBRANCH   6   7
ENDBRANCH   4   6
ENDBRANCH   3   4
ENDBRANCH   2   3
ENDBRANCH   1   2
BRANCH   1  23
ATOM     23  O   UNL     1       6.799  -5.943  25.600  0.00  0.00    -0.456 OA
BRANCH  23  24
ATOM     24  C   UNL     1       7.431  -5.365  26.654  0.00  0.00    +0.308 C 
ATOM     25  O   UNL     1       7.436  -5.791  27.799  0.00  0.00    -0.251 OA
BRANCH  24  26
ATOM     26  C   UNL     1       8.171  -4.135  26.195  0.00  0.00    +0.120 C 
BRANCH  26  27
ATOM     27  C   UNL     1       7.515  -2.854  26.716  0.00  0.00    +0.011 C 
BRANCH  27  28
ATOM     28  C   UNL     1       6.520  -2.253  25.717  0.00  0.00    +0.001 C 
BRANCH  28  29
ATOM     29  C   UNL     1       5.886  -0.980  26.275  0.00  0.00    +0.000 C 
BRANCH  29  30
ATOM     30  C   UNL     1       5.587   0.022  25.161  0.00  0.00    +0.000 C 
BRANCH  30  31
ATOM     31  C   UNL     1       5.791   1.456  25.645  0.00  0.00    +0.000 C 
BRANCH  31  32
ATOM     32  C   UNL     1       7.015   1.560  26.551  0.00  0.00    -0.000 C 
BRANCH  32  33
ATOM     33  C   UNL     1       7.042   2.897  27.289  0.00  0.00    -0.000 C 
BRANCH  33  34
ATOM     34  C   UNL     1       5.748   3.116  28.070  0.00  0.00    -0.000 C 
BRANCH  34  35
ATOM     35  C   UNL     1       5.443   4.604  28.224  0.00  0.00    -0.000 C 
BRANCH  35  36
ATOM     36  C   UNL     1       6.041   5.406  27.071  0.00  0.00    -0.000 C 
BRANCH  36  37
ATOM     37  C   UNL     1       5.071   6.480  26.585  0.00  0.00    -0.000 C 
BRANCH  37  38
ATOM     38  C   UNL     1       4.630   6.212  25.147  0.00  0.00    -0.000 C 
BRANCH  38  40
ATOM     39  C   UNL     1       3.683   4.467  23.604  0.00  0.00    +0.004 C 
ATOM     40  C   UNL     1       4.440   4.718  24.896  0.00  0.00    -0.003 C 
ENDBRANCH  38  40
ENDBRANCH  37  38
ENDBRANCH  36  37
ENDBRANCH  35  36
ENDBRANCH  34  35
ENDBRANCH  33  34
ENDBRANCH  32  33
ENDBRANCH  31  32
ENDBRANCH  30  31
ENDBRANCH  29  30
ENDBRANCH  28  29
ENDBRANCH  27  28
ENDBRANCH  26  27
ENDBRANCH  24  26
ENDBRANCH  23  24
ENDBRANCH   1  23
BRANCH   1  41
ATOM     41  C   UNL     1       4.533  -6.941  25.787  0.00  0.00    +0.216 C 
BRANCH  41  42
ATOM     42  O   UNL     1       4.042  -7.515  24.581  0.00  0.00    -0.324 OA
BRANCH  42  43
ATOM     43  P   UNL     1       2.455  -7.791  24.569  0.00  0.00    +0.213 P 
ATOM     44  O   UNL     1       2.177  -9.225  24.920  0.00  0.00    -0.517 OA
ATOM     45  O   UNL     1       1.844  -7.152  23.349  0.00  0.00    -0.437 OA
BRANCH  43  46
ATOM     46  O   UNL     1       2.012  -6.914  25.864  0.00  0.00    -0.322 OA
BRANCH  46  47
ATOM     47  C   UNL     1       1.166  -5.804  25.638  0.00  0.00    +0.218 C 
BRANCH  47  48
ATOM     48  C   UNL     1       0.891  -4.937  26.884  0.00  0.00    +0.161 C 
BRANCH  48  49
ATOM     49  N   UNL     1       1.836  -3.713  27.092  0.00  0.00    +0.239 N 
ATOM     50  C   UNL     1       2.415  -3.246  25.751  0.00  0.00    +0.192 C 
ATOM     51  C   UNL     1       3.007  -4.187  27.942  0.00  0.00    +0.192 C 
ATOM     52  C   UNL     1       1.133  -2.566  27.769  0.00  0.00    +0.192 C 
ENDBRANCH  48  49
ENDBRANCH  47  48
ENDBRANCH  46  47
ENDBRANCH  43  46
ENDBRANCH  42  43
ENDBRANCH  41  42
ENDBRANCH   1  41
TORSDOF 41
ENDMDL
MODEL 2
REMARK VINA RESULT:      -4.2      2.711      6.442
REMARK  Name = 
REMARK  46 active torsions:
REMARK  status: ('A' for Active; 'I' for Inactive)
REMARK    1  A    between atoms: C_1  and  C_2
REMARK    2  A    between atoms: C_2  and  C_3
REMARK    3  A    between atoms: C_3  and  C_4
REMARK    4  A    between atoms: C_4  and  C_5
REMARK    5  A    between atoms: C_5  and  C_6
REMARK    6  A    between atoms: C_6  and  C_7
REMARK    7  A    between atoms: C_7  and  C_8
REMARK    8  A    between atoms: C_8  and  C_9
REMARK    9  A    between atoms: C_9  and  C_10
REMARK   10  A    between atoms: C_10  and  C_11
REMARK   11  A    between atoms: C_11  and  C_12
REMARK   12  A    between atoms: C_12  and  C_13
REMARK   13  A    between atoms: C_13  and  C_14
REMARK   14  A    between atoms: C_14  and  C_15
REMARK   15  A    between atoms: C_15  and  C_16
REMARK   16  A    between atoms: C_16  and  O_18
REMARK   17  A    between atoms: O_18  and  C_19
REMARK   18  A    between atoms: C_19  and  C_20
REMARK   19  A    between atoms: C_19  and  C_41
REMARK   20  A    between atoms: C_20  and  O_21
REMARK   21  A    between atoms: O_21  and  C_22
REMARK   22  A    between atoms: C_22  and  C_24
REMARK   23  A    between atoms: C_24  and  C_25
REMARK   24  A    between atoms: C_25  and  C_26
REMARK   25  A    between atoms: C_26  and  C_27
REMARK   26  A    between atoms: C_27  and  C_28
REMARK   27  A    between atoms: C_28  and  C_29
REMARK   28  A    between atoms: C_29  and  C_30
REMARK   29  A    between atoms: C_30  and  C_31
REMARK   30  A    between atoms: C_32  and  C_33
REMARK   31  A    between atoms: C_33  and  C_34
REMARK   32  A    between atoms: C_34  and  C_35
REMARK   33  A    between atoms: C_35  and  C_36
REMARK   34  A    between atoms: C_36  and  C_37
REMARK   35  A    between atoms: C_37  and  C_38
REMARK   36  A    between atoms: C_38  and  C_39
REMARK   37  A    between atoms: C_39  and  C_40
REMARK   38  A    between atoms: C_41  and  O_42
REMARK   39  A    between atoms: O_42  and  P_43
REMARK   40  A    between atoms: P_43  and  O_46
REMARK   41  A    between atoms: O_46  and  C_47
REMARK   42  A    between atoms: C_47  and  C_48
REMARK   43  A    between atoms: C_48  and  N_49
REMARK   44  A    between atoms: N_49  and  C_50
REMARK   45  A    between atoms: N_49  and  C_51
REMARK   46  A    between atoms: N_49  and  C_52
REMARK                            x       y       z     vdW  Elec       q    Type
REMARK                         _______ _______ _______ _____ _____    ______ ____
ROOT
ATOM      1  C   UNL     1       6.804  -4.662  27.197  0.00  0.00    +0.240 C 
ENDROOT
BRANCH   1   2
ATOM      2  C   UNL     1       8.240  -4.665  26.645  0.00  0.00    +0.279 C 
BRANCH   2   3
ATOM      3  O   UNL     1       8.406  -3.545  25.749  0.00  0.00    -0.461 OA
BRANCH   3   4
ATOM      4  C   UNL     1       9.479  -3.636  24.920  0.00  0.00    +0.307 C 
ATOM      5  O   UNL     1      10.100  -4.664  24.686  0.00  0.00    -0.251 OA
BRANCH   4   6
ATOM      6  C   UNL     1       9.755  -2.299  24.280  0.00  0.00    +0.120 C 
BRANCH   6   7
ATOM      7  C   UNL     1       8.747  -1.280  24.793  0.00  0.00    +0.011 C 
BRANCH   7   8
ATOM      8  C   UNL     1       9.396   0.051  25.163  0.00  0.00    +0.001 C 
BRANCH   8   9
ATOM      9  C   UNL     1      10.645   0.242  24.310  0.00  0.00    +0.000 C 
BRANCH   9  10
ATOM     10  C   UNL     1      10.461   1.295  23.221  0.00  0.00    +0.000 C 
BRANCH  10  11
ATOM     11  C   UNL     1       9.836   0.699  21.957  0.00  0.00    +0.004 C 
BRANCH  11  12
ATOM     12  C   UNL     1       8.622   1.464  21.421  0.00  0.00    +0.027 C 
BRANCH  12  13
ATOM     13  C   UNL     1       7.427   1.370  22.333  0.00  0.00    -0.031 C 
ATOM     14  C   UNL     1       6.944   2.384  23.066  0.00  0.00    -0.031 C 
BRANCH  14  15
ATOM     15  C   UNL     1       7.537   3.758  23.033  0.00  0.00    +0.027 C 
BRANCH  15  16
ATOM     16  C   UNL     1       8.446   4.046  24.218  0.00  0.00    +0.004 C 
BRANCH  16  17
ATOM     17  C   UNL     1       8.616   5.556  24.359  0.00  0.00    +0.000 C 
BRANCH  17  18
ATOM     18  C   UNL     1       9.883   6.026  23.663  0.00  0.00    +0.000 C 
BRANCH  18  19
ATOM     19  C   UNL     1      10.895   6.548  24.679  0.00  0.00    -0.000 C 
BRANCH  19  20
ATOM     20  C   UNL     1      12.299   6.075  24.319  0.00  0.00    -0.000 C 
BRANCH  20  21
ATOM     21  C   UNL     1      12.281   5.156  23.102  0.00  0.00    -0.003 C 
ATOM     22  C   UNL     1      13.274   5.629  22.055  0.00  0.00    +0.004 C 
ENDBRANCH  20  21
ENDBRANCH  19  20
ENDBRANCH  18  19
ENDBRANCH  17  18
ENDBRANCH  16  17
ENDBRANCH  15  16
ENDBRANCH  14  15
ENDBRANCH  12  13
ENDBRANCH  11  12
ENDBRANCH  10  11
ENDBRANCH   9  10
ENDBRANCH   8   9
ENDBRANCH   7   8
ENDBRANCH   6   7
ENDBRANCH   4   6
ENDBRANCH   3   4
ENDBRANCH   2   3
ENDBRANCH   1   2
BRANCH   1  23
ATOM     23  O   UNL     1       6.256  -6.011  27.253  0.00  0.00    -0.456 OA
BRANCH  23  24
ATOM     24  C   UNL     1       5.869  -6.498  28.460  0.00  0.00    +0.308 C 
ATOM     25  O   UNL     1       6.582  -7.110  29.240  0.00  0.00    -0.251 OA
BRANCH  24  26
ATOM     26  C   UNL     1       4.431  -6.128  28.724  0.00  0.00    +0.120 C 
BRANCH  26  27
ATOM     27  C   UNL     1       3.549  -6.387  27.500  0.00  0.00    +0.011 C 
BRANCH  27  28
ATOM     28  C   UNL     1       2.436  -5.345  27.345  0.00  0.00    +0.001 C 
BRANCH  28  29
ATOM     29  C   UNL     1       1.085  -6.018  27.107  0.00  0.00    +0.000 C 
BRANCH  29  30
ATOM     30  C   UNL     1       0.567  -5.733  25.698  0.00  0.00    +0.000 C 
BRANCH  30  31
ATOM     31  C   UNL     1       1.334  -4.581  25.055  0.00  0.00    +0.000 C 
BRANCH  31  32
ATOM     32  C   UNL     1       1.978  -5.016  23.741  0.00  0.00    -0.000 C 
BRANCH  32  33
ATOM     33  C   UNL     1       2.044  -6.539  23.637  0.00  0.00    -0.000 C 
BRANCH  33  34
ATOM     34  C   UNL     1       3.432  -7.051  24.014  0.00  0.00    -0.000 C 
BRANCH  34  35
ATOM     35  C   UNL     1       4.479  -5.947  23.892  0.00  0.00    -0.000 C 
BRANCH  35  36
ATOM     36  C   UNL     1       5.629  -6.384  22.988  0.00  0.00    -0.000 C 
BRANCH  36  37
ATOM     37  C   UNL     1       5.902  -5.344  21.903  0.00  0.00    -0.000 C 
BRANCH  37  38
ATOM     38  C   UNL     1       7.195  -4.583  22.185  0.00  0.00    -0.000 C 
BRANCH  38  40
ATOM     39  C   UNL     1       5.803  -2.614  22.902  0.00  0.00    +0.004 C 
ATOM     40  C   UNL     1       6.987  -3.075  22.068  0.00  0.00    -0.003 C 
ENDBRANCH  38  40
ENDBRANCH  37  38
ENDBRANCH  36  37
ENDBRANCH  35  36
ENDBRANCH  34  35
ENDBRANCH  33  34
ENDBRANCH  32  33
ENDBRANCH  31  32
ENDBRANCH  30  31
ENDBRANCH  29  30
ENDBRANCH  28  29
ENDBRANCH  27  28
ENDBRANCH  26  27
ENDBRANCH  24  26
ENDBRANCH  23  24
ENDBRANCH   1  23
BRANCH   1  41
ATOM     41  C   UNL     1       5.883  -3.682  26.477  0.00  0.00    +0.216 C 
BRANCH  41  42
ATOM     42  O   UNL     1       5.235  -2.865  27.446  0.00  0.00    -0.324 OA
BRANCH  42  43
ATOM     43  P   UNL     1       4.561  -1.528  26.850  0.00  0.00    +0.213 P 
ATOM     44  O   UNL     1       3.181  -1.828  26.338  0.00  0.00    -0.517 OA
ATOM     45  O   UNL     1       5.568  -0.795  26.001  0.00  0.00    -0.437 OA
BRANCH  43  46
ATOM     46  O   UNL     1       4.360  -0.683  28.224  0.00  0.00    -0.322 OA
BRANCH  46  47
ATOM     47  C   UNL     1       5.345   0.279  28.545  0.00  0.00    +0.218 C 
BRANCH  47  48
ATOM     48  C   UNL     1       4.855   1.742  28.507  0.00  0.00    +0.161 C 
BRANCH  48  49
ATOM     49  N   UNL     1       5.923   2.814  28.124  0.00  0.00    +0.239 N 
ATOM     50  C   UNL     1       6.873   2.269  27.052  0.00  0.00    +0.192 C 
ATOM     51  C   UNL     1       6.760   3.080  29.368  0.00  0.00    +0.192 C 
ATOM     52  C   UNL     1       5.290   4.092  27.640  0.00  0.00    +0.192 C 
ENDBRANCH  48  49
ENDBRANCH  47  48
ENDBRANCH  46  47
ENDBRANCH  43  46
ENDBRANCH  42  43
ENDBRANCH  41  42
ENDBRANCH   1  41
TORSDOF 41
ENDMDL
MODEL 3
REMARK VINA RESULT:      -4.2      2.093      5.000
REMARK  Name = 
REMARK  46 active torsions:
REMARK  status: ('A' for Active; 'I' for Inactive)
REMARK    1  A    between atoms: C_1  and  C_2
REMARK    2  A    between atoms: C_2  and  C_3
REMARK    3  A    between atoms: C_3  and  C_4
REMARK    4  A    between atoms: C_4  and  C_5
REMARK    5  A    between atoms: C_5  and  C_6
REMARK    6  A    between atoms: C_6  and  C_7
REMARK    7  A    between atoms: C_7  and  C_8
REMARK    8  A    between atoms: C_8  and  C_9
REMARK    9  A    between atoms: C_9  and  C_10
REMARK   10  A    between atoms: C_10  and  C_11
REMARK   11  A    between atoms: C_11  and  C_12
REMARK   12  A    between atoms: C_12  and  C_13
REMARK   13  A    between atoms: C_13  and  C_14
REMARK   14  A    between atoms: C_14  and  C_15
REMARK   15  A    between atoms: C_15  and  C_16
REMARK   16  A    between atoms: C_16  and  O_18
REMARK   17  A    between atoms: O_18  and  C_19
REMARK   18  A    between atoms: C_19  and  C_20
REMARK   19  A    between atoms: C_19  and  C_41
REMARK   20  A    between atoms: C_20  and  O_21
REMARK   21  A    between atoms: O_21  and  C_22
REMARK   22  A    between atoms: C_22  and  C_24
REMARK   23  A    between atoms: C_24  and  C_25
REMARK   24  A    between atoms: C_25  and  C_26
REMARK   25  A    between atoms: C_26  and  C_27
REMARK   26  A    between atoms: C_27  and  C_28
REMARK   27  A    between atoms: C_28  and  C_29
REMARK   28  A    between atoms: C_29  and  C_30
REMARK   29  A    between atoms: C_30  and  C_31
REMARK   30  A    between atoms: C_32  and  C_33
REMARK   31  A    between atoms: C_33  and  C_34
REMARK   32  A    between atoms: C_34  and  C_35
REMARK   33  A    between atoms: C_35  and  C_36
REMARK   34  A    between atoms: C_36  and  C_37
REMARK   35  A    between atoms: C_37  and  C_38
REMARK   36  A    between atoms: C_38  and  C_39
REMARK   37  A    between atoms: C_39  and  C_40
REMARK   38  A    between atoms: C_41  and  O_42
REMARK   39  A    between atoms: O_42  and  P_43
REMARK   40  A    between atoms: P_43  and  O_46
REMARK   41  A    between atoms: O_46  and  C_47
REMARK   42  A    between atoms: C_47  and  C_48
REMARK   43  A    between atoms: C_48  and  N_49
REMARK   44  A    between atoms: N_49  and  C_50
REMARK   45  A    between atoms: N_49  and  C_51
REMARK   46  A    between atoms: N_49  and  C_52
REMARK                            x       y       z     vdW  Elec       q    Type
REMARK                         _______ _______ _______ _____ _____    ______ ____
ROOT
ATOM      1  C   UNL     1       8.810  -2.433  23.703  0.00  0.00    +0.240 C 
ENDROOT
BRANCH   1   2
ATOM      2  C   UNL     1      10.070  -1.893  23.005  0.00  0.00    +0.279 C 
BRANCH   2   3
ATOM      3  O   UNL     1      10.069  -0.451  23.072  0.00  0.00    -0.461 OA
BRANCH   3   4
ATOM      4  C   UNL     1       9.815   0.171  21.891  0.00  0.00    +0.307 C 
ATOM      5  O   UNL     1       9.350  -0.371  20.897  0.00  0.00    -0.251 OA
BRANCH   4   6
ATOM      6  C   UNL     1      10.130   1.642  22.001  0.00  0.00    +0.120 C 
BRANCH   6   7
ATOM      7  C   UNL     1      10.456   1.978  23.450  0.00  0.00    +0.011 C 
BRANCH   7   8
ATOM      8  C   UNL     1      10.372   3.475  23.737  0.00  0.00    +0.001 C 
BRANCH   8   9
ATOM      9  C   UNL     1      11.703   4.121  23.371  0.00  0.00    +0.000 C 
BRANCH   9  10
ATOM     10  C   UNL     1      11.634   5.644  23.348  0.00  0.00    +0.000 C 
BRANCH  10  11
ATOM     11  C   UNL     1      12.077   6.251  24.683  0.00  0.00    +0.004 C 
BRANCH  11  12
ATOM     12  C   UNL     1      10.931   6.644  25.619  0.00  0.00    +0.027 C 
BRANCH  12  13
ATOM     13  C   UNL     1       9.706   7.108  24.876  0.00  0.00    -0.031 C 
ATOM     14  C   UNL     1       8.479   6.588  25.025  0.00  0.00    -0.031 C 
BRANCH  14  15
ATOM     15  C   UNL     1       8.183   5.484  25.990  0.00  0.00    +0.027 C 
BRANCH  15  16
ATOM     16  C   UNL     1       6.768   5.537  26.546  0.00  0.00    +0.004 C 
BRANCH  16  17
ATOM     17  C   UNL     1       6.242   4.114  26.706  0.00  0.00    +0.000 C 
BRANCH  17  18
ATOM     18  C   UNL     1       4.765   4.038  26.354  0.00  0.00    +0.000 C 
BRANCH  18  19
ATOM     19  C   UNL     1       4.300   2.587  26.285  0.00  0.00    -0.000 C 
BRANCH  19  20
ATOM     20  C   UNL     1       4.347   1.950  27.669  0.00  0.00    -0.000 C 
BRANCH  20  21
ATOM     21  C   UNL     1       3.572   0.637  27.704  0.00  0.00    -0.003 C 
ATOM     22  C   UNL     1       4.134  -0.293  28.766  0.00  0.00    +0.004 C 
ENDBRANCH  20  21
ENDBRANCH  19  20
ENDBRANCH  18  19
ENDBRANCH  17  18
ENDBRANCH  16  17
ENDBRANCH  15  16
ENDBRANCH  14  15
ENDBRANCH  12  13
ENDBRANCH  11  12
ENDBRANCH  10  11
ENDBRANCH   9  10
ENDBRANCH   8   9
ENDBRANCH   7   8
ENDBRANCH   6   7
ENDBRANCH   4   6
ENDBRANCH   3   4
ENDBRANCH   2   3
ENDBRANCH   1   2
BRANCH   1  23
ATOM     23  O   UNL     1       9.145  -3.463  24.678  0.00  0.00    -0.456 OA
BRANCH  23  24
ATOM     24  C   UNL     1       8.719  -3.299  25.956  0.00  0.00    +0.308 C 
ATOM     25  O   UNL     1       8.427  -4.199  26.729  0.00  0.00    -0.251 OA
BRANCH  24  26
ATOM     26  C   UNL     1       8.704  -1.832  26.307  0.00  0.00    +0.120 C 
BRANCH  26  27
ATOM     27  C   UNL     1       7.310  -1.368  26.731  0.00  0.00    +0.011 C 
BRANCH  27  28
ATOM     28  C   UNL     1       7.159   0.157  26.694  0.00  0.00    +0.001 C 
BRANCH  28  29
ATOM     29  C   UNL     1       7.508   0.708  25.312  0.00  0.00    +0.000 C 
BRANCH  29  30
ATOM     30  C   UNL     1       6.432   0.353  24.288  0.00  0.00    +0.000 C 
BRANCH  30  31
ATOM     31  C   UNL     1       6.552   1.229  23.043  0.00  0.00    +0.000 C 
BRANCH  31  32
ATOM     32  C   UNL     1       6.815   2.684  23.418  0.00  0.00    -0.000 C 
BRANCH  32  33
ATOM     33  C   UNL     1       6.300   3.634  22.338  0.00  0.00    -0.000 C 
BRANCH  33  34
ATOM     34  C   UNL     1       7.186   4.874  22.234  0.00  0.00    -0.000 C 
BRANCH  34  35
ATOM     35  C   UNL     1       6.352   6.152  22.279  0.00  0.00    -0.000 C 
BRANCH  35  36
ATOM     36  C   UNL     1       5.091   5.952  23.115  0.00  0.00    -0.000 C 
BRANCH  36  37
ATOM     37  C   UNL     1       3.840   6.335  22.327  0.00  0.00    -0.000 C 
BRANCH  37  38
ATOM     38  C   UNL     1       2.969   5.111  22.051  0.00  0.00    -0.000 C 
BRANCH  38  40
ATOM     39  C   UNL     1       1.404   4.653  23.966  0.00  0.00    +0.004 C 
ATOM     40  C   UNL     1       2.735   4.301  23.324  0.00  0.00    -0.003 C 
ENDBRANCH  38  40
ENDBRANCH  37  38
ENDBRANCH  36  37
ENDBRANCH  35  36
ENDBRANCH  34  35
ENDBRANCH  33  34
ENDBRANCH  32  33
ENDBRANCH  31  32
ENDBRANCH  30  31
ENDBRANCH  29  30
ENDBRANCH  28  29
ENDBRANCH  27  28
ENDBRANCH  26  27
ENDBRANCH  24  26
ENDBRANCH  23  24
ENDBRANCH   1  23
BRANCH   1  41
ATOM     41  C   UNL     1       7.724  -2.877  22.727  0.00  0.00    +0.216 C 
BRANCH  41  42
ATOM     42  O   UNL     1       7.796  -4.291  22.574  0.00  0.00    -0.324 OA
BRANCH  42  43
ATOM     43  P   UNL     1       6.447  -4.972  22.015  0.00  0.00    +0.213 P 
ATOM     44  O   UNL     1       6.741  -6.350  21.493  0.00  0.00    -0.517 OA
ATOM     45  O   UNL     1       5.685  -3.969  21.187  0.00  0.00    -0.437 OA
BRANCH  43  46
ATOM     46  O   UNL     1       5.642  -5.180  23.412  0.00  0.00    -0.322 OA
BRANCH  46  47
ATOM     47  C   UNL     1       4.322  -4.678  23.480  0.00  0.00    +0.218 C 
BRANCH  47  48
ATOM     48  C   UNL     1       4.105  -3.572  24.535  0.00  0.00    +0.161 C 
BRANCH  48  49
ATOM     49  N   UNL     1       3.594  -4.046  25.932  0.00  0.00    +0.239 N 
ATOM     50  C   UNL     1       2.630  -3.015  26.530  0.00  0.00    +0.192 C 
ATOM     51  C   UNL     1       4.803  -4.115  26.854  0.00  0.00    +0.192 C 
ATOM     52  C   UNL     1       2.919  -5.391  25.858  0.00  0.00    +0.192 C 
ENDBRANCH  48  49
ENDBRANCH  47  48
ENDBRANCH  46  47
ENDBRANCH  43  46
ENDBRANCH  42  43
ENDBRANCH  41  42
ENDBRANCH   1  41
TORSDOF 41
ENDMDL
MODEL 4
REMARK VINA RESULT:      -4.1      2.174      4.613
REMARK  Name = 
REMARK  46 active torsions:
REMARK  status: ('A' for Active; 'I' for Inactive)
REMARK    1  A    between atoms: C_1  and  C_2
REMARK    2  A    between atoms: C_2  and  C_3
REMARK    3  A    between atoms: C_3  and  C_4
REMARK    4  A    between atoms: C_4  and  C_5
REMARK    5  A    between atoms: C_5  and  C_6
REMARK    6  A    between atoms: C_6  and  C_7
REMARK    7  A    between atoms: C_7  and  C_8
REMARK    8  A    between atoms: C_8  and  C_9
REMARK    9  A    between atoms: C_9  and  C_10
REMARK   10  A    between atoms: C_10  and  C_11
REMARK   11  A    between atoms: C_11  and  C_12
REMARK   12  A    between atoms: C_12  and  C_13
REMARK   13  A    between atoms: C_13  and  C_14
REMARK   14  A    between atoms: C_14  and  C_15
REMARK   15  A    between atoms: C_15  and  C_16
REMARK   16  A    between atoms: C_16  and  O_18
REMARK   17  A    between atoms: O_18  and  C_19
REMARK   18  A    between atoms: C_19  and  C_20
REMARK   19  A    between atoms: C_19  and  C_41
REMARK   20  A    between atoms: C_20  and  O_21
REMARK   21  A    between atoms: O_21  and  C_22
REMARK   22  A    between atoms: C_22  and  C_24
REMARK   23  A    between atoms: C_24  and  C_25
REMARK   24  A    between atoms: C_25  and  C_26
REMARK   25  A    between atoms: C_26  and  C_27
REMARK   26  A    between atoms: C_27  and  C_28
REMARK   27  A    between atoms: C_28  and  C_29
REMARK   28  A    between atoms: C_29  and  C_30
REMARK   29  A    between atoms: C_30  and  C_31
REMARK   30  A    between atoms: C_32  and  C_33
REMARK   31  A    between atoms: C_33  and  C_34
REMARK   32  A    between atoms: C_34  and  C_35
REMARK   33  A    between atoms: C_35  and  C_36
REMARK   34  A    between atoms: C_36  and  C_37
REMARK   35  A    between atoms: C_37  and  C_38
REMARK   36  A    between atoms: C_38  and  C_39
REMARK   37  A    between atoms: C_39  and  C_40
REMARK   38  A    between atoms: C_41  and  O_42
REMARK   39  A    between atoms: O_42  and  P_43
REMARK   40  A    between atoms: P_43  and  O_46
REMARK   41  A    between atoms: O_46  and  C_47
REMARK   42  A    between atoms: C_47  and  C_48
REMARK   43  A    between atoms: C_48  and  N_49
REMARK   44  A    between atoms: N_49  and  C_50
REMARK   45  A    between atoms: N_49  and  C_51
REMARK   46  A    between atoms: N_49  and  C_52
REMARK                            x       y       z     vdW  Elec       q    Type
REMARK                         _______ _______ _______ _____ _____    ______ ____
ROOT
ATOM      1  C   UNL     1       8.214  -3.045  23.682  0.00  0.00    +0.240 C 
ENDROOT
BRANCH   1   2
ATOM      2  C   UNL     1       8.750  -2.151  22.550  0.00  0.00    +0.279 C 
BRANCH   2   3
ATOM      3  O   UNL     1      10.085  -1.713  22.884  0.00  0.00    -0.461 OA
BRANCH   3   4
ATOM      4  C   UNL     1      10.204  -0.378  23.108  0.00  0.00    +0.307 C 
ATOM      5  O   UNL     1      10.824   0.126  24.035  0.00  0.00    -0.251 OA
BRANCH   4   6
ATOM      6  C   UNL     1       9.515   0.396  22.012  0.00  0.00    +0.120 C 
BRANCH   6   7
ATOM      7  C   UNL     1       9.832   1.877  22.169  0.00  0.00    +0.011 C 
BRANCH   7   8
ATOM      8  C   UNL     1       8.808   2.607  23.035  0.00  0.00    +0.001 C 
BRANCH   8   9
ATOM      9  C   UNL     1       7.563   2.879  22.198  0.00  0.00    +0.000 C 
BRANCH   9  10
ATOM     10  C   UNL     1       6.882   4.193  22.564  0.00  0.00    +0.000 C 
BRANCH  10  11
ATOM     11  C   UNL     1       7.590   5.394  21.930  0.00  0.00    +0.004 C 
BRANCH  11  12
ATOM     12  C   UNL     1       7.977   6.502  22.915  0.00  0.00    +0.027 C 
BRANCH  12  13
ATOM     13  C   UNL     1       9.377   6.341  23.447  0.00  0.00    -0.031 C 
ATOM     14  C   UNL     1       9.681   5.871  24.666  0.00  0.00    -0.031 C 
BRANCH  14  15
ATOM     15  C   UNL     1       8.638   5.418  25.639  0.00  0.00    +0.027 C 
BRANCH  15  16
ATOM     16  C   UNL     1       8.258   6.488  26.651  0.00  0.00    +0.004 C 
BRANCH  16  17
ATOM     17  C   UNL     1       6.824   6.937  26.385  0.00  0.00    +0.000 C 
BRANCH  17  18
ATOM     18  C   UNL     1       5.972   5.776  25.898  0.00  0.00    +0.000 C 
BRANCH  18  19
ATOM     19  C   UNL     1       4.910   6.260  24.917  0.00  0.00    -0.000 C 
BRANCH  19  20
ATOM     20  C   UNL     1       3.563   5.623  25.239  0.00  0.00    -0.000 C 
BRANCH  20  21
ATOM     21  C   UNL     1       2.750   5.370  23.974  0.00  0.00    -0.003 C 
ATOM     22  C   UNL     1       3.266   4.146  23.237  0.00  0.00    +0.004 C 
ENDBRANCH  20  21
ENDBRANCH  19  20
ENDBRANCH  18  19
ENDBRANCH  17  18
ENDBRANCH  16  17
ENDBRANCH  15  16
ENDBRANCH  14  15
ENDBRANCH  12  13
ENDBRANCH  11  12
ENDBRANCH  10  11
ENDBRANCH   9  10
ENDBRANCH   8   9
ENDBRANCH   7   8
ENDBRANCH   6   7
ENDBRANCH   4   6
ENDBRANCH   3   4
ENDBRANCH   2   3
ENDBRANCH   1   2
BRANCH   1  23
ATOM     23  O   UNL     1       9.161  -3.126  24.786  0.00  0.00    -0.456 OA
BRANCH  23  24
ATOM     24  C   UNL     1       8.674  -3.091  26.053  0.00  0.00    +0.308 C 
ATOM     25  O   UNL     1       8.709  -4.014  26.853  0.00  0.00    -0.251 OA
BRANCH  24  26
ATOM     26  C   UNL     1       8.120  -1.721  26.351  0.00  0.00    +0.120 C 
BRANCH  26  27
ATOM     27  C   UNL     1       6.627  -1.775  26.679  0.00  0.00    +0.011 C 
BRANCH  27  28
ATOM     28  C   UNL     1       5.753  -1.234  25.542  0.00  0.00    +0.001 C 
BRANCH  28  29
ATOM     29  C   UNL     1       6.343   0.050  24.961  0.00  0.00    +0.000 C 
BRANCH  29  30
ATOM     30  C   UNL     1       5.300   1.165  24.912  0.00  0.00    +0.000 C 
BRANCH  30  31
ATOM     31  C   UNL     1       5.783   2.401  25.665  0.00  0.00    +0.000 C 
BRANCH  31  32
ATOM     32  C   UNL     1       7.116   2.135  26.360  0.00  0.00    -0.000 C 
BRANCH  32  33
ATOM     33  C   UNL     1       7.061   2.540  27.833  0.00  0.00    -0.000 C 
BRANCH  33  34
ATOM     34  C   UNL     1       6.893   1.315  28.729  0.00  0.00    -0.000 C 
BRANCH  34  35
ATOM     35  C   UNL     1       5.525   1.309  29.405  0.00  0.00    -0.000 C 
BRANCH  35  36
ATOM     36  C   UNL     1       4.589   0.307  28.734  0.00  0.00    -0.000 C 
BRANCH  36  37
ATOM     37  C   UNL     1       3.316   0.989  28.236  0.00  0.00    -0.000 C 
BRANCH  37  38
ATOM     38  C   UNL     1       3.059   2.290  28.993  0.00  0.00    -0.000 C 
BRANCH  38  40
ATOM     39  C   UNL     1       4.008   4.612  28.803  0.00  0.00    +0.004 C 
ATOM     40  C   UNL     1       3.254   3.504  28.088  0.00  0.00    -0.003 C 
ENDBRANCH  38  40
ENDBRANCH  37  38
ENDBRANCH  36  37
ENDBRANCH  35  36
ENDBRANCH  34  35
ENDBRANCH  33  34
ENDBRANCH  32  33
ENDBRANCH  31  32
ENDBRANCH  30  31
ENDBRANCH  29  30
ENDBRANCH  28  29
ENDBRANCH  27  28
ENDBRANCH  26  27
ENDBRANCH  24  26
ENDBRANCH  23  24
ENDBRANCH   1  23
BRANCH   1  41
ATOM     41  C   UNL     1       7.755  -4.418  23.199  0.00  0.00    +0.216 C 
BRANCH  41  42
ATOM     42  O   UNL     1       6.515  -4.272  22.514  0.00  0.00    -0.324 OA
BRANCH  42  43
ATOM     43  P   UNL     1       6.085  -5.551  21.632  0.00  0.00    +0.213 P 
ATOM     44  O   UNL     1       6.911  -6.746  22.017  0.00  0.00    -0.517 OA
ATOM     45  O   UNL     1       5.932  -5.137  20.191  0.00  0.00    -0.437 OA
BRANCH  43  46
ATOM     46  O   UNL     1       4.598  -5.815  22.235  0.00  0.00    -0.322 OA
BRANCH  46  47
ATOM     47  C   UNL     1       4.141  -4.934  23.242  0.00  0.00    +0.218 C 
BRANCH  47  48
ATOM     48  C   UNL     1       3.602  -5.628  24.511  0.00  0.00    +0.161 C 
BRANCH  48  49
ATOM     49  N   UNL     1       2.086  -5.997  24.500  0.00  0.00    +0.239 N 
ATOM     50  C   UNL     1       1.894  -7.474  24.138  0.00  0.00    +0.192 C 
ATOM     51  C   UNL     1       1.431  -5.178  23.396  0.00  0.00    +0.192 C 
ATOM     52  C   UNL     1       1.427  -5.708  25.823  0.00  0.00    +0.192 C 
ENDBRANCH  48  49
ENDBRANCH  47  48
ENDBRANCH  46  47
ENDBRANCH  43  46
ENDBRANCH  42  43
ENDBRANCH  41  42
ENDBRANCH   1  41
TORSDOF 41
ENDMDL
MODEL 5
REMARK VINA RESULT:      -4.1      3.583      8.956
REMARK  Name = 
REMARK  46 active torsions:
REMARK  status: ('A' for Active; 'I' for Inactive)
REMARK    1  A    between atoms: C_1  and  C_2
REMARK    2  A    between atoms: C_2  and  C_3
REMARK    3  A    between atoms: C_3  and  C_4
REMARK    4  A    between atoms: C_4  and  C_5
REMARK    5  A    between atoms: C_5  and  C_6
REMARK    6  A    between atoms: C_6  and  C_7
REMARK    7  A    between atoms: C_7  and  C_8
REMARK    8  A    between atoms: C_8  and  C_9
REMARK    9  A    between atoms: C_9  and  C_10
REMARK   10  A    between atoms: C_10  and  C_11
REMARK   11  A    between atoms: C_11  and  C_12
REMARK   12  A    between atoms: C_12  and  C_13
REMARK   13  A    between atoms: C_13  and  C_14
REMARK   14  A    between atoms: C_14  and  C_15
REMARK   15  A    between atoms: C_15  and  C_16
REMARK   16  A    between atoms: C_16  and  O_18
REMARK   17  A    between atoms: O_18  and  C_19
REMARK   18  A    between atoms: C_19  and  C_20
REMARK   19  A    between atoms: C_19  and  C_41
REMARK   20  A    between atoms: C_20  and  O_21
REMARK   21  A    between atoms: O_21  and  C_22
REMARK   22  A    between atoms: C_22  and  C_24
REMARK   23  A    between atoms: C_24  and  C_25
REMARK   24  A    between atoms: C_25  and  C_26
REMARK   25  A    between atoms: C_26  and  C_27
REMARK   26  A    between atoms: C_27  and  C_28
REMARK   27  A    between atoms: C_28  and  C_29
REMARK   28  A    between atoms: C_29  and  C_30
REMARK   29  A    between atoms: C_30  and  C_31
REMARK   30  A    between atoms: C_32  and  C_33
REMARK   31  A    between atoms: C_33  and  C_34
REMARK   32  A    between atoms: C_34  and  C_35
REMARK   33  A    between atoms: C_35  and  C_36
REMARK   34  A    between atoms: C_36  and  C_37
REMARK   35  A    between atoms: C_37  and  C_38
REMARK   36  A    between atoms: C_38  and  C_39
REMARK   37  A    between atoms: C_39  and  C_40
REMARK   38  A    between atoms: C_41  and  O_42
REMARK   39  A    between atoms: O_42  and  P_43
REMARK   40  A    between atoms: P_43  and  O_46
REMARK   41  A    between atoms: O_46  and  C_47
REMARK   42  A    between atoms: C_47  and  C_48
REMARK   43  A    between atoms: C_48  and  N_49
REMARK   44  A    between atoms: N_49  and  C_50
REMARK   45  A    between atoms: N_49  and  C_51
REMARK   46  A    between atoms: N_49  and  C_52
REMARK                            x       y       z     vdW  Elec       q    Type
REMARK                         _______ _______ _______ _____ _____    ______ ____
ROOT
ATOM      1  C   UNL     1       9.822  -0.722  24.691  0.00  0.00    +0.240 C 
ENDROOT
BRANCH   1   2
ATOM      2  C   UNL     1       9.902  -1.678  23.488  0.00  0.00    +0.279 C 
BRANCH   2   3
ATOM      3  O   UNL     1      10.112  -3.024  23.965  0.00  0.00    -0.461 OA
BRANCH   3   4
ATOM      4  C   UNL     1       8.982  -3.771  24.071  0.00  0.00    +0.307 C 
ATOM      5  O   UNL     1       8.000  -3.667  23.347  0.00  0.00    -0.251 OA
BRANCH   4   6
ATOM      6  C   UNL     1       9.136  -4.793  25.170  0.00  0.00    +0.120 C 
BRANCH   6   7
ATOM      7  C   UNL     1       7.757  -5.269  25.608  0.00  0.00    +0.011 C 
BRANCH   7   8
ATOM      8  C   UNL     1       7.597  -5.281  27.126  0.00  0.00    +0.001 C 
BRANCH   8   9
ATOM      9  C   UNL     1       6.338  -6.063  27.481  0.00  0.00    +0.000 C 
BRANCH   9  10
ATOM     10  C   UNL     1       6.087  -6.129  28.984  0.00  0.00    +0.000 C 
BRANCH  10  11
ATOM     11  C   UNL     1       4.627  -5.819  29.329  0.00  0.00    +0.004 C 
BRANCH  11  12
ATOM     12  C   UNL     1       3.632  -6.919  28.948  0.00  0.00    +0.027 C 
BRANCH  12  13
ATOM     13  C   UNL     1       2.200  -6.464  29.042  0.00  0.00    -0.031 C 
ATOM     14  C   UNL     1       1.252  -6.729  28.131  0.00  0.00    -0.031 C 
BRANCH  14  15
ATOM     15  C   UNL     1       1.517  -7.548  26.906  0.00  0.00    +0.027 C 
BRANCH  15  16
ATOM     16  C   UNL     1       1.050  -6.877  25.624  0.00  0.00    +0.004 C 
BRANCH  16  17
ATOM     17  C   UNL     1       2.108  -7.079  24.543  0.00  0.00    +0.000 C 
BRANCH  17  18
ATOM     18  C   UNL     1       3.455  -7.421  25.158  0.00  0.00    +0.000 C 
BRANCH  18  19
ATOM     19  C   UNL     1       4.593  -6.864  24.309  0.00  0.00    -0.000 C 
BRANCH  19  20
ATOM     20  C   UNL     1       4.054  -5.868  23.289  0.00  0.00    -0.000 C 
BRANCH  20  21
ATOM     21  C   UNL     1       5.183  -5.099  22.611  0.00  0.00    -0.003 C 
ATOM     22  C   UNL     1       6.015  -6.022  21.737  0.00  0.00    +0.004 C 
ENDBRANCH  20  21
ENDBRANCH  19  20
ENDBRANCH  18  19
ENDBRANCH  17  18
ENDBRANCH  16  17
ENDBRANCH  15  16
ENDBRANCH  14  15
ENDBRANCH  12  13
ENDBRANCH  11  12
ENDBRANCH  10  11
ENDBRANCH   9  10
ENDBRANCH   8   9
ENDBRANCH   7   8
ENDBRANCH   6   7
ENDBRANCH   4   6
ENDBRANCH   3   4
ENDBRANCH   2   3
ENDBRANCH   1   2
BRANCH   1  23
ATOM     23  O   UNL     1       8.455  -0.596  25.178  0.00  0.00    -0.456 OA
BRANCH  23  24
ATOM     24  C   UNL     1       8.187  -0.994  26.448  0.00  0.00    +0.308 C 
ATOM     25  O   UNL     1       8.917  -0.827  27.414  0.00  0.00    -0.251 OA
BRANCH  24  26
ATOM     26  C   UNL     1       6.824  -1.637  26.507  0.00  0.00    +0.120 C 
BRANCH  26  27
ATOM     27  C   UNL     1       6.079  -1.500  25.177  0.00  0.00    +0.011 C 
BRANCH  27  28
ATOM     28  C   UNL     1       4.826  -2.382  25.110  0.00  0.00    +0.001 C 
BRANCH  28  29
ATOM     29  C   UNL     1       4.742  -3.306  26.323  0.00  0.00    +0.000 C 
BRANCH  29  30
ATOM     30  C   UNL     1       3.379  -3.991  26.403  0.00  0.00    +0.000 C 
BRANCH  30  31
ATOM     31  C   UNL     1       2.366  -3.303  25.492  0.00  0.00    +0.000 C 
BRANCH  31  32
ATOM     32  C   UNL     1       1.323  -2.542  26.305  0.00  0.00    -0.000 C 
BRANCH  32  33
ATOM     33  C   UNL     1       1.114  -3.186  27.675  0.00  0.00    -0.000 C 
BRANCH  33  34
ATOM     34  C   UNL     1       1.473  -2.214  28.796  0.00  0.00    -0.000 C 
BRANCH  34  35
ATOM     35  C   UNL     1       2.245  -2.916  29.910  0.00  0.00    -0.000 C 
BRANCH  35  36
ATOM     36  C   UNL     1       3.605  -2.260  30.128  0.00  0.00    -0.000 C 
BRANCH  36  37
ATOM     37  C   UNL     1       3.974  -1.353  28.956  0.00  0.00    -0.000 C 
BRANCH  37  38
ATOM     38  C   UNL     1       4.385   0.035  29.445  0.00  0.00    -0.000 C 
BRANCH  38  40
ATOM     39  C   UNL     1       3.474   0.492  27.145  0.00  0.00    +0.004 C 
ATOM     40  C   UNL     1       4.119   1.097  28.380  0.00  0.00    -0.003 C 
ENDBRANCH  38  40
ENDBRANCH  37  38
ENDBRANCH  36  37
ENDBRANCH  35  36
ENDBRANCH  34  35
ENDBRANCH  33  34
ENDBRANCH  32  33
ENDBRANCH  31  32
ENDBRANCH  30  31
ENDBRANCH  29  30
ENDBRANCH  28  29
ENDBRANCH  27  28
ENDBRANCH  26  27
ENDBRANCH  24  26
ENDBRANCH  23  24
ENDBRANCH   1  23
BRANCH   1  41
ATOM     41  C   UNL     1      10.481   0.630  24.431  0.00  0.00    +0.216 C 
BRANCH  41  42
ATOM     42  O   UNL     1       9.472   1.634  24.405  0.00  0.00    -0.324 OA
BRANCH  42  43
ATOM     43  P   UNL     1       9.057   2.127  22.928  0.00  0.00    +0.213 P 
ATOM     44  O   UNL     1       7.725   1.547  22.544  0.00  0.00    -0.517 OA
ATOM     45  O   UNL     1      10.249   2.021  22.012  0.00  0.00    -0.437 OA
BRANCH  43  46
ATOM     46  O   UNL     1       8.796   3.703  23.225  0.00  0.00    -0.322 OA
BRANCH  46  47
ATOM     47  C   UNL     1       7.925   4.027  24.291  0.00  0.00    +0.218 C 
BRANCH  47  48
ATOM     48  C   UNL     1       6.608   4.708  23.864  0.00  0.00    +0.161 C 
BRANCH  48  49
ATOM     49  N   UNL     1       5.302   3.885  24.099  0.00  0.00    +0.239 N 
ATOM     50  C   UNL     1       4.746   3.368  22.768  0.00  0.00    +0.192 C 
ATOM     51  C   UNL     1       4.266   4.840  24.675  0.00  0.00    +0.192 C 
ATOM     52  C   UNL     1       5.525   2.731  25.040  0.00  0.00    +0.192 C 
ENDBRANCH  48  49
ENDBRANCH  47  48
ENDBRANCH  46  47
ENDBRANCH  43  46
ENDBRANCH  42  43
ENDBRANCH  41  42
ENDBRANCH   1  41
TORSDOF 41
ENDMDL
MODEL 6
REMARK VINA RESULT:      -4.1      1.341      2.780
REMARK  Name = 
REMARK  46 active torsions:
REMARK  status: ('A' for Active; 'I' for Inactive)
REMARK    1  A    between atoms: C_1  and  C_2
REMARK    2  A    between atoms: C_2  and  C_3
REMARK    3  A    between atoms: C_3  and  C_4
REMARK    4  A    between atoms: C_4  and  C_5
REMARK    5  A    between atoms: C_5  and  C_6
REMARK    6  A    between atoms: C_6  and  C_7
REMARK    7  A    between atoms: C_7  and  C_8
REMARK    8  A    between atoms: C_8  and  C_9
REMARK    9  A    between atoms: C_9  and  C_10
REMARK   10  A    between atoms: C_10  and  C_11
REMARK   11  A    between atoms: C_11  and  C_12
REMARK   12  A    between atoms: C_12  and  C_13
REMARK   13  A    between atoms: C_13  and  C_14
REMARK   14  A    between atoms: C_14  and  C_15
REMARK   15  A    between atoms: C_15  and  C_16
REMARK   16  A    between atoms: C_16  and  O_18
REMARK   17  A    between atoms: O_18  and  C_19
REMARK   18  A    between atoms: C_19  and  C_20
REMARK   19  A    between atoms: C_19  and  C_41
REMARK   20  A    between atoms: C_20  and  O_21
REMARK   21  A    between atoms: O_21  and  C_22
REMARK   22  A    between atoms: C_22  and  C_24
REMARK   23  A    between atoms: C_24  and  C_25
REMARK   24  A    between atoms: C_25  and  C_26
REMARK   25  A    between atoms: C_26  and  C_27
REMARK   26  A    between atoms: C_27  and  C_28
REMARK   27  A    between atoms: C_28  and  C_29
REMARK   28  A    between atoms: C_29  and  C_30
REMARK   29  A    between atoms: C_30  and  C_31
REMARK   30  A    between atoms: C_32  and  C_33
REMARK   31  A    between atoms: C_33  and  C_34
REMARK   32  A    between atoms: C_34  and  C_35
REMARK   33  A    between atoms: C_35  and  C_36
REMARK   34  A    between atoms: C_36  and  C_37
REMARK   35  A    between atoms: C_37  and  C_38
REMARK   36  A    between atoms: C_38  and  C_39
REMARK   37  A    between atoms: C_39  and  C_40
REMARK   38  A    between atoms: C_41  and  O_42
REMARK   39  A    between atoms: O_42  and  P_43
REMARK   40  A    between atoms: P_43  and  O_46
REMARK   41  A    between atoms: O_46  and  C_47
REMARK   42  A    between atoms: C_47  and  C_48
REMARK   43  A    between atoms: C_48  and  N_49
REMARK   44  A    between atoms: N_49  and  C_50
REMARK   45  A    between atoms: N_49  and  C_51
REMARK   46  A    between atoms: N_49  and  C_52
REMARK                            x       y       z     vdW  Elec       q    Type
REMARK                         _______ _______ _______ _____ _____    ______ ____
ROOT
ATOM      1  C   UNL     1       5.725  -5.657  25.177  0.00  0.00    +0.240 C 
ENDROOT
BRANCH   1   2
ATOM      2  C   UNL     1       5.697  -5.417  23.658  0.00  0.00    +0.279 C 
BRANCH   2   3
ATOM      3  O   UNL     1       7.025  -5.068  23.209  0.00  0.00    -0.461 OA
BRANCH   3   4
ATOM      4  C   UNL     1       7.100  -3.903  22.514  0.00  0.00    +0.307 C 
ATOM      5  O   UNL     1       6.229  -3.470  21.771  0.00  0.00    -0.251 OA
BRANCH   4   6
ATOM      6  C   UNL     1       8.387  -3.187  22.838  0.00  0.00    +0.120 C 
BRANCH   6   7
ATOM      7  C   UNL     1       8.230  -1.706  22.522  0.00  0.00    +0.011 C 
BRANCH   7   8
ATOM      8  C   UNL     1       9.546  -0.940  22.636  0.00  0.00    +0.001 C 
BRANCH   8   9
ATOM      9  C   UNL     1       9.980  -0.922  24.097  0.00  0.00    +0.000 C 
BRANCH   9  10
ATOM     10  C   UNL     1       9.878   0.464  24.726  0.00  0.00    +0.000 C 
BRANCH  10  11
ATOM     11  C   UNL     1      10.848   1.454  24.073  0.00  0.00    +0.004 C 
BRANCH  11  12
ATOM     12  C   UNL     1      10.262   2.844  23.809  0.00  0.00    +0.027 C 
BRANCH  12  13
ATOM     13  C   UNL     1      11.288   3.818  23.293  0.00  0.00    -0.031 C 
ATOM     14  C   UNL     1      11.283   5.136  23.541  0.00  0.00    -0.031 C 
BRANCH  14  15
ATOM     15  C   UNL     1      10.247   5.791  24.401  0.00  0.00    +0.027 C 
BRANCH  15  16
ATOM     16  C   UNL     1       9.148   6.473  23.600  0.00  0.00    +0.004 C 
BRANCH  16  17
ATOM     17  C   UNL     1       7.805   6.210  24.274  0.00  0.00    +0.000 C 
BRANCH  17  18
ATOM     18  C   UNL     1       6.762   5.777  23.256  0.00  0.00    +0.000 C 
BRANCH  18  19
ATOM     19  C   UNL     1       7.376   4.842  22.219  0.00  0.00    -0.000 C 
BRANCH  19  20
ATOM     20  C   UNL     1       6.483   3.625  22.008  0.00  0.00    -0.000 C 
BRANCH  20  21
ATOM     21  C   UNL     1       7.286   2.330  22.061  0.00  0.00    -0.003 C 
ATOM     22  C   UNL     1       6.651   1.341  23.024  0.00  0.00    +0.004 C 
ENDBRANCH  20  21
ENDBRANCH  19  20
ENDBRANCH  18  19
ENDBRANCH  17  18
ENDBRANCH  16  17
ENDBRANCH  15  16
ENDBRANCH  14  15
ENDBRANCH  12  13
ENDBRANCH  11  12
ENDBRANCH  10  11
ENDBRANCH   9  10
ENDBRANCH   8   9
ENDBRANCH   7   8
ENDBRANCH   6   7
ENDBRANCH   4   6
ENDBRANCH   3   4
ENDBRANCH   2   3
ENDBRANCH   1   2
BRANCH   1  23
ATOM     23  O   UNL     1       7.089  -5.813  25.664  0.00  0.00    -0.456 OA
BRANCH  23  24
ATOM     24  C   UNL     1       7.479  -5.068  26.731  0.00  0.00    +0.308 C 
ATOM     25  O   UNL     1       7.112  -5.234  27.884  0.00  0.00    -0.251 OA
BRANCH  24  26
ATOM     26  C   UNL     1       8.476  -4.026  26.291  0.00  0.00    +0.120 C 
BRANCH  26  27
ATOM     27  C   UNL     1       8.044  -2.620  26.711  0.00  0.00    +0.011 C 
BRANCH  27  28
ATOM     28  C   UNL     1       6.772  -2.155  25.994  0.00  0.00    +0.001 C 
BRANCH  28  29
ATOM     29  C   UNL     1       6.561  -0.652  26.172  0.00  0.00    +0.000 C 
BRANCH  29  30
ATOM     30  C   UNL     1       7.481  -0.090  27.255  0.00  0.00    +0.000 C 
BRANCH  30  31
ATOM     31  C   UNL     1       6.987   1.271  27.741  0.00  0.00    +0.000 C 
BRANCH  31  32
ATOM     32  C   UNL     1       7.028   2.303  26.617  0.00  0.00    -0.000 C 
BRANCH  32  33
ATOM     33  C   UNL     1       5.895   3.318  26.759  0.00  0.00    -0.000 C 
BRANCH  33  34
ATOM     34  C   UNL     1       5.143   3.485  25.440  0.00  0.00    -0.000 C 
BRANCH  34  35
ATOM     35  C   UNL     1       3.941   2.547  25.369  0.00  0.00    -0.000 C 
BRANCH  35  36
ATOM     36  C   UNL     1       2.847   2.988  26.338  0.00  0.00    -0.000 C 
BRANCH  36  37
ATOM     37  C   UNL     1       2.238   1.791  27.064  0.00  0.00    -0.000 C 
BRANCH  37  38
ATOM     38  C   UNL     1       3.288   0.712  27.320  0.00  0.00    -0.000 C 
BRANCH  38  40
ATOM     39  C   UNL     1       4.251  -0.864  29.027  0.00  0.00    +0.004 C 
ATOM     40  C   UNL     1       3.340   0.329  28.797  0.00  0.00    -0.003 C 
ENDBRANCH  38  40
ENDBRANCH  37  38
ENDBRANCH  36  37
ENDBRANCH  35  36
ENDBRANCH  34  35
ENDBRANCH  33  34
ENDBRANCH  32  33
ENDBRANCH  31  32
ENDBRANCH  30  31
ENDBRANCH  29  30
ENDBRANCH  28  29
ENDBRANCH  27  28
ENDBRANCH  26  27
ENDBRANCH  24  26
ENDBRANCH  23  24
ENDBRANCH   1  23
BRANCH   1  41
ATOM     41  C   UNL     1       4.807  -6.791  25.625  0.00  0.00    +0.216 C 
BRANCH  41  42
ATOM     42  O   UNL     1       4.277  -7.436  24.471  0.00  0.00    -0.324 OA
BRANCH  42  43
ATOM     43  P   UNL     1       2.682  -7.658  24.503  0.00  0.00    +0.213 P 
ATOM     44  O   UNL     1       2.366  -9.087  24.847  0.00  0.00    -0.517 OA
ATOM     45  O   UNL     1       2.058  -6.986  23.308  0.00  0.00    -0.437 OA
BRANCH  43  46
ATOM     46  O   UNL     1       2.306  -6.783  25.820  0.00  0.00    -0.322 OA
BRANCH  46  47
ATOM     47  C   UNL     1       1.614  -5.568  25.615  0.00  0.00    +0.218 C 
BRANCH  47  48
ATOM     48  C   UNL     1       1.092  -4.897  26.903  0.00  0.00    +0.161 C 
BRANCH  48  49
ATOM     49  N   UNL     1       1.960  -3.730  27.470  0.00  0.00    +0.239 N 
ATOM     50  C   UNL     1       2.400  -2.789  26.343  0.00  0.00    +0.192 C 
ATOM     51  C   UNL     1       3.223  -4.350  28.052  0.00  0.00    +0.192 C 
ATOM     52  C   UNL     1       1.229  -2.948  28.529  0.00  0.00    +0.192 C 
ENDBRANCH  48  49
ENDBRANCH  47  48
ENDBRANCH  46  47
ENDBRANCH  43  46
ENDBRANCH  42  43
ENDBRANCH  41  42
ENDBRANCH   1  41
TORSDOF 41
ENDMDL
MODEL 7
REMARK VINA RESULT:      -4.1      2.638      6.832
REMARK  Name = 
REMARK  46 active torsions:
REMARK  status: ('A' for Active; 'I' for Inactive)
REMARK    1  A    between atoms: C_1  and  C_2
REMARK    2  A    between atoms: C_2  and  C_3
REMARK    3  A    between atoms: C_3  and  C_4
REMARK    4  A    between atoms: C_4  and  C_5
REMARK    5  A    between atoms: C_5  and  C_6
REMARK    6  A    between atoms: C_6  and  C_7
REMARK    7  A    between atoms: C_7  and  C_8
REMARK    8  A    between atoms: C_8  and  C_9
REMARK    9  A    between atoms: C_9  and  C_10
REMARK   10  A    between atoms: C_10  and  C_11
REMARK   11  A    between atoms: C_11  and  C_12
REMARK   12  A    between atoms: C_12  and  C_13
REMARK   13  A    between atoms: C_13  and  C_14
REMARK   14  A    between atoms: C_14  and  C_15
REMARK   15  A    between atoms: C_15  and  C_16
REMARK   16  A    between atoms: C_16  and  O_18
REMARK   17  A    between atoms: O_18  and  C_19
REMARK   18  A    between atoms: C_19  and  C_20
REMARK   19  A    between atoms: C_19  and  C_41
REMARK   20  A    between atoms: C_20  and  O_21
REMARK   21  A    between atoms: O_21  and  C_22
REMARK   22  A    between atoms: C_22  and  C_24
REMARK   23  A    between atoms: C_24  and  C_25
REMARK   24  A    between atoms: C_25  and  C_26
REMARK   25  A    between atoms: C_26  and  C_27
REMARK   26  A    between atoms: C_27  and  C_28
REMARK   27  A    between atoms: C_28  and  C_29
REMARK   28  A    between atoms: C_29  and  C_30
REMARK   29  A    between atoms: C_30  and  C_31
REMARK   30  A    between atoms: C_32  and  C_33
REMARK   31  A    between atoms: C_33  and  C_34
REMARK   32  A    between atoms: C_34  and  C_35
REMARK   33  A    between atoms: C_35  and  C_36
REMARK   34  A    between atoms: C_36  and  C_37
REMARK   35  A    between atoms: C_37  and  C_38
REMARK   36  A    between atoms: C_38  and  C_39
REMARK   37  A    between atoms: C_39  and  C_40
REMARK   38  A    between atoms: C_41  and  O_42
REMARK   39  A    between atoms: O_42  and  P_43
REMARK   40  A    between atoms: P_43  and  O_46
REMARK   41  A    between atoms: O_46  and  C_47
REMARK   42  A    between atoms: C_47  and  C_48
REMARK   43  A    between atoms: C_48  and  N_49
REMARK   44  A    between atoms: N_49  and  C_50
REMARK   45  A    between atoms: N_49  and  C_51
REMARK   46  A    between atoms: N_49  and  C_52
REMARK                            x       y       z     vdW  Elec       q    Type
REMARK                         _______ _______ _______ _____ _____    ______ ____
ROOT
ATOM      1  C   UNL     1       6.891  -2.887  23.524  0.00  0.00    +0.240 C 
ENDROOT
BRANCH   1   2
ATOM      2  C   UNL     1       7.369  -1.861  22.482  0.00  0.00    +0.279 C 
BRANCH   2   3
ATOM      3  O   UNL     1       8.588  -2.339  21.872  0.00  0.00    -0.461 OA
BRANCH   3   4
ATOM      4  C   UNL     1       9.674  -1.550  22.081  0.00  0.00    +0.307 C 
ATOM      5  O   UNL     1      10.767  -1.946  22.464  0.00  0.00    -0.251 OA
BRANCH   4   6
ATOM      6  C   UNL     1       9.357  -0.122  21.714  0.00  0.00    +0.120 C 
BRANCH   6   7
ATOM      7  C   UNL     1      10.206   0.814  22.565  0.00  0.00    +0.011 C 
BRANCH   7   8
ATOM      8  C   UNL     1       9.892   2.286  22.306  0.00  0.00    +0.001 C 
BRANCH   8   9
ATOM      9  C   UNL     1      10.185   3.081  23.573  0.00  0.00    +0.000 C 
BRANCH   9  10
ATOM     10  C   UNL     1      11.338   4.064  23.401  0.00  0.00    +0.000 C 
BRANCH  10  11
ATOM     11  C   UNL     1      10.928   5.490  23.779  0.00  0.00    +0.004 C 
BRANCH  11  12
ATOM     12  C   UNL     1       9.440   5.664  24.101  0.00  0.00    +0.027 C 
BRANCH  12  13
ATOM     13  C   UNL     1       8.756   6.635  23.175  0.00  0.00    -0.031 C 
ATOM     14  C   UNL     1       7.764   6.316  22.330  0.00  0.00    -0.031 C 
BRANCH  14  15
ATOM     15  C   UNL     1       7.199   4.933  22.236  0.00  0.00    +0.027 C 
BRANCH  15  16
ATOM     16  C   UNL     1       5.814   4.808  22.852  0.00  0.00    +0.004 C 
BRANCH  16  17
ATOM     17  C   UNL     1       5.793   3.605  23.790  0.00  0.00    +0.000 C 
BRANCH  17  18
ATOM     18  C   UNL     1       6.219   2.341  23.061  0.00  0.00    +0.000 C 
BRANCH  18  19
ATOM     19  C   UNL     1       6.766   1.309  24.043  0.00  0.00    -0.000 C 
BRANCH  19  20
ATOM     20  C   UNL     1       7.129   1.977  25.364  0.00  0.00    -0.000 C 
BRANCH  20  21
ATOM     21  C   UNL     1       7.668   0.965  26.370  0.00  0.00    -0.003 C 
ATOM     22  C   UNL     1       8.666   0.029  25.710  0.00  0.00    +0.004 C 
ENDBRANCH  20  21
ENDBRANCH  19  20
ENDBRANCH  18  19
ENDBRANCH  17  18
ENDBRANCH  16  17
ENDBRANCH  15  16
ENDBRANCH  14  15
ENDBRANCH  12  13
ENDBRANCH  11  12
ENDBRANCH  10  11
ENDBRANCH   9  10
ENDBRANCH   8   9
ENDBRANCH   7   8
ENDBRANCH   6   7
ENDBRANCH   4   6
ENDBRANCH   3   4
ENDBRANCH   2   3
ENDBRANCH   1   2
BRANCH   1  23
ATOM     23  O   UNL     1       6.903  -4.239  22.980  0.00  0.00    -0.456 OA
BRANCH  23  24
ATOM     24  C   UNL     1       5.872  -4.619  22.183  0.00  0.00    +0.308 C 
ATOM     25  O   UNL     1       5.632  -4.173  21.071  0.00  0.00    -0.251 OA
BRANCH  24  26
ATOM     26  C   UNL     1       5.084  -5.716  22.854  0.00  0.00    +0.120 C 
BRANCH  26  27
ATOM     27  C   UNL     1       3.655  -5.271  23.170  0.00  0.00    +0.011 C 
BRANCH  27  28
ATOM     28  C   UNL     1       2.643  -6.418  23.061  0.00  0.00    +0.001 C 
BRANCH  28  29
ATOM     29  C   UNL     1       1.339  -6.066  23.775  0.00  0.00    +0.000 C 
BRANCH  29  30
ATOM     30  C   UNL     1       0.947  -7.151  24.777  0.00  0.00    +0.000 C 
BRANCH  30  31
ATOM     31  C   UNL     1       0.775  -6.567  26.177  0.00  0.00    +0.000 C 
BRANCH  31  32
ATOM     32  C   UNL     1       1.611  -5.302  26.351  0.00  0.00    -0.000 C 
BRANCH  32  33
ATOM     33  C   UNL     1       2.601  -5.449  27.506  0.00  0.00    -0.000 C 
BRANCH  33  34
ATOM     34  C   UNL     1       3.345  -6.779  27.419  0.00  0.00    -0.000 C 
BRANCH  34  35
ATOM     35  C   UNL     1       4.531  -6.685  26.462  0.00  0.00    -0.000 C 
BRANCH  35  36
ATOM     36  C   UNL     1       5.286  -5.374  26.657  0.00  0.00    -0.000 C 
BRANCH  36  37
ATOM     37  C   UNL     1       6.751  -5.515  26.247  0.00  0.00    -0.000 C 
BRANCH  37  38
ATOM     38  C   UNL     1       7.599  -4.395  26.846  0.00  0.00    -0.000 C 
BRANCH  38  40
ATOM     39  C   UNL     1       9.228  -5.441  25.240  0.00  0.00    +0.004 C 
ATOM     40  C   UNL     1       9.067  -4.542  26.455  0.00  0.00    -0.003 C 
ENDBRANCH  38  40
ENDBRANCH  37  38
ENDBRANCH  36  37
ENDBRANCH  35  36
ENDBRANCH  34  35
ENDBRANCH  33  34
ENDBRANCH  32  33
ENDBRANCH  31  32
ENDBRANCH  30  31
ENDBRANCH  29  30
ENDBRANCH  28  29
ENDBRANCH  27  28
ENDBRANCH  26  27
ENDBRANCH  24  26
ENDBRANCH  23  24
ENDBRANCH   1  23
BRANCH   1  41
ATOM     41  C   UNL     1       5.553  -2.521  24.160  0.00  0.00    +0.216 C 
BRANCH  41  42
ATOM     42  O   UNL     1       5.799  -1.775  25.348  0.00  0.00    -0.324 OA
BRANCH  42  43
ATOM     43  P   UNL     1       4.519  -1.616  26.314  0.00  0.00    +0.213 P 
ATOM     44  O   UNL     1       4.918  -1.852  27.743  0.00  0.00    -0.517 OA
ATOM     45  O   UNL     1       3.339  -2.327  25.704  0.00  0.00    -0.437 OA
BRANCH  43  46
ATOM     46  O   UNL     1       4.263  -0.017  26.174  0.00  0.00    -0.322 OA
BRANCH  46  47
ATOM     47  C   UNL     1       3.420   0.592  27.132  0.00  0.00    +0.218 C 
BRANCH  47  48
ATOM     48  C   UNL     1       3.949   1.923  27.705  0.00  0.00    +0.161 C 
BRANCH  48  49
ATOM     49  N   UNL     1       3.203   3.214  27.245  0.00  0.00    +0.239 N 
ATOM     50  C   UNL     1       2.621   3.028  25.840  0.00  0.00    +0.192 C 
ATOM     51  C   UNL     1       4.239   4.326  27.156  0.00  0.00    +0.192 C 
ATOM     52  C   UNL     1       2.106   3.601  28.203  0.00  0.00    +0.192 C 
ENDBRANCH  48  49
ENDBRANCH  47  48
ENDBRANCH  46  47
ENDBRANCH  43  46
ENDBRANCH  42  43
ENDBRANCH  41  42
ENDBRANCH   1  41
TORSDOF 41
ENDMDL
MODEL 8
REMARK VINA RESULT:      -4.1      3.427      8.132
REMARK  Name = 
REMARK  46 active torsions:
REMARK  status: ('A' for Active; 'I' for Inactive)
REMARK    1  A    between atoms: C_1  and  C_2
REMARK    2  A    between atoms: C_2  and  C_3
REMARK    3  A    between atoms: C_3  and  C_4
REMARK    4  A    between atoms: C_4  and  C_5
REMARK    5  A    between atoms: C_5  and  C_6
REMARK    6  A    between atoms: C_6  and  C_7
REMARK    7  A    between atoms: C_7  and  C_8
REMARK    8  A    between atoms: C_8  and  C_9
REMARK    9  A    between atoms: C_9  and  C_10
REMARK   10  A    between atoms: C_10  and  C_11
REMARK   11  A    between atoms: C_11  and  C_12
REMARK   12  A    between atoms: C_12  and  C_13
REMARK   13  A    between atoms: C_13  and  C_14
REMARK   14  A    between atoms: C_14  and  C_15
REMARK   15  A    between atoms: C_15  and  C_16
REMARK   16  A    between atoms: C_16  and  O_18
REMARK   17  A    between atoms: O_18  and  C_19
REMARK   18  A    between atoms: C_19  and  C_20
REMARK   19  A    between atoms: C_19  and  C_41
REMARK   20  A    between atoms: C_20  and  O_21
REMARK   21  A    between atoms: O_21  and  C_22
REMARK   22  A    between atoms: C_22  and  C_24
REMARK   23  A    between atoms: C_24  and  C_25
REMARK   24  A    between atoms: C_25  and  C_26
REMARK   25  A    between atoms: C_26  and  C_27
REMARK   26  A    between atoms: C_27  and  C_28
REMARK   27  A    between atoms: C_28  and  C_29
REMARK   28  A    between atoms: C_29  and  C_30
REMARK   29  A    between atoms: C_30  and  C_31
REMARK   30  A    between atoms: C_32  and  C_33
REMARK   31  A    between atoms: C_33  and  C_34
REMARK   32  A    between atoms: C_34  and  C_35
REMARK   33  A    between atoms: C_35  and  C_36
REMARK   34  A    between atoms: C_36  and  C_37
REMARK   35  A    between atoms: C_37  and  C_38
REMARK   36  A    between atoms: C_38  and  C_39
REMARK   37  A    between atoms: C_39  and  C_40
REMARK   38  A    between atoms: C_41  and  O_42
REMARK   39  A    between atoms: O_42  and  P_43
REMARK   40  A    between atoms: P_43  and  O_46
REMARK   41  A    between atoms: O_46  and  C_47
REMARK   42  A    between atoms: C_47  and  C_48
REMARK   43  A    between atoms: C_48  and  N_49
REMARK   44  A    between atoms: N_49  and  C_50
REMARK   45  A    between atoms: N_49  and  C_51
REMARK   46  A    between atoms: N_49  and  C_52
REMARK                            x       y       z     vdW  Elec       q    Type
REMARK                         _______ _______ _______ _____ _____    ______ ____
ROOT
ATOM      1  C   UNL     1       8.027  -2.434  22.994  0.00  0.00    +0.240 C 
ENDROOT
BRANCH   1   2
ATOM      2  C   UNL     1       9.008  -2.962  24.055  0.00  0.00    +0.279 C 
BRANCH   2   3
ATOM      3  O   UNL     1       9.045  -4.404  23.991  0.00  0.00    -0.461 OA
BRANCH   3   4
ATOM      4  C   UNL     1       9.138  -5.023  25.197  0.00  0.00    +0.307 C 
ATOM      5  O   UNL     1      10.177  -5.200  25.818  0.00  0.00    -0.251 OA
BRANCH   4   6
ATOM      6  C   UNL     1       7.765  -5.404  25.691  0.00  0.00    +0.120 C 
BRANCH   6   7
ATOM      7  C   UNL     1       7.514  -4.737  27.037  0.00  0.00    +0.011 C 
BRANCH   7   8
ATOM      8  C   UNL     1       6.403  -5.421  27.831  0.00  0.00    +0.001 C 
BRANCH   8   9
ATOM      9  C   UNL     1       5.170  -4.525  27.820  0.00  0.00    +0.000 C 
BRANCH   9  10
ATOM     10  C   UNL     1       5.503  -3.064  27.538  0.00  0.00    +0.000 C 
BRANCH  10  11
ATOM     11  C   UNL     1       4.533  -2.447  26.526  0.00  0.00    +0.004 C 
BRANCH  11  12
ATOM     12  C   UNL     1       4.842  -0.996  26.146  0.00  0.00    +0.027 C 
BRANCH  12  13
ATOM     13  C   UNL     1       6.295  -0.778  25.817  0.00  0.00    -0.031 C 
ATOM     14  C   UNL     1       7.156  -0.087  26.580  0.00  0.00    -0.031 C 
BRANCH  14  15
ATOM     15  C   UNL     1       6.760   0.533  27.883  0.00  0.00    +0.027 C 
BRANCH  15  16
ATOM     16  C   UNL     1       6.561   2.039  27.795  0.00  0.00    +0.004 C 
BRANCH  16  17
ATOM     17  C   UNL     1       5.076   2.334  27.607  0.00  0.00    +0.000 C 
BRANCH  17  18
ATOM     18  C   UNL     1       4.856   3.301  26.454  0.00  0.00    +0.000 C 
BRANCH  18  19
ATOM     19  C   UNL     1       4.540   2.544  25.168  0.00  0.00    -0.000 C 
BRANCH  19  20
ATOM     20  C   UNL     1       5.756   2.530  24.250  0.00  0.00    -0.000 C 
BRANCH  20  21
ATOM     21  C   UNL     1       5.387   2.947  22.830  0.00  0.00    -0.003 C 
ATOM     22  C   UNL     1       6.621   3.003  21.946  0.00  0.00    +0.004 C 
ENDBRANCH  20  21
ENDBRANCH  19  20
ENDBRANCH  18  19
ENDBRANCH  17  18
ENDBRANCH  16  17
ENDBRANCH  15  16
ENDBRANCH  14  15
ENDBRANCH  12  13
ENDBRANCH  11  12
ENDBRANCH  10  11
ENDBRANCH   9  10
ENDBRANCH   8   9
ENDBRANCH   7   8
ENDBRANCH   6   7
ENDBRANCH   4   6
ENDBRANCH   3   4
ENDBRANCH   2   3
ENDBRANCH   1   2
BRANCH   1  23
ATOM     23  O   UNL     1       7.547  -3.509  22.135  0.00  0.00    -0.456 OA
BRANCH  23  24
ATOM     24  C   UNL     1       6.221  -3.557  21.849  0.00  0.00    +0.308 C 
ATOM     25  O   UNL     1       5.739  -3.849  20.765  0.00  0.00    -0.251 OA
BRANCH  24  26
ATOM     26  C   UNL     1       5.418  -3.242  23.085  0.00  0.00    +0.120 C 
BRANCH  26  27
ATOM     27  C   UNL     1       4.919  -4.514  23.773  0.00  0.00    +0.011 C 
BRANCH  27  28
ATOM     28  C   UNL     1       3.500  -4.900  23.342  0.00  0.00    +0.001 C 
BRANCH  28  29
ATOM     29  C   UNL     1       3.209  -6.365  23.664  0.00  0.00    +0.000 C 
BRANCH  29  30
ATOM     30  C   UNL     1       4.252  -6.938  24.622  0.00  0.00    +0.000 C 
BRANCH  30  31
ATOM     31  C   UNL     1       3.652  -7.174  26.006  0.00  0.00    +0.000 C 
BRANCH  31  32
ATOM     32  C   UNL     1       2.158  -6.862  26.018  0.00  0.00    -0.000 C 
BRANCH  32  33
ATOM     33  C   UNL     1       1.825  -5.794  27.058  0.00  0.00    -0.000 C 
BRANCH  33  34
ATOM     34  C   UNL     1       1.355  -4.507  26.386  0.00  0.00    -0.000 C 
BRANCH  34  35
ATOM     35  C   UNL     1       1.095  -3.410  27.416  0.00  0.00    -0.000 C 
BRANCH  35  36
ATOM     36  C   UNL     1       1.780  -3.734  28.741  0.00  0.00    -0.000 C 
BRANCH  36  37
ATOM     37  C   UNL     1       1.854  -2.502  29.640  0.00  0.00    -0.000 C 
BRANCH  37  38
ATOM     38  C   UNL     1       1.816  -1.218  28.815  0.00  0.00    -0.000 C 
BRANCH  38  40
ATOM     39  C   UNL     1       3.949  -0.970  30.124  0.00  0.00    +0.004 C 
ATOM     40  C   UNL     1       2.971  -0.289  29.182  0.00  0.00    -0.003 C 
ENDBRANCH  38  40
ENDBRANCH  37  38
ENDBRANCH  36  37
ENDBRANCH  35  36
ENDBRANCH  34  35
ENDBRANCH  33  34
ENDBRANCH  32  33
ENDBRANCH  31  32
ENDBRANCH  30  31
ENDBRANCH  29  30
ENDBRANCH  28  29
ENDBRANCH  27  28
ENDBRANCH  26  27
ENDBRANCH  24  26
ENDBRANCH  23  24
ENDBRANCH   1  23
BRANCH   1  41
ATOM     41  C   UNL     1       8.574  -1.249  22.203  0.00  0.00    +0.216 C 
BRANCH  41  42
ATOM     42  O   UNL     1       8.433  -0.069  22.987  0.00  0.00    -0.324 OA
BRANCH  42  43
ATOM     43  P   UNL     1       9.770   0.824  23.099  0.00  0.00    +0.213 P 
ATOM     44  O   UNL     1      10.070   1.473  21.778  0.00  0.00    -0.517 OA
ATOM     45  O   UNL     1      10.826   0.053  23.849  0.00  0.00    -0.437 OA
BRANCH  43  46
ATOM     46  O   UNL     1       9.231   2.008  24.073  0.00  0.00    -0.322 OA
BRANCH  46  47
ATOM     47  C   UNL     1       9.748   3.307  23.862  0.00  0.00    +0.218 C 
BRANCH  47  48
ATOM     48  C   UNL     1       8.986   4.433  24.591  0.00  0.00    +0.161 C 
BRANCH  48  49
ATOM     49  N   UNL     1       9.513   5.883  24.358  0.00  0.00    +0.239 N 
ATOM     50  C   UNL     1      10.919   5.853  23.750  0.00  0.00    +0.192 C 
ATOM     51  C   UNL     1       9.632   6.545  25.724  0.00  0.00    +0.192 C 
ATOM     52  C   UNL     1       8.593   6.681  23.472  0.00  0.00    +0.192 C 
ENDBRANCH  48  49
ENDBRANCH  47  48
ENDBRANCH  46  47
ENDBRANCH  43  46
ENDBRANCH  42  43
ENDBRANCH  41  42
ENDBRANCH   1  41
TORSDOF 41
ENDMDL
MODEL 9
REMARK VINA RESULT:      -4.0      3.645      8.633
REMARK  Name = 
REMARK  46 active torsions:
REMARK  status: ('A' for Active; 'I' for Inactive)
REMARK    1  A    between atoms: C_1  and  C_2
REMARK    2  A    between atoms: C_2  and  C_3
REMARK    3  A    between atoms: C_3  and  C_4
REMARK    4  A    between atoms: C_4  and  C_5
REMARK    5  A    between atoms: C_5  and  C_6
REMARK    6  A    between atoms: C_6  and  C_7
REMARK    7  A    between atoms: C_7  and  C_8
REMARK    8  A    between atoms: C_8  and  C_9
REMARK    9  A    between atoms: C_9  and  C_10
REMARK   10  A    between atoms: C_10  and  C_11
REMARK   11  A    between atoms: C_11  and  C_12
REMARK   12  A    between atoms: C_12  and  C_13
REMARK   13  A    between atoms: C_13  and  C_14
REMARK   14  A    between atoms: C_14  and  C_15
REMARK   15  A    between atoms: C_15  and  C_16
REMARK   16  A    between atoms: C_16  and  O_18
REMARK   17  A    between atoms: O_18  and  C_19
REMARK   18  A    between atoms: C_19  and  C_20
REMARK   19  A    between atoms: C_19  and  C_41
REMARK   20  A    between atoms: C_20  and  O_21
REMARK   21  A    between atoms: O_21  and  C_22
REMARK   22  A    between atoms: C_22  and  C_24
REMARK   23  A    between atoms: C_24  and  C_25
REMARK   24  A    between atoms: C_25  and  C_26
REMARK   25  A    between atoms: C_26  and  C_27
REMARK   26  A    between atoms: C_27  and  C_28
REMARK   27  A    between atoms: C_28  and  C_29
REMARK   28  A    between atoms: C_29  and  C_30
REMARK   29  A    between atoms: C_30  and  C_31
REMARK   30  A    between atoms: C_32  and  C_33
REMARK   31  A    between atoms: C_33  and  C_34
REMARK   32  A    between atoms: C_34  and  C_35
REMARK   33  A    between atoms: C_35  and  C_36
REMARK   34  A    between atoms: C_36  and  C_37
REMARK   35  A    between atoms: C_37  and  C_38
REMARK   36  A    between atoms: C_38  and  C_39
REMARK   37  A    between atoms: C_39  and  C_40
REMARK   38  A    between atoms: C_41  and  O_42
REMARK   39  A    between atoms: O_42  and  P_43
REMARK   40  A    between atoms: P_43  and  O_46
REMARK   41  A    between atoms: O_46  and  C_47
REMARK   42  A    between atoms: C_47  and  C_48
REMARK   43  A    between atoms: C_48  and  N_49
REMARK   44  A    between atoms: N_49  and  C_50
REMARK   45  A    between atoms: N_49  and  C_51
REMARK   46  A    between atoms: N_49  and  C_52
REMARK                            x       y       z     vdW  Elec       q    Type
REMARK                         _______ _______ _______ _____ _____    ______ ____
ROOT
ATOM      1  C   UNL     1       9.293  -1.363  24.649  0.00  0.00    +0.240 C 
ENDROOT
BRANCH   1   2
ATOM      2  C   UNL     1       9.145  -2.684  23.875  0.00  0.00    +0.279 C 
BRANCH   2   3
ATOM      3  O   UNL     1      10.025  -3.673  24.450  0.00  0.00    -0.461 OA
BRANCH   3   4
ATOM      4  C   UNL     1       9.395  -4.749  24.990  0.00  0.00    +0.307 C 
ATOM      5  O   UNL     1       9.373  -5.869  24.499  0.00  0.00    -0.251 OA
BRANCH   4   6
ATOM      6  C   UNL     1       8.778  -4.378  26.316  0.00  0.00    +0.120 C 
BRANCH   6   7
ATOM      7  C   UNL     1       7.883  -5.516  26.787  0.00  0.00    +0.011 C 
BRANCH   7   8
ATOM      8  C   UNL     1       6.547  -5.020  27.336  0.00  0.00    +0.001 C 
BRANCH   8   9
ATOM      9  C   UNL     1       6.161  -5.877  28.537  0.00  0.00    +0.000 C 
BRANCH   9  10
ATOM     10  C   UNL     1       5.370  -5.102  29.585  0.00  0.00    +0.000 C 
BRANCH  10  11
ATOM     11  C   UNL     1       4.051  -5.800  29.930  0.00  0.00    +0.004 C 
BRANCH  11  12
ATOM     12  C   UNL     1       3.723  -7.015  29.057  0.00  0.00    +0.027 C 
BRANCH  12  13
ATOM     13  C   UNL     1       2.375  -6.908  28.396  0.00  0.00    -0.031 C 
ATOM     14  C   UNL     1       2.169  -6.457  27.149  0.00  0.00    -0.031 C 
BRANCH  14  15
ATOM     15  C   UNL     1       3.288  -6.029  26.251  0.00  0.00    +0.027 C 
BRANCH  15  16
ATOM     16  C   UNL     1       3.736  -7.120  25.291  0.00  0.00    +0.004 C 
BRANCH  16  17
ATOM     17  C   UNL     1       3.727  -6.566  23.869  0.00  0.00    +0.000 C 
BRANCH  17  18
ATOM     18  C   UNL     1       3.540  -5.057  23.876  0.00  0.00    +0.000 C 
BRANCH  18  19
ATOM     19  C   UNL     1       4.610  -4.377  23.027  0.00  0.00    -0.000 C 
BRANCH  19  20
ATOM     20  C   UNL     1       5.994  -4.886  23.413  0.00  0.00    -0.000 C 
BRANCH  20  21
ATOM     21  C   UNL     1       6.892  -5.039  22.190  0.00  0.00    -0.003 C 
ATOM     22  C   UNL     1       6.194  -5.842  21.106  0.00  0.00    +0.004 C 
ENDBRANCH  20  21
ENDBRANCH  19  20
ENDBRANCH  18  19
ENDBRANCH  17  18
ENDBRANCH  16  17
ENDBRANCH  15  16
ENDBRANCH  14  15
ENDBRANCH  12  13
ENDBRANCH  11  12
ENDBRANCH  10  11
ENDBRANCH   9  10
ENDBRANCH   8   9
ENDBRANCH   7   8
ENDBRANCH   6   7
ENDBRANCH   4   6
ENDBRANCH   3   4
ENDBRANCH   2   3
ENDBRANCH   1   2
BRANCH   1  23
ATOM     23  O   UNL     1       8.014  -0.918  25.187  0.00  0.00    -0.456 OA
BRANCH  23  24
ATOM     24  C   UNL     1       7.845  -0.930  26.534  0.00  0.00    +0.308 C 
ATOM     25  O   UNL     1       8.667  -0.555  27.356  0.00  0.00    -0.251 OA
BRANCH  24  26
ATOM     26  C   UNL     1       6.465  -1.434  26.873  0.00  0.00    +0.120 C 
BRANCH  26  27
ATOM     27  C   UNL     1       5.642  -1.713  25.614  0.00  0.00    +0.011 C 
BRANCH  27  28
ATOM     28  C   UNL     1       4.208  -2.153  25.932  0.00  0.00    +0.001 C 
BRANCH  28  29
ATOM     29  C   UNL     1       4.068  -2.542  27.403  0.00  0.00    +0.000 C 
BRANCH  29  30
ATOM     30  C   UNL     1       2.607  -2.784  27.774  0.00  0.00    +0.000 C 
BRANCH  30  31
ATOM     31  C   UNL     1       1.698  -2.614  26.559  0.00  0.00    +0.000 C 
BRANCH  31  32
ATOM     32  C   UNL     1       0.646  -1.536  26.806  0.00  0.00    -0.000 C 
BRANCH  32  33
ATOM     33  C   UNL     1       1.074  -0.596  27.933  0.00  0.00    -0.000 C 
BRANCH  33  34
ATOM     34  C   UNL     1       1.566   0.737  27.373  0.00  0.00    -0.000 C 
BRANCH  34  35
ATOM     35  C   UNL     1       3.082   0.860  27.495  0.00  0.00    -0.000 C 
BRANCH  35  36
ATOM     36  C   UNL     1       3.571   2.182  26.909  0.00  0.00    -0.000 C 
BRANCH  36  37
ATOM     37  C   UNL     1       5.061   2.122  26.578  0.00  0.00    -0.000 C 
BRANCH  37  38
ATOM     38  C   UNL     1       5.288   2.116  25.068  0.00  0.00    -0.000 C 
BRANCH  38  40
ATOM     39  C   UNL     1       4.571   3.226  22.928  0.00  0.00    +0.004 C 
ATOM     40  C   UNL     1       4.156   2.832  24.335  0.00  0.00    -0.003 C 
ENDBRANCH  38  40
ENDBRANCH  37  38
ENDBRANCH  36  37
ENDBRANCH  35  36
ENDBRANCH  34  35
ENDBRANCH  33  34
ENDBRANCH  32  33
ENDBRANCH  31  32
ENDBRANCH  30  31
ENDBRANCH  29  30
ENDBRANCH  28  29
ENDBRANCH  27  28
ENDBRANCH  26  27
ENDBRANCH  24  26
ENDBRANCH  23  24
ENDBRANCH   1  23
BRANCH   1  41
ATOM     41  C   UNL     1      10.006  -0.274  23.853  0.00  0.00    +0.216 C 
BRANCH  41  42
ATOM     42  O   UNL     1       9.148   0.857  23.751  0.00  0.00    -0.324 OA
BRANCH  42  43
ATOM     43  P   UNL     1       8.493   1.069  22.294  0.00  0.00    +0.213 P 
ATOM     44  O   UNL     1       7.014   0.809  22.348  0.00  0.00    -0.517 OA
ATOM     45  O   UNL     1       9.364   0.415  21.253  0.00  0.00    -0.437 OA
BRANCH  43  46
ATOM     46  O   UNL     1       8.664   2.679  22.146  0.00  0.00    -0.322 OA
BRANCH  46  47
ATOM     47  C   UNL     1       8.333   3.472  23.268  0.00  0.00    +0.218 C 
BRANCH  47  48
ATOM     48  C   UNL     1       9.542   4.066  24.020  0.00  0.00    +0.161 C 
BRANCH  48  49
ATOM     49  N   UNL     1       9.533   5.614  24.222  0.00  0.00    +0.239 N 
ATOM     50  C   UNL     1       8.887   5.977  25.563  0.00  0.00    +0.192 C 
ATOM     51  C   UNL     1       8.655   6.206  23.128  0.00  0.00    +0.192 C 
ATOM     52  C   UNL     1      10.920   6.199  24.150  0.00  0.00    +0.192 C 
ENDBRANCH  48  49
ENDBRANCH  47  48
ENDBRANCH  46  47
ENDBRANCH  43  46
ENDBRANCH  42  43
ENDBRANCH  41  42
ENDBRANCH   1  41
TORSDOF 41
ENDMDL
