MODEL 1
REMARK VINA RESULT:      -4.3      0.000      0.000
REMARK  Name = 
REMARK  1 active torsions:
REMARK  status: ('A' for Active; 'I' for Inactive)
REMARK    1  A    between atoms: N_1  and  C_2
REMARK                            x       y       z     vdW  Elec       q    Type
REMARK                         _______ _______ _______ _____ _____    ______ ____
ROOT
ATOM      1  C   UNL     1       8.902  -5.353  25.695  0.00  0.00    +0.135 A 
ATOM      2  N   UNL     1       8.412  -5.680  26.927  0.00  0.00    -0.292 N 
ATOM      3  H   UNL     1       9.038  -6.007  27.648  0.00  0.00    +0.172 HD
ATOM      4  C   UNL     1       7.082  -5.660  27.283  0.00  0.00    +0.347 A 
ATOM      5  O   UNL     1       6.770  -5.985  28.426  0.00  0.00    -0.245 OA
ATOM      6  N   UNL     1       6.159  -5.273  26.342  0.00  0.00    -0.199 NA
ATOM      7  C   UNL     1       6.602  -4.962  25.168  0.00  0.00    +0.158 A 
ATOM      8  C   UNL     1       8.012  -4.978  24.768  0.00  0.00    +0.179 A 
ATOM      9  F   UNL     1       8.321  -4.610  23.513  0.00  0.00    -0.200 F 
ENDROOT
BRANCH   1  10
ATOM     10  N   UNL     1      10.257  -5.417  25.472  0.00  0.00    -0.342 N 
ATOM     11  H   UNL     1      10.646  -4.555  25.101  0.00  0.00    +0.144 HD
ATOM     12  H   UNL     1      10.536  -6.231  24.928  0.00  0.00    +0.144 HD
ENDBRANCH   1  10
TORSDOF 1
ENDMDL
MODEL 2
REMARK VINA RESULT:      -4.3      5.892      6.491
REMARK  Name = 
REMARK  1 active torsions:
REMARK  status: ('A' for Active; 'I' for Inactive)
REMARK    1  A    between atoms: N_1  and  C_2
REMARK                            x       y       z     vdW  Elec       q    Type
REMARK                         _______ _______ _______ _____ _____    ______ ____
ROOT
ATOM      1  C   UNL     1      10.264   0.480  23.463  0.00  0.00    +0.135 A 
ATOM      2  N   UNL     1      10.313  -0.782  23.981  0.00  0.00    -0.292 N 
ATOM      3  H   UNL     1      10.618  -0.925  24.932  0.00  0.00    +0.172 HD
ATOM      4  C   UNL     1      10.027  -1.937  23.287  0.00  0.00    +0.347 A 
ATOM      5  O   UNL     1      10.116  -3.015  23.868  0.00  0.00    -0.245 OA
ATOM      6  N   UNL     1       9.652  -1.831  21.969  0.00  0.00    -0.199 NA
ATOM      7  C   UNL     1       9.603  -0.645  21.458  0.00  0.00    +0.158 A 
ATOM      8  C   UNL     1       9.904   0.595  22.178  0.00  0.00    +0.179 A 
ATOM      9  F   UNL     1       9.791   1.759  21.516  0.00  0.00    -0.200 F 
ENDROOT
BRANCH   1  10
ATOM     10  N   UNL     1      10.575   1.549  24.268  0.00  0.00    -0.342 N 
ATOM     11  H   UNL     1       9.792   2.176  24.427  0.00  0.00    +0.144 HD
ATOM     12  H   UNL     1      11.413   2.047  23.970  0.00  0.00    +0.144 HD
ENDBRANCH   1  10
TORSDOF 1
ENDMDL
MODEL 3
REMARK VINA RESULT:      -4.3      6.770      7.362
REMARK  Name = 
REMARK  1 active torsions:
REMARK  status: ('A' for Active; 'I' for Inactive)
REMARK    1  A    between atoms: N_1  and  C_2
REMARK                            x       y       z     vdW  Elec       q    Type
REMARK                         _______ _______ _______ _____ _____    ______ ____
ROOT
ATOM      1  C   UNL     1       9.983   1.363  22.573  0.00  0.00    +0.135 A 
ATOM      2  N   UNL     1      10.139   0.057  22.203  0.00  0.00    -0.292 N 
ATOM      3  H   UNL     1      10.157  -0.191  21.226  0.00  0.00    +0.172 HD
ATOM      4  C   UNL     1      10.224  -1.008  23.071  0.00  0.00    +0.347 A 
ATOM      5  O   UNL     1      10.357  -2.139  22.610  0.00  0.00    -0.245 OA
ATOM      6  N   UNL     1      10.157  -0.759  24.421  0.00  0.00    -0.199 NA
ATOM      7  C   UNL     1      10.006   0.469  24.792  0.00  0.00    +0.158 A 
ATOM      8  C   UNL     1       9.912   1.617  23.886  0.00  0.00    +0.179 A 
ATOM      9  F   UNL     1       9.774   2.842  24.421  0.00  0.00    -0.200 F 
ENDROOT
BRANCH   1  10
ATOM     10  N   UNL     1       9.912   2.332  21.602  0.00  0.00    -0.342 N 
ATOM     11  H   UNL     1       8.971   2.681  21.447  0.00  0.00    +0.144 HD
ATOM     12  H   UNL     1      10.371   2.064  20.732  0.00  0.00    +0.144 HD
ENDBRANCH   1  10
TORSDOF 1
ENDMDL
MODEL 4
REMARK VINA RESULT:      -4.0      6.753      7.351
REMARK  Name = 
REMARK  1 active torsions:
REMARK  status: ('A' for Active; 'I' for Inactive)
REMARK    1  A    between atoms: N_1  and  C_2
REMARK                            x       y       z     vdW  Elec       q    Type
REMARK                         _______ _______ _______ _____ _____    ______ ____
ROOT
ATOM      1  C   UNL     1       9.959  -0.321  22.319  0.00  0.00    +0.135 A 
ATOM      2  N   UNL     1      10.045   1.041  22.265  0.00  0.00    -0.292 N 
ATOM      3  H   UNL     1       9.964   1.517  21.379  0.00  0.00    +0.172 HD
ATOM      4  C   UNL     1      10.299   1.863  23.341  0.00  0.00    +0.347 A 
ATOM      5  O   UNL     1      10.359   3.076  23.158  0.00  0.00    -0.245 OA
ATOM      6  N   UNL     1      10.472   1.288  24.577  0.00  0.00    -0.199 NA
ATOM      7  C   UNL     1      10.397  -0.001  24.648  0.00  0.00    +0.158 A 
ATOM      8  C   UNL     1      10.130  -0.893  23.517  0.00  0.00    +0.179 A 
ATOM      9  F   UNL     1      10.063  -2.215  23.750  0.00  0.00    -0.200 F 
ENDROOT
BRANCH   1  10
ATOM     10  N   UNL     1       9.700  -1.023  21.166  0.00  0.00    -0.342 N 
ATOM     11  H   UNL     1       8.715  -1.231  21.032  0.00  0.00    +0.144 HD
ATOM     12  H   UNL     1      10.287  -1.849  21.058  0.00  0.00    +0.144 HD
ENDBRANCH   1  10
TORSDOF 1
ENDMDL
MODEL 5
REMARK VINA RESULT:      -3.9      2.784      3.102
REMARK  Name = 
REMARK  1 active torsions:
REMARK  status: ('A' for Active; 'I' for Inactive)
REMARK    1  A    between atoms: N_1  and  C_2
REMARK                            x       y       z     vdW  Elec       q    Type
REMARK                         _______ _______ _______ _____ _____    ______ ____
ROOT
ATOM      1  C   UNL     1       8.801  -5.315  25.395  0.00  0.00    +0.135 A 
ATOM      2  N   UNL     1       8.541  -5.091  24.073  0.00  0.00    -0.292 N 
ATOM      3  H   UNL     1       9.303  -4.977  23.422  0.00  0.00    +0.172 HD
ATOM      4  C   UNL     1       7.286  -4.946  23.525  0.00  0.00    +0.347 A 
ATOM      5  O   UNL     1       7.187  -4.740  22.318  0.00  0.00    -0.245 OA
ATOM      6  N   UNL     1       6.195  -5.038  24.355  0.00  0.00    -0.199 NA
ATOM      7  C   UNL     1       6.420  -5.247  25.610  0.00  0.00    +0.158 A 
ATOM      8  C   UNL     1       7.746  -5.403  26.215  0.00  0.00    +0.179 A 
ATOM      9  F   UNL     1       7.820  -5.633  27.536  0.00  0.00    -0.200 F 
ENDROOT
BRANCH   1  10
ATOM     10  N   UNL     1      10.105  -5.441  25.811  0.00  0.00    -0.342 N 
ATOM     11  H   UNL     1      10.398  -6.406  25.933  0.00  0.00    +0.144 HD
ATOM     12  H   UNL     1      10.325  -4.867  26.623  0.00  0.00    +0.144 HD
ENDBRANCH   1  10
TORSDOF 1
ENDMDL
MODEL 6
REMARK VINA RESULT:      -3.9      5.215      5.998
REMARK  Name = 
REMARK  1 active torsions:
REMARK  status: ('A' for Active; 'I' for Inactive)
REMARK    1  A    between atoms: N_1  and  C_2
REMARK                            x       y       z     vdW  Elec       q    Type
REMARK                         _______ _______ _______ _____ _____    ______ ____
ROOT
ATOM      1  C   UNL     1       7.887  -0.709  22.903  0.00  0.00    +0.135 A 
ATOM      2  N   UNL     1       8.348  -1.813  23.561  0.00  0.00    -0.292 N 
ATOM      3  H   UNL     1       7.761  -2.281  24.235  0.00  0.00    +0.172 HD
ATOM      4  C   UNL     1       9.612  -2.344  23.430  0.00  0.00    +0.347 A 
ATOM      5  O   UNL     1       9.907  -3.340  24.085  0.00  0.00    -0.245 OA
ATOM      6  N   UNL     1      10.491  -1.735  22.567  0.00  0.00    -0.199 NA
ATOM      7  C   UNL     1      10.075  -0.686  21.937  0.00  0.00    +0.158 A 
ATOM      8  C   UNL     1       8.735  -0.104  22.063  0.00  0.00    +0.179 A 
ATOM      9  F   UNL     1       8.441   0.981  21.328  0.00  0.00    -0.200 F 
ENDROOT
BRANCH   1  10
ATOM     10  N   UNL     1       6.599  -0.283  23.127  0.00  0.00    -0.342 N 
ATOM     11  H   UNL     1       6.383   0.602  22.679  0.00  0.00    +0.144 HD
ATOM     12  H   UNL     1       6.338  -0.291  24.111  0.00  0.00    +0.144 HD
ENDBRANCH   1  10
TORSDOF 1
ENDMDL
MODEL 7
REMARK VINA RESULT:      -3.9      6.060      6.546
REMARK  Name = 
REMARK  1 active torsions:
REMARK  status: ('A' for Active; 'I' for Inactive)
REMARK    1  A    between atoms: N_1  and  C_2
REMARK                            x       y       z     vdW  Elec       q    Type
REMARK                         _______ _______ _______ _____ _____    ______ ____
ROOT
ATOM      1  C   UNL     1       9.674  -0.251  22.353  0.00  0.00    +0.135 A 
ATOM      2  N   UNL     1       9.359  -1.017  23.438  0.00  0.00    -0.292 N 
ATOM      3  H   UNL     1       9.018  -1.958  23.309  0.00  0.00    +0.172 HD
ATOM      4  C   UNL     1       9.409  -0.596  24.748  0.00  0.00    +0.347 A 
ATOM      5  O   UNL     1       9.091  -1.383  25.636  0.00  0.00    -0.245 OA
ATOM      6  N   UNL     1       9.815   0.691  25.006  0.00  0.00    -0.199 NA
ATOM      7  C   UNL     1      10.115   1.434  23.992  0.00  0.00    +0.158 A 
ATOM      8  C   UNL     1      10.067   1.007  22.591  0.00  0.00    +0.179 A 
ATOM      9  F   UNL     1      10.427   1.889  21.644  0.00  0.00    -0.200 F 
ENDROOT
BRANCH   1  10
ATOM     10  N   UNL     1       9.580  -0.797  21.095  0.00  0.00    -0.342 N 
ATOM     11  H   UNL     1      10.477  -1.070  20.706  0.00  0.00    +0.144 HD
ATOM     12  H   UNL     1       9.038  -0.226  20.448  0.00  0.00    +0.144 HD
ENDBRANCH   1  10
TORSDOF 1
ENDMDL
MODEL 8
REMARK VINA RESULT:      -3.9      2.468      3.101
REMARK  Name = 
REMARK  1 active torsions:
REMARK  status: ('A' for Active; 'I' for Inactive)
REMARK    1  A    between atoms: N_1  and  C_2
REMARK                            x       y       z     vdW  Elec       q    Type
REMARK                         _______ _______ _______ _____ _____    ______ ____
ROOT
ATOM      1  C   UNL     1       7.284  -5.609  26.641  0.00  0.00    +0.135 A 
ATOM      2  N   UNL     1       8.601  -5.431  26.328  0.00  0.00    -0.292 N 
ATOM      3  H   UNL     1       9.307  -5.537  27.040  0.00  0.00    +0.172 HD
ATOM      4  C   UNL     1       9.078  -5.048  25.094  0.00  0.00    +0.347 A 
ATOM      5  O   UNL     1      10.289  -4.915  24.943  0.00  0.00    -0.245 OA
ATOM      6  N   UNL     1       8.174  -4.833  24.082  0.00  0.00    -0.199 NA
ATOM      7  C   UNL     1       6.922  -4.994  24.358  0.00  0.00    +0.158 A 
ATOM      8  C   UNL     1       6.393  -5.399  25.664  0.00  0.00    +0.179 A 
ATOM      9  F   UNL     1       5.064  -5.543  25.795  0.00  0.00    -0.200 F 
ENDROOT
BRANCH   1  10
ATOM     10  N   UNL     1       6.942  -5.994  27.916  0.00  0.00    -0.342 N 
ATOM     11  H   UNL     1       6.754  -6.988  28.001  0.00  0.00    +0.144 HD
ATOM     12  H   UNL     1       6.201  -5.425  28.322  0.00  0.00    +0.144 HD
ENDBRANCH   1  10
TORSDOF 1
ENDMDL
MODEL 9
REMARK VINA RESULT:      -3.8      5.504      6.121
REMARK  Name = 
REMARK  1 active torsions:
REMARK  status: ('A' for Active; 'I' for Inactive)
REMARK    1  A    between atoms: N_1  and  C_2
REMARK                            x       y       z     vdW  Elec       q    Type
REMARK                         _______ _______ _______ _____ _____    ______ ____
ROOT
ATOM      1  C   UNL     1       9.292   0.108  24.306  0.00  0.00    +0.135 A 
ATOM      2  N   UNL     1       9.483  -1.217  24.579  0.00  0.00    -0.292 N 
ATOM      3  H   UNL     1       9.300  -1.571  25.506  0.00  0.00    +0.172 HD
ATOM      4  C   UNL     1       9.974  -2.147  23.691  0.00  0.00    +0.347 A 
ATOM      5  O   UNL     1      10.105  -3.310  24.064  0.00  0.00    -0.245 OA
ATOM      6  N   UNL     1      10.296  -1.733  22.421  0.00  0.00    -0.199 NA
ATOM      7  C   UNL     1      10.126  -0.483  22.143  0.00  0.00    +0.158 A 
ATOM      8  C   UNL     1       9.606   0.524  23.072  0.00  0.00    +0.179 A 
ATOM      9  F   UNL     1       9.468   1.786  22.632  0.00  0.00    -0.200 F 
ENDROOT
BRANCH   1  10
ATOM     10  N   UNL     1       8.794   0.931  25.286  0.00  0.00    -0.342 N 
ATOM     11  H   UNL     1       9.513   1.339  25.875  0.00  0.00    +0.144 HD
ATOM     12  H   UNL     1       8.048   0.502  25.831  0.00  0.00    +0.144 HD
ENDBRANCH   1  10
TORSDOF 1
ENDMDL
