MODEL 1
REMARK VINA RESULT:      -5.9      0.000      0.000
REMARK  Name = 
REMARK  9 active torsions:
REMARK  status: ('A' for Active; 'I' for Inactive)
REMARK    1  A    between atoms: C_1  and  O_2
REMARK    2  A    between atoms: O_2  and  C_3
REMARK    3  A    between atoms: C_6  and  C_9
REMARK    4  A    between atoms: C_9  and  C_10
REMARK    5  A    between atoms: C_9  and  C_14
REMARK    6  A    between atoms: C_10  and  N_11
REMARK    7  A    between atoms: N_11  and  C_12
REMARK    8  A    between atoms: N_11  and  C_13
REMARK    9  A    between atoms: C_14  and  O_15
REMARK                            x       y       z     vdW  Elec       q    Type
REMARK                         _______ _______ _______ _____ _____    ______ ____
ROOT
ATOM      1  C   UNL     1       8.517  -1.333  23.936  0.00  0.00    +0.065 C 
ENDROOT
BRANCH   1   5
ATOM      2  C   UNL     1       5.828  -4.475  22.551  0.00  0.00    +0.120 A 
ATOM      3  C   UNL     1       6.972  -4.810  23.274  0.00  0.00    +0.046 A 
ATOM      4  C   UNL     1       7.838  -3.806  23.727  0.00  0.00    +0.007 A 
ATOM      5  C   UNL     1       7.584  -2.453  23.455  0.00  0.00    -0.040 A 
ATOM      6  C   UNL     1       6.410  -2.132  22.758  0.00  0.00    +0.007 A 
ATOM      7  C   UNL     1       5.536  -3.134  22.323  0.00  0.00    +0.046 A 
BRANCH   2   9
ATOM      8  C   UNL     1       3.974  -5.840  23.034  0.00  0.00    +0.277 C 
ATOM      9  O   UNL     1       4.915  -5.374  22.073  0.00  0.00    -0.495 OA
ENDBRANCH   2   9
ENDBRANCH   1   5
BRANCH   1  10
ATOM     10  C   UNL     1       9.830  -1.174  23.065  0.00  0.00    +0.074 C 
ATOM     11  C   UNL     1      10.785  -0.084  23.607  0.00  0.00    +0.035 C 
ATOM     12  C   UNL     1      10.150   1.303  23.558  0.00  0.00    +0.003 C 
ATOM     13  C   UNL     1       9.829   1.684  22.118  0.00  0.00    +0.000 C 
ATOM     14  C   UNL     1       9.023   0.614  21.377  0.00  0.00    +0.003 C 
ATOM     15  C   UNL     1       9.546  -0.812  21.585  0.00  0.00    +0.035 C 
BRANCH  10  16
ATOM     16  O   UNL     1      10.590  -2.393  23.082  0.00  0.00    -0.388 OA
ATOM     17  H   UNL     1      10.883  -2.535  24.004  0.00  0.00    +0.210 HD
ENDBRANCH  10  16
ENDBRANCH   1  10
BRANCH   1  18
ATOM     18  C   UNL     1       8.822  -1.464  25.469  0.00  0.00    +0.094 C 
BRANCH  18  19
ATOM     19  N   UNL     1       7.891  -0.768  26.390  0.00  0.00    -0.308 NA
ATOM     20  C   UNL     1       6.738  -1.601  26.746  0.00  0.00    +0.104 C 
ATOM     21  C   UNL     1       7.405   0.464  25.754  0.00  0.00    +0.104 C 
ENDBRANCH  18  19
ENDBRANCH   1  18
TORSDOF 6
ENDMDL
MODEL 2
REMARK VINA RESULT:      -5.7      2.389      5.696
REMARK  Name = 
REMARK  9 active torsions:
REMARK  status: ('A' for Active; 'I' for Inactive)
REMARK    1  A    between atoms: C_1  and  O_2
REMARK    2  A    between atoms: O_2  and  C_3
REMARK    3  A    between atoms: C_6  and  C_9
REMARK    4  A    between atoms: C_9  and  C_10
REMARK    5  A    between atoms: C_9  and  C_14
REMARK    6  A    between atoms: C_10  and  N_11
REMARK    7  A    between atoms: N_11  and  C_12
REMARK    8  A    between atoms: N_11  and  C_13
REMARK    9  A    between atoms: C_14  and  O_15
REMARK                            x       y       z     vdW  Elec       q    Type
REMARK                         _______ _______ _______ _____ _____    ______ ____
ROOT
ATOM      1  C   UNL     1       7.567  -3.201  23.532  0.00  0.00    +0.065 C 
ENDROOT
BRANCH   1   5
ATOM      2  C   UNL     1       8.470   0.808  22.071  0.00  0.00    +0.120 A 
ATOM      3  C   UNL     1       9.253  -0.271  21.664  0.00  0.00    +0.046 A 
ATOM      4  C   UNL     1       8.966  -1.563  22.125  0.00  0.00    +0.007 A 
ATOM      5  C   UNL     1       7.902  -1.798  23.009  0.00  0.00    -0.040 A 
ATOM      6  C   UNL     1       7.102  -0.706  23.379  0.00  0.00    +0.007 A 
ATOM      7  C   UNL     1       7.378   0.580  22.904  0.00  0.00    +0.046 A 
BRANCH   2   9
ATOM      8  C   UNL     1       7.630   3.005  22.073  0.00  0.00    +0.277 C 
ATOM      9  O   UNL     1       8.657   2.103  21.675  0.00  0.00    -0.495 OA
ENDBRANCH   2   9
ENDBRANCH   1   5
BRANCH   1  10
ATOM     10  C   UNL     1       8.474  -3.668  24.744  0.00  0.00    +0.074 C 
ATOM     11  C   UNL     1       8.056  -5.044  25.315  0.00  0.00    +0.035 C 
ATOM     12  C   UNL     1       6.651  -5.009  25.909  0.00  0.00    +0.003 C 
ATOM     13  C   UNL     1       6.594  -4.022  27.068  0.00  0.00    +0.000 C 
ATOM     14  C   UNL     1       7.142  -2.638  26.709  0.00  0.00    +0.003 C 
ATOM     15  C   UNL     1       8.464  -2.677  25.935  0.00  0.00    +0.035 C 
BRANCH  10  16
ATOM     16  O   UNL     1       9.835  -3.827  24.314  0.00  0.00    -0.388 OA
ATOM     17  H   UNL     1      10.398  -3.752  25.109  0.00  0.00    +0.210 HD
ENDBRANCH  10  16
ENDBRANCH   1  10
BRANCH   1  18
ATOM     18  C   UNL     1       7.532  -4.251  22.366  0.00  0.00    +0.094 C 
BRANCH  18  19
ATOM     19  N   UNL     1       6.236  -4.414  21.663  0.00  0.00    -0.308 NA
ATOM     20  C   UNL     1       5.093  -4.282  22.572  0.00  0.00    +0.104 C 
ATOM     21  C   UNL     1       6.187  -5.739  21.031  0.00  0.00    +0.104 C 
ENDBRANCH  18  19
ENDBRANCH   1  18
TORSDOF 6
ENDMDL
MODEL 3
REMARK VINA RESULT:      -5.7      1.753      2.277
REMARK  Name = 
REMARK  9 active torsions:
REMARK  status: ('A' for Active; 'I' for Inactive)
REMARK    1  A    between atoms: C_1  and  O_2
REMARK    2  A    between atoms: O_2  and  C_3
REMARK    3  A    between atoms: C_6  and  C_9
REMARK    4  A    between atoms: C_9  and  C_10
REMARK    5  A    between atoms: C_9  and  C_14
REMARK    6  A    between atoms: C_10  and  N_11
REMARK    7  A    between atoms: N_11  and  C_12
REMARK    8  A    between atoms: N_11  and  C_13
REMARK    9  A    between atoms: C_14  and  O_15
REMARK                            x       y       z     vdW  Elec       q    Type
REMARK                         _______ _______ _______ _____ _____    ______ ____
ROOT
ATOM      1  C   UNL     1       8.133  -0.132  24.621  0.00  0.00    +0.065 C 
ENDROOT
BRANCH   1   5
ATOM      2  C   UNL     1       7.864  -4.321  23.438  0.00  0.00    +0.120 A 
ATOM      3  C   UNL     1       8.525  -3.974  24.615  0.00  0.00    +0.046 A 
ATOM      4  C   UNL     1       8.612  -2.631  25.005  0.00  0.00    +0.007 A 
ATOM      5  C   UNL     1       8.051  -1.611  24.221  0.00  0.00    -0.040 A 
ATOM      6  C   UNL     1       7.357  -1.982  23.059  0.00  0.00    +0.007 A 
ATOM      7  C   UNL     1       7.256  -3.325  22.681  0.00  0.00    +0.046 A 
BRANCH   2   9
ATOM      8  C   UNL     1       7.053  -5.704  21.718  0.00  0.00    +0.277 C 
ATOM      9  O   UNL     1       7.715  -5.598  22.973  0.00  0.00    -0.495 OA
ENDBRANCH   2   9
ENDBRANCH   1   5
BRANCH   1  10
ATOM     10  C   UNL     1       9.586   0.486  24.500  0.00  0.00    +0.074 C 
ATOM     11  C   UNL     1       9.574   2.017  24.278  0.00  0.00    +0.035 C 
ATOM     12  C   UNL     1       8.911   2.393  22.956  0.00  0.00    +0.003 C 
ATOM     13  C   UNL     1       9.684   1.791  21.789  0.00  0.00    +0.000 C 
ATOM     14  C   UNL     1       9.934   0.289  21.944  0.00  0.00    +0.003 C 
ATOM     15  C   UNL     1      10.416  -0.120  23.340  0.00  0.00    +0.035 C 
BRANCH  10  16
ATOM     16  O   UNL     1      10.317   0.281  25.719  0.00  0.00    -0.388 OA
ATOM     17  H   UNL     1      11.022  -0.368  25.526  0.00  0.00    +0.210 HD
ENDBRANCH  10  16
ENDBRANCH   1  10
BRANCH   1  18
ATOM     18  C   UNL     1       7.489   0.113  26.031  0.00  0.00    +0.094 C 
BRANCH  18  19
ATOM     19  N   UNL     1       6.336   1.046  26.077  0.00  0.00    -0.308 NA
ATOM     20  C   UNL     1       5.769   1.292  24.747  0.00  0.00    +0.104 C 
ATOM     21  C   UNL     1       6.766   2.327  26.652  0.00  0.00    +0.104 C 
ENDBRANCH  18  19
ENDBRANCH   1  18
TORSDOF 6
ENDMDL
MODEL 4
REMARK VINA RESULT:      -5.6      2.100      5.697
REMARK  Name = 
REMARK  9 active torsions:
REMARK  status: ('A' for Active; 'I' for Inactive)
REMARK    1  A    between atoms: C_1  and  O_2
REMARK    2  A    between atoms: O_2  and  C_3
REMARK    3  A    between atoms: C_6  and  C_9
REMARK    4  A    between atoms: C_9  and  C_10
REMARK    5  A    between atoms: C_9  and  C_14
REMARK    6  A    between atoms: C_10  and  N_11
REMARK    7  A    between atoms: N_11  and  C_12
REMARK    8  A    between atoms: N_11  and  C_13
REMARK    9  A    between atoms: C_14  and  O_15
REMARK                            x       y       z     vdW  Elec       q    Type
REMARK                         _______ _______ _______ _____ _____    ______ ____
ROOT
ATOM      1  C   UNL     1       7.511  -3.053  24.235  0.00  0.00    +0.065 C 
ENDROOT
BRANCH   1   5
ATOM      2  C   UNL     1       9.552   0.353  22.432  0.00  0.00    +0.120 A 
ATOM      3  C   UNL     1       9.617  -0.897  21.819  0.00  0.00    +0.046 A 
ATOM      4  C   UNL     1       8.959  -1.995  22.389  0.00  0.00    +0.007 A 
ATOM      5  C   UNL     1       8.238  -1.867  23.587  0.00  0.00    -0.040 A 
ATOM      6  C   UNL     1       8.154  -0.594  24.170  0.00  0.00    +0.007 A 
ATOM      7  C   UNL     1       8.795   0.506  23.589  0.00  0.00    +0.046 A 
BRANCH   2   9
ATOM      8  C   UNL     1      10.334   2.517  22.921  0.00  0.00    +0.277 C 
ATOM      9  O   UNL     1      10.148   1.489  21.955  0.00  0.00    -0.495 OA
ENDBRANCH   2   9
ENDBRANCH   1   5
BRANCH   1  10
ATOM     10  C   UNL     1       5.971  -3.133  23.878  0.00  0.00    +0.074 C 
ATOM     11  C   UNL     1       5.312  -4.454  24.343  0.00  0.00    +0.035 C 
ATOM     12  C   UNL     1       5.910  -5.666  23.635  0.00  0.00    +0.003 C 
ATOM     13  C   UNL     1       5.674  -5.568  22.133  0.00  0.00    +0.000 C 
ATOM     14  C   UNL     1       6.120  -4.230  21.539  0.00  0.00    +0.003 C 
ATOM     15  C   UNL     1       5.685  -3.011  22.360  0.00  0.00    +0.035 C 
BRANCH  10  16
ATOM     16  O   UNL     1       5.249  -2.088  24.548  0.00  0.00    -0.388 OA
ATOM     17  H   UNL     1       4.668  -1.668  23.883  0.00  0.00    +0.210 HD
ENDBRANCH  10  16
ENDBRANCH   1  10
BRANCH   1  18
ATOM     18  C   UNL     1       7.776  -3.108  25.781  0.00  0.00    +0.094 C 
BRANCH  18  19
ATOM     19  N   UNL     1       8.602  -4.239  26.270  0.00  0.00    -0.308 NA
ATOM     20  C   UNL     1       9.283  -4.940  25.177  0.00  0.00    +0.104 C 
ATOM     21  C   UNL     1       7.747  -5.195  26.984  0.00  0.00    +0.104 C 
ENDBRANCH  18  19
ENDBRANCH   1  18
TORSDOF 6
ENDMDL
MODEL 5
REMARK VINA RESULT:      -5.4      3.089      4.521
REMARK  Name = 
REMARK  9 active torsions:
REMARK  status: ('A' for Active; 'I' for Inactive)
REMARK    1  A    between atoms: C_1  and  O_2
REMARK    2  A    between atoms: O_2  and  C_3
REMARK    3  A    between atoms: C_6  and  C_9
REMARK    4  A    between atoms: C_9  and  C_10
REMARK    5  A    between atoms: C_9  and  C_14
REMARK    6  A    between atoms: C_10  and  N_11
REMARK    7  A    between atoms: N_11  and  C_12
REMARK    8  A    between atoms: N_11  and  C_13
REMARK    9  A    between atoms: C_14  and  O_15
REMARK                            x       y       z     vdW  Elec       q    Type
REMARK                         _______ _______ _______ _____ _____    ______ ____
ROOT
ATOM      1  C   UNL     1       6.792  -3.021  23.757  0.00  0.00    +0.065 C 
ENDROOT
BRANCH   1   5
ATOM      2  C   UNL     1       6.998  -5.421  27.393  0.00  0.00    +0.120 A 
ATOM      3  C   UNL     1       7.977  -5.565  26.411  0.00  0.00    +0.046 A 
ATOM      4  C   UNL     1       7.920  -4.794  25.243  0.00  0.00    +0.007 A 
ATOM      5  C   UNL     1       6.880  -3.876  25.029  0.00  0.00    -0.040 A 
ATOM      6  C   UNL     1       5.925  -3.718  26.044  0.00  0.00    +0.007 A 
ATOM      7  C   UNL     1       5.992  -4.474  27.218  0.00  0.00    +0.046 A 
BRANCH   2   9
ATOM      8  C   UNL     1       5.789  -5.919  29.348  0.00  0.00    +0.277 C 
ATOM      9  O   UNL     1       6.965  -6.115  28.571  0.00  0.00    -0.495 OA
ENDBRANCH   2   9
ENDBRANCH   1   5
BRANCH   1  10
ATOM     10  C   UNL     1       7.335  -1.544  23.939  0.00  0.00    +0.074 C 
ATOM     11  C   UNL     1       7.678  -0.858  22.596  0.00  0.00    +0.035 C 
ATOM     12  C   UNL     1       8.812  -1.572  21.866  0.00  0.00    +0.003 C 
ATOM     13  C   UNL     1      10.082  -1.538  22.707  0.00  0.00    +0.000 C 
ATOM     14  C   UNL     1       9.868  -2.032  24.140  0.00  0.00    +0.003 C 
ATOM     15  C   UNL     1       8.613  -1.463  24.812  0.00  0.00    +0.035 C 
BRANCH  10  16
ATOM     16  O   UNL     1       6.332  -0.716  24.549  0.00  0.00    -0.388 OA
ATOM     17  H   UNL     1       5.519  -0.809  24.014  0.00  0.00    +0.210 HD
ENDBRANCH  10  16
ENDBRANCH   1  10
BRANCH   1  18
ATOM     18  C   UNL     1       5.349  -3.061  23.142  0.00  0.00    +0.094 C 
BRANCH  18  19
ATOM     19  N   UNL     1       5.069  -4.161  22.187  0.00  0.00    -0.308 NA
ATOM     20  C   UNL     1       4.496  -5.337  22.850  0.00  0.00    +0.104 C 
ATOM     21  C   UNL     1       6.315  -4.556  21.518  0.00  0.00    +0.104 C 
ENDBRANCH  18  19
ENDBRANCH   1  18
TORSDOF 6
ENDMDL
MODEL 6
REMARK VINA RESULT:      -5.3      2.717      6.386
REMARK  Name = 
REMARK  9 active torsions:
REMARK  status: ('A' for Active; 'I' for Inactive)
REMARK    1  A    between atoms: C_1  and  O_2
REMARK    2  A    between atoms: O_2  and  C_3
REMARK    3  A    between atoms: C_6  and  C_9
REMARK    4  A    between atoms: C_9  and  C_10
REMARK    5  A    between atoms: C_9  and  C_14
REMARK    6  A    between atoms: C_10  and  N_11
REMARK    7  A    between atoms: N_11  and  C_12
REMARK    8  A    between atoms: N_11  and  C_13
REMARK    9  A    between atoms: C_14  and  O_15
REMARK                            x       y       z     vdW  Elec       q    Type
REMARK                         _______ _______ _______ _____ _____    ______ ____
ROOT
ATOM      1  C   UNL     1       6.854  -4.450  24.477  0.00  0.00    +0.065 C 
ENDROOT
BRANCH   1   5
ATOM      2  C   UNL     1       9.174  -0.815  23.822  0.00  0.00    +0.120 A 
ATOM      3  C   UNL     1       7.786  -0.742  23.929  0.00  0.00    +0.046 A 
ATOM      4  C   UNL     1       7.034  -1.904  24.145  0.00  0.00    +0.007 A 
ATOM      5  C   UNL     1       7.653  -3.160  24.244  0.00  0.00    -0.040 A 
ATOM      6  C   UNL     1       9.053  -3.210  24.171  0.00  0.00    +0.007 A 
ATOM      7  C   UNL     1       9.804  -2.047  23.974  0.00  0.00    +0.046 A 
BRANCH   2   9
ATOM      8  C   UNL     1      10.864   0.558  24.712  0.00  0.00    +0.277 C 
ATOM      9  O   UNL     1       9.999   0.256  23.621  0.00  0.00    -0.495 OA
ENDBRANCH   2   9
ENDBRANCH   1   5
BRANCH   1  10
ATOM     10  C   UNL     1       6.995  -5.035  25.942  0.00  0.00    +0.074 C 
ATOM     11  C   UNL     1       5.860  -6.020  26.310  0.00  0.00    +0.035 C 
ATOM     12  C   UNL     1       4.496  -5.336  26.325  0.00  0.00    +0.003 C 
ATOM     13  C   UNL     1       4.472  -4.234  27.377  0.00  0.00    +0.000 C 
ATOM     14  C   UNL     1       5.646  -3.259  27.255  0.00  0.00    +0.003 C 
ATOM     15  C   UNL     1       7.001  -3.943  27.042  0.00  0.00    +0.035 C 
BRANCH  10  16
ATOM     16  O   UNL     1       8.211  -5.788  26.063  0.00  0.00    -0.388 OA
ATOM     17  H   UNL     1       8.890  -5.182  26.420  0.00  0.00    +0.210 HD
ENDBRANCH  10  16
ENDBRANCH   1  10
BRANCH   1  18
ATOM     18  C   UNL     1       7.159  -5.518  23.369  0.00  0.00    +0.094 C 
BRANCH  18  19
ATOM     19  N   UNL     1       6.028  -5.895  22.486  0.00  0.00    -0.308 NA
ATOM     20  C   UNL     1       6.369  -5.767  21.066  0.00  0.00    +0.104 C 
ATOM     21  C   UNL     1       4.875  -5.034  22.776  0.00  0.00    +0.104 C 
ENDBRANCH  18  19
ENDBRANCH   1  18
TORSDOF 6
ENDMDL
MODEL 7
REMARK VINA RESULT:      -5.2      2.182      3.109
REMARK  Name = 
REMARK  9 active torsions:
REMARK  status: ('A' for Active; 'I' for Inactive)
REMARK    1  A    between atoms: C_1  and  O_2
REMARK    2  A    between atoms: O_2  and  C_3
REMARK    3  A    between atoms: C_6  and  C_9
REMARK    4  A    between atoms: C_9  and  C_10
REMARK    5  A    between atoms: C_9  and  C_14
REMARK    6  A    between atoms: C_10  and  N_11
REMARK    7  A    between atoms: N_11  and  C_12
REMARK    8  A    between atoms: N_11  and  C_13
REMARK    9  A    between atoms: C_14  and  O_15
REMARK                            x       y       z     vdW  Elec       q    Type
REMARK                         _______ _______ _______ _____ _____    ______ ____
ROOT
ATOM      1  C   UNL     1       8.174   0.043  24.699  0.00  0.00    +0.065 C 
ENDROOT
BRANCH   1   5
ATOM      2  C   UNL     1       7.151  -4.075  25.706  0.00  0.00    +0.120 A 
ATOM      3  C   UNL     1       6.597  -3.480  24.574  0.00  0.00    +0.046 A 
ATOM      4  C   UNL     1       6.925  -2.159  24.240  0.00  0.00    +0.007 A 
ATOM      5  C   UNL     1       7.800  -1.406  25.038  0.00  0.00    -0.040 A 
ATOM      6  C   UNL     1       8.376  -2.033  26.153  0.00  0.00    +0.007 A 
ATOM      7  C   UNL     1       8.063  -3.358  26.474  0.00  0.00    +0.046 A 
BRANCH   2   9
ATOM      8  C   UNL     1       6.894  -5.543  27.525  0.00  0.00    +0.277 C 
ATOM      9  O   UNL     1       6.905  -5.357  26.114  0.00  0.00    -0.495 OA
ENDBRANCH   2   9
ENDBRANCH   1   5
BRANCH   1  10
ATOM     10  C   UNL     1       9.661   0.216  24.179  0.00  0.00    +0.074 C 
ATOM     11  C   UNL     1       9.833   1.431  23.237  0.00  0.00    +0.035 C 
ATOM     12  C   UNL     1       9.019   1.275  21.956  0.00  0.00    +0.003 C 
ATOM     13  C   UNL     1       9.490   0.053  21.178  0.00  0.00    +0.000 C 
ATOM     14  C   UNL     1       9.543  -1.218  22.029  0.00  0.00    +0.003 C 
ATOM     15  C   UNL     1      10.189  -1.017  23.405  0.00  0.00    +0.035 C 
BRANCH  10  16
ATOM     16  O   UNL     1      10.548   0.458  25.282  0.00  0.00    -0.388 OA
ATOM     17  H   UNL     1      10.539   1.420  25.453  0.00  0.00    +0.210 HD
ENDBRANCH  10  16
ENDBRANCH   1  10
BRANCH   1  18
ATOM     18  C   UNL     1       7.833   1.013  25.884  0.00  0.00    +0.094 C 
BRANCH  18  19
ATOM     19  N   UNL     1       6.911   2.134  25.575  0.00  0.00    -0.308 NA
ATOM     20  C   UNL     1       6.211   1.940  24.302  0.00  0.00    +0.104 C 
ATOM     21  C   UNL     1       7.672   3.388  25.510  0.00  0.00    +0.104 C 
ENDBRANCH  18  19
ENDBRANCH   1  18
TORSDOF 6
ENDMDL
MODEL 8
REMARK VINA RESULT:      -5.0      2.613      3.454
REMARK  Name = 
REMARK  9 active torsions:
REMARK  status: ('A' for Active; 'I' for Inactive)
REMARK    1  A    between atoms: C_1  and  O_2
REMARK    2  A    between atoms: O_2  and  C_3
REMARK    3  A    between atoms: C_6  and  C_9
REMARK    4  A    between atoms: C_9  and  C_10
REMARK    5  A    between atoms: C_9  and  C_14
REMARK    6  A    between atoms: C_10  and  N_11
REMARK    7  A    between atoms: N_11  and  C_12
REMARK    8  A    between atoms: N_11  and  C_13
REMARK    9  A    between atoms: C_14  and  O_15
REMARK                            x       y       z     vdW  Elec       q    Type
REMARK                         _______ _______ _______ _____ _____    ______ ____
ROOT
ATOM      1  C   UNL     1       7.410   0.808  24.026  0.00  0.00    +0.065 C 
ENDROOT
BRANCH   1   5
ATOM      2  C   UNL     1       7.659  -3.499  23.383  0.00  0.00    +0.120 A 
ATOM      3  C   UNL     1       7.072  -3.005  24.546  0.00  0.00    +0.046 A 
ATOM      4  C   UNL     1       6.983  -1.622  24.758  0.00  0.00    +0.007 A 
ATOM      5  C   UNL     1       7.490  -0.711  23.819  0.00  0.00    -0.040 A 
ATOM      6  C   UNL     1       8.044  -1.225  22.637  0.00  0.00    +0.007 A 
ATOM      7  C   UNL     1       8.115  -2.605  22.418  0.00  0.00    +0.046 A 
BRANCH   2   9
ATOM      8  C   UNL     1       6.986  -5.265  21.983  0.00  0.00    +0.277 C 
ATOM      9  O   UNL     1       7.787  -4.825  23.074  0.00  0.00    -0.495 OA
ENDBRANCH   2   9
ENDBRANCH   1   5
BRANCH   1  10
ATOM     10  C   UNL     1       8.439   1.365  25.093  0.00  0.00    +0.074 C 
ATOM     11  C   UNL     1       8.683   2.887  24.959  0.00  0.00    +0.035 C 
ATOM     12  C   UNL     1       9.323   3.243  23.620  0.00  0.00    +0.003 C 
ATOM     13  C   UNL     1      10.685   2.572  23.492  0.00  0.00    +0.000 C 
ATOM     14  C   UNL     1      10.644   1.068  23.771  0.00  0.00    +0.003 C 
ATOM     15  C   UNL     1       9.832   0.689  25.014  0.00  0.00    +0.035 C 
BRANCH  10  16
ATOM     16  O   UNL     1       7.931   1.173  26.422  0.00  0.00    -0.388 OA
ATOM     17  H   UNL     1       6.967   1.331  26.387  0.00  0.00    +0.210 HD
ENDBRANCH  10  16
ENDBRANCH   1  10
BRANCH   1  18
ATOM     18  C   UNL     1       5.937   1.267  24.312  0.00  0.00    +0.094 C 
BRANCH  18  19
ATOM     19  N   UNL     1       5.562   2.620  23.833  0.00  0.00    -0.308 NA
ATOM     20  C   UNL     1       4.130   2.888  23.999  0.00  0.00    +0.104 C 
ATOM     21  C   UNL     1       5.905   2.747  22.412  0.00  0.00    +0.104 C 
ENDBRANCH  18  19
ENDBRANCH   1  18
TORSDOF 6
ENDMDL
MODEL 9
REMARK VINA RESULT:      -4.9      2.034      2.453
REMARK  Name = 
REMARK  9 active torsions:
REMARK  status: ('A' for Active; 'I' for Inactive)
REMARK    1  A    between atoms: C_1  and  O_2
REMARK    2  A    between atoms: O_2  and  C_3
REMARK    3  A    between atoms: C_6  and  C_9
REMARK    4  A    between atoms: C_9  and  C_10
REMARK    5  A    between atoms: C_9  and  C_14
REMARK    6  A    between atoms: C_10  and  N_11
REMARK    7  A    between atoms: N_11  and  C_12
REMARK    8  A    between atoms: N_11  and  C_13
REMARK    9  A    between atoms: C_14  and  O_15
REMARK                            x       y       z     vdW  Elec       q    Type
REMARK                         _______ _______ _______ _____ _____    ______ ____
ROOT
ATOM      1  C   UNL     1       7.855  -2.287  24.991  0.00  0.00    +0.065 C 
ENDROOT
BRANCH   1   5
ATOM      2  C   UNL     1       4.374  -4.331  23.341  0.00  0.00    +0.120 A 
ATOM      3  C   UNL     1       5.643  -4.609  22.838  0.00  0.00    +0.046 A 
ATOM      4  C   UNL     1       6.768  -3.961  23.366  0.00  0.00    +0.007 A 
ATOM      5  C   UNL     1       6.642  -3.015  24.395  0.00  0.00    -0.040 A 
ATOM      6  C   UNL     1       5.361  -2.775  24.914  0.00  0.00    +0.007 A 
ATOM      7  C   UNL     1       4.242  -3.436  24.399  0.00  0.00    +0.046 A 
BRANCH   2   9
ATOM      8  C   UNL     1       3.093  -6.299  23.204  0.00  0.00    +0.277 C 
ATOM      9  O   UNL     1       3.216  -4.913  22.905  0.00  0.00    -0.495 OA
ENDBRANCH   2   9
ENDBRANCH   1   5
BRANCH   1  10
ATOM     10  C   UNL     1       8.877  -1.751  23.906  0.00  0.00    +0.074 C 
ATOM     11  C   UNL     1       9.846  -0.682  24.465  0.00  0.00    +0.035 C 
ATOM     12  C   UNL     1       9.106   0.574  24.916  0.00  0.00    +0.003 C 
ATOM     13  C   UNL     1       8.389   1.215  23.734  0.00  0.00    +0.000 C 
ATOM     14  C   UNL     1       7.510   0.231  22.958  0.00  0.00    +0.003 C 
ATOM     15  C   UNL     1       8.187  -1.115  22.673  0.00  0.00    +0.035 C 
BRANCH  10  16
ATOM     16  O   UNL     1       9.714  -2.821  23.439  0.00  0.00    -0.388 OA
ATOM     17  H   UNL     1      10.413  -2.952  24.109  0.00  0.00    +0.210 HD
ENDBRANCH  10  16
ENDBRANCH   1  10
BRANCH   1  18
ATOM     18  C   UNL     1       8.552  -3.152  26.099  0.00  0.00    +0.094 C 
BRANCH  18  19
ATOM     19  N   UNL     1       8.511  -4.623  25.911  0.00  0.00    -0.308 NA
ATOM     20  C   UNL     1       7.789  -5.300  26.993  0.00  0.00    +0.104 C 
ATOM     21  C   UNL     1       9.882  -5.147  25.858  0.00  0.00    +0.104 C 
ENDBRANCH  18  19
ENDBRANCH   1  18
TORSDOF 6
ENDMDL
