MODEL 1
REMARK VINA RESULT:      -6.8      0.000      0.000
REMARK  Name = 
REMARK  9 active torsions:
REMARK  status: ('A' for Active; 'I' for Inactive)
REMARK    1  A    between atoms: C_1  and  C_2
REMARK    2  A    between atoms: N_4  and  C_5
REMARK    3  A    between atoms: C_8  and  C_10
REMARK    4  A    between atoms: C_10  and  O_11
REMARK    5  A    between atoms: O_11  and  P_12
REMARK    6  A    between atoms: P_12  and  O_13
REMARK    7  A    between atoms: P_12  and  O_14
REMARK    8  A    between atoms: C_16  and  O_18
REMARK    9  A    between atoms: C_19  and  O_21
REMARK                            x       y       z     vdW  Elec       q    Type
REMARK                         _______ _______ _______ _____ _____    ______ ____
ROOT
ATOM      1  C   UNL     1       7.119  -4.105  23.156  0.00  0.00    +0.255 C 
ATOM      2  C   UNL     1       6.066  -3.072  22.691  0.00  0.00    +0.195 C 
ATOM      3  C   UNL     1       6.836  -1.744  22.598  0.00  0.00    +0.178 C 
ATOM      4  C   UNL     1       8.250  -2.099  23.057  0.00  0.00    +0.178 C 
ATOM      5  O   UNL     1       8.389  -3.510  22.802  0.00  0.00    -0.346 OA
ENDROOT
BRANCH   1  14
ATOM      6  C   UNL     1       4.878  -4.542  27.549  0.00  0.00    +0.051 C 
ATOM      7  C   UNL     1       6.056  -4.717  26.649  0.00  0.00    +0.030 A 
ATOM      8  C   UNL     1       7.200  -5.485  27.186  0.00  0.00    +0.257 A 
ATOM      9  O   UNL     1       7.182  -5.994  28.299  0.00  0.00    -0.267 OA
ATOM     10  N   UNL     1       8.269  -5.607  26.354  0.00  0.00    -0.275 N 
ATOM     11  H   UNL     1       9.031  -6.175  26.685  0.00  0.00    +0.173 HD
ATOM     12  C   UNL     1       8.286  -5.306  25.021  0.00  0.00    +0.331 A 
ATOM     13  O   UNL     1       9.211  -5.733  24.342  0.00  0.00    -0.246 OA
ATOM     14  N   UNL     1       7.219  -4.553  24.556  0.00  0.00    -0.271 N 
ATOM     15  C   UNL     1       6.138  -4.271  25.389  0.00  0.00    +0.102 A 
ENDBRANCH   1  14
BRANCH   2  16
ATOM     16  O   UNL     1       5.592  -3.431  21.366  0.00  0.00    -0.385 OA
ATOM     17  H   UNL     1       6.264  -3.986  20.937  0.00  0.00    +0.210 HD
ENDBRANCH   2  16
BRANCH   3  18
ATOM     18  O   UNL     1       6.246  -0.727  23.396  0.00  0.00    -0.386 OA
ATOM     19  H   UNL     1       6.950  -0.276  23.897  0.00  0.00    +0.210 HD
ENDBRANCH   3  18
BRANCH   4  20
ATOM     20  C   UNL     1       9.356  -1.376  22.292  0.00  0.00    +0.206 C 
BRANCH  20  21
ATOM     21  O   UNL     1       8.993  -0.068  21.850  0.00  0.00    -0.284 OA
BRANCH  21  22
ATOM     22  P   UNL     1       9.778   1.148  22.796  0.00  0.00    +0.472 P 
ATOM     23  O   UNL     1      10.481   2.238  23.643  0.00  0.00    -0.228 OA
BRANCH  22  24
ATOM     24  O   UNL     1       8.277   1.535  23.327  0.00  0.00    -0.303 OA
ATOM     25  H   UNL     1       8.178   2.492  23.457  0.00  0.00    +0.222 HD
ENDBRANCH  22  24
BRANCH  22  26
ATOM     26  O   UNL     1       9.730   2.058  21.438  0.00  0.00    -0.303 OA
ATOM     27  H   UNL     1       9.029   2.730  21.459  0.00  0.00    +0.222 HD
ENDBRANCH  22  26
ENDBRANCH  21  22
ENDBRANCH  20  21
ENDBRANCH   4  20
TORSDOF 8
ENDMDL
MODEL 2
REMARK VINA RESULT:      -6.5      3.050      6.357
REMARK  Name = 
REMARK  9 active torsions:
REMARK  status: ('A' for Active; 'I' for Inactive)
REMARK    1  A    between atoms: C_1  and  C_2
REMARK    2  A    between atoms: N_4  and  C_5
REMARK    3  A    between atoms: C_8  and  C_10
REMARK    4  A    between atoms: C_10  and  O_11
REMARK    5  A    between atoms: O_11  and  P_12
REMARK    6  A    between atoms: P_12  and  O_13
REMARK    7  A    between atoms: P_12  and  O_14
REMARK    8  A    between atoms: C_16  and  O_18
REMARK    9  A    between atoms: C_19  and  O_21
REMARK                            x       y       z     vdW  Elec       q    Type
REMARK                         _______ _______ _______ _____ _____    ______ ____
ROOT
ATOM      1  C   UNL     1       9.442  -2.972  24.093  0.00  0.00    +0.255 C 
ATOM      2  C   UNL     1       9.418  -3.947  25.294  0.00  0.00    +0.195 C 
ATOM      3  C   UNL     1       7.934  -4.300  25.483  0.00  0.00    +0.178 C 
ATOM      4  C   UNL     1       7.216  -3.474  24.416  0.00  0.00    +0.178 C 
ATOM      5  O   UNL     1       8.203  -3.231  23.395  0.00  0.00    -0.346 OA
ENDROOT
BRANCH   1  14
ATOM      6  C   UNL     1       9.994   1.438  21.912  0.00  0.00    +0.051 C 
ATOM      7  C   UNL     1       9.830   0.579  23.121  0.00  0.00    +0.030 A 
ATOM      8  C   UNL     1       9.626   1.272  24.412  0.00  0.00    +0.257 A 
ATOM      9  O   UNL     1       9.551   2.490  24.495  0.00  0.00    -0.267 OA
ATOM     10  N   UNL     1       9.506   0.466  25.500  0.00  0.00    -0.275 N 
ATOM     11  H   UNL     1       9.310   0.922  26.375  0.00  0.00    +0.173 HD
ATOM     12  C   UNL     1       9.317  -0.888  25.479  0.00  0.00    +0.331 A 
ATOM     13  O   UNL     1       8.938  -1.436  26.505  0.00  0.00    -0.246 OA
ATOM     14  N   UNL     1       9.553  -1.514  24.265  0.00  0.00    -0.271 N 
ATOM     15  C   UNL     1       9.814  -0.761  23.122  0.00  0.00    +0.102 A 
ENDBRANCH   1  14
BRANCH   2  16
ATOM     16  O   UNL     1      10.146  -5.156  24.947  0.00  0.00    -0.385 OA
ATOM     17  H   UNL     1      10.122  -5.760  25.708  0.00  0.00    +0.210 HD
ENDBRANCH   2  16
BRANCH   3  18
ATOM     18  O   UNL     1       7.477  -4.007  26.796  0.00  0.00    -0.386 OA
ATOM     19  H   UNL     1       8.092  -3.372  27.206  0.00  0.00    +0.210 HD
ENDBRANCH   3  18
BRANCH   4  20
ATOM     20  C   UNL     1       6.034  -4.187  23.763  0.00  0.00    +0.206 C 
BRANCH  20  21
ATOM     21  O   UNL     1       6.342  -5.496  23.284  0.00  0.00    -0.284 OA
BRANCH  21  22
ATOM     22  P   UNL     1       6.152  -5.591  21.567  0.00  0.00    +0.472 P 
ATOM     23  O   UNL     1       5.981  -5.675  20.030  0.00  0.00    -0.228 OA
BRANCH  22  24
ATOM     24  O   UNL     1       5.584  -4.056  21.665  0.00  0.00    -0.303 OA
ATOM     25  H   UNL     1       6.278  -3.404  21.477  0.00  0.00    +0.222 HD
ENDBRANCH  22  24
BRANCH  22  26
ATOM     26  O   UNL     1       4.729  -6.330  21.891  0.00  0.00    -0.303 OA
ATOM     27  H   UNL     1       4.664  -7.213  21.494  0.00  0.00    +0.222 HD
ENDBRANCH  22  26
ENDBRANCH  21  22
ENDBRANCH  20  21
ENDBRANCH   4  20
TORSDOF 8
ENDMDL
MODEL 3
REMARK VINA RESULT:      -6.5      3.414      6.686
REMARK  Name = 
REMARK  9 active torsions:
REMARK  status: ('A' for Active; 'I' for Inactive)
REMARK    1  A    between atoms: C_1  and  C_2
REMARK    2  A    between atoms: N_4  and  C_5
REMARK    3  A    between atoms: C_8  and  C_10
REMARK    4  A    between atoms: C_10  and  O_11
REMARK    5  A    between atoms: O_11  and  P_12
REMARK    6  A    between atoms: P_12  and  O_13
REMARK    7  A    between atoms: P_12  and  O_14
REMARK    8  A    between atoms: C_16  and  O_18
REMARK    9  A    between atoms: C_19  and  O_21
REMARK                            x       y       z     vdW  Elec       q    Type
REMARK                         _______ _______ _______ _____ _____    ______ ____
ROOT
ATOM      1  C   UNL     1       9.563  -3.045  24.139  0.00  0.00    +0.255 C 
ATOM      2  C   UNL     1       9.430  -4.047  25.310  0.00  0.00    +0.195 C 
ATOM      3  C   UNL     1       7.956  -4.483  25.287  0.00  0.00    +0.178 C 
ATOM      4  C   UNL     1       7.345  -3.671  24.145  0.00  0.00    +0.178 C 
ATOM      5  O   UNL     1       8.446  -3.352  23.273  0.00  0.00    -0.346 OA
ENDROOT
BRANCH   1  14
ATOM      6  C   UNL     1      10.005   1.443  22.094  0.00  0.00    +0.051 C 
ATOM      7  C   UNL     1       9.802   0.546  23.270  0.00  0.00    +0.030 A 
ATOM      8  C   UNL     1       9.453   1.194  24.553  0.00  0.00    +0.257 A 
ATOM      9  O   UNL     1       9.295   2.403  24.654  0.00  0.00    -0.267 OA
ATOM     10  N   UNL     1       9.299   0.356  25.613  0.00  0.00    -0.275 N 
ATOM     11  H   UNL     1       9.006   0.777  26.478  0.00  0.00    +0.173 HD
ATOM     12  C   UNL     1       9.197  -1.006  25.550  0.00  0.00    +0.331 A 
ATOM     13  O   UNL     1       8.775  -1.602  26.532  0.00  0.00    -0.246 OA
ATOM     14  N   UNL     1       9.568  -1.586  24.347  0.00  0.00    -0.271 N 
ATOM     15  C   UNL     1       9.870  -0.792  23.243  0.00  0.00    +0.102 A 
ENDBRANCH   1  14
BRANCH   2  16
ATOM     16  O   UNL     1      10.264  -5.207  25.047  0.00  0.00    -0.385 OA
ATOM     17  H   UNL     1      10.927  -4.966  24.378  0.00  0.00    +0.210 HD
ENDBRANCH   2  16
BRANCH   3  18
ATOM     18  O   UNL     1       7.309  -4.244  26.529  0.00  0.00    -0.386 OA
ATOM     19  H   UNL     1       7.808  -4.696  27.233  0.00  0.00    +0.210 HD
ENDBRANCH   3  18
BRANCH   4  20
ATOM     20  C   UNL     1       6.305  -4.431  23.326  0.00  0.00    +0.206 C 
BRANCH  20  21
ATOM     21  O   UNL     1       5.634  -5.460  24.053  0.00  0.00    -0.284 OA
BRANCH  21  22
ATOM     22  P   UNL     1       4.110  -5.841  23.330  0.00  0.00    +0.472 P 
ATOM     23  O   UNL     1       2.744  -6.182  22.682  0.00  0.00    -0.228 OA
BRANCH  22  24
ATOM     24  O   UNL     1       4.388  -7.374  23.835  0.00  0.00    -0.303 OA
ATOM     25  H   UNL     1       5.316  -7.507  24.086  0.00  0.00    +0.222 HD
ENDBRANCH  22  24
BRANCH  22  26
ATOM     26  O   UNL     1       4.945  -5.958  21.928  0.00  0.00    -0.303 OA
ATOM     27  H   UNL     1       5.899  -5.825  22.045  0.00  0.00    +0.222 HD
ENDBRANCH  22  26
ENDBRANCH  21  22
ENDBRANCH  20  21
ENDBRANCH   4  20
TORSDOF 8
ENDMDL
MODEL 4
REMARK VINA RESULT:      -6.5      1.706      2.190
REMARK  Name = 
REMARK  9 active torsions:
REMARK  status: ('A' for Active; 'I' for Inactive)
REMARK    1  A    between atoms: C_1  and  C_2
REMARK    2  A    between atoms: N_4  and  C_5
REMARK    3  A    between atoms: C_8  and  C_10
REMARK    4  A    between atoms: C_10  and  O_11
REMARK    5  A    between atoms: O_11  and  P_12
REMARK    6  A    between atoms: P_12  and  O_13
REMARK    7  A    between atoms: P_12  and  O_14
REMARK    8  A    between atoms: C_16  and  O_18
REMARK    9  A    between atoms: C_19  and  O_21
REMARK                            x       y       z     vdW  Elec       q    Type
REMARK                         _______ _______ _______ _____ _____    ______ ____
ROOT
ATOM      1  C   UNL     1       9.347  -2.535  23.703  0.00  0.00    +0.255 C 
ATOM      2  C   UNL     1       8.617  -1.963  22.465  0.00  0.00    +0.195 C 
ATOM      3  C   UNL     1       8.179  -0.551  22.887  0.00  0.00    +0.178 C 
ATOM      4  C   UNL     1       8.645  -0.433  24.338  0.00  0.00    +0.178 C 
ATOM      5  O   UNL     1       9.734  -1.368  24.464  0.00  0.00    -0.346 OA
ENDROOT
BRANCH   1  14
ATOM      6  C   UNL     1       5.139  -4.028  25.842  0.00  0.00    +0.051 C 
ATOM      7  C   UNL     1       6.613  -4.124  25.629  0.00  0.00    +0.030 A 
ATOM      8  C   UNL     1       7.306  -5.271  26.253  0.00  0.00    +0.257 A 
ATOM      9  O   UNL     1       6.709  -6.133  26.883  0.00  0.00    -0.267 OA
ATOM     10  N   UNL     1       8.652  -5.318  26.065  0.00  0.00    -0.275 N 
ATOM     11  H   UNL     1       9.128  -6.123  26.435  0.00  0.00    +0.173 HD
ATOM     12  C   UNL     1       9.365  -4.564  25.175  0.00  0.00    +0.331 A 
ATOM     13  O   UNL     1      10.508  -4.909  24.906  0.00  0.00    -0.246 OA
ATOM     14  N   UNL     1       8.700  -3.473  24.636  0.00  0.00    -0.271 N 
ATOM     15  C   UNL     1       7.343  -3.279  24.888  0.00  0.00    +0.102 A 
ENDBRANCH   1  14
BRANCH   2  16
ATOM     16  O   UNL     1       9.555  -1.852  21.362  0.00  0.00    -0.385 OA
ATOM     17  H   UNL     1      10.407  -2.224  21.642  0.00  0.00    +0.210 HD
ENDBRANCH   2  16
BRANCH   3  18
ATOM     18  O   UNL     1       6.777  -0.362  22.750  0.00  0.00    -0.386 OA
ATOM     19  H   UNL     1       6.618   0.514  22.355  0.00  0.00    +0.210 HD
ENDBRANCH   3  18
BRANCH   4  20
ATOM     20  C   UNL     1       9.170   0.949  24.716  0.00  0.00    +0.206 C 
BRANCH  20  21
ATOM     21  O   UNL     1       8.898   1.957  23.743  0.00  0.00    -0.284 OA
BRANCH  21  22
ATOM     22  P   UNL     1      10.302   2.919  23.435  0.00  0.00    +0.472 P 
ATOM     23  O   UNL     1      11.560   3.781  23.159  0.00  0.00    -0.228 OA
BRANCH  22  24
ATOM     24  O   UNL     1       9.254   4.149  23.164  0.00  0.00    -0.303 OA
ATOM     25  H   UNL     1       9.663   4.862  22.648  0.00  0.00    +0.222 HD
ENDBRANCH  22  24
BRANCH  22  26
ATOM     26  O   UNL     1      10.245   2.296  21.924  0.00  0.00    -0.303 OA
ATOM     27  H   UNL     1      11.085   1.894  21.649  0.00  0.00    +0.222 HD
ENDBRANCH  22  26
ENDBRANCH  21  22
ENDBRANCH  20  21
ENDBRANCH   4  20
TORSDOF 8
ENDMDL
MODEL 5
REMARK VINA RESULT:      -6.4      3.469      6.427
REMARK  Name = 
REMARK  9 active torsions:
REMARK  status: ('A' for Active; 'I' for Inactive)
REMARK    1  A    between atoms: C_1  and  C_2
REMARK    2  A    between atoms: N_4  and  C_5
REMARK    3  A    between atoms: C_8  and  C_10
REMARK    4  A    between atoms: C_10  and  O_11
REMARK    5  A    between atoms: O_11  and  P_12
REMARK    6  A    between atoms: P_12  and  O_13
REMARK    7  A    between atoms: P_12  and  O_14
REMARK    8  A    between atoms: C_16  and  O_18
REMARK    9  A    between atoms: C_19  and  O_21
REMARK                            x       y       z     vdW  Elec       q    Type
REMARK                         _______ _______ _______ _____ _____    ______ ____
ROOT
ATOM      1  C   UNL     1       9.434  -3.793  24.483  0.00  0.00    +0.255 C 
ATOM      2  C   UNL     1       9.245  -4.643  25.761  0.00  0.00    +0.195 C 
ATOM      3  C   UNL     1       7.820  -5.212  25.646  0.00  0.00    +0.178 C 
ATOM      4  C   UNL     1       7.285  -4.614  24.345  0.00  0.00    +0.178 C 
ATOM      5  O   UNL     1       8.452  -4.311  23.557  0.00  0.00    -0.346 OA
ENDROOT
BRANCH   1  14
ATOM      6  C   UNL     1       7.940   0.240  26.935  0.00  0.00    +0.051 C 
ATOM      7  C   UNL     1       8.544  -0.428  25.745  0.00  0.00    +0.030 A 
ATOM      8  C   UNL     1       9.124   0.450  24.707  0.00  0.00    +0.257 A 
ATOM      9  O   UNL     1       9.153   1.668  24.822  0.00  0.00    -0.267 OA
ATOM     10  N   UNL     1       9.644  -0.184  23.622  0.00  0.00    -0.275 N 
ATOM     11  H   UNL     1      10.093   0.398  22.935  0.00  0.00    +0.173 HD
ATOM     12  C   UNL     1       9.893  -1.525  23.520  0.00  0.00    +0.331 A 
ATOM     13  O   UNL     1      10.620  -1.912  22.615  0.00  0.00    -0.246 OA
ATOM     14  N   UNL     1       9.303  -2.326  24.486  0.00  0.00    -0.271 N 
ATOM     15  C   UNL     1       8.636  -1.753  25.566  0.00  0.00    +0.102 A 
ENDBRANCH   1  14
BRANCH   2  16
ATOM     16  O   UNL     1      10.190  -5.746  25.750  0.00  0.00    -0.385 OA
ATOM     17  H   UNL     1      10.651  -5.767  26.605  0.00  0.00    +0.210 HD
ENDBRANCH   2  16
BRANCH   3  18
ATOM     18  O   UNL     1       7.018  -4.875  26.768  0.00  0.00    -0.386 OA
ATOM     19  H   UNL     1       6.081  -4.903  26.502  0.00  0.00    +0.210 HD
ENDBRANCH   3  18
BRANCH   4  20
ATOM     20  C   UNL     1       6.408  -5.566  23.534  0.00  0.00    +0.206 C 
BRANCH  20  21
ATOM     21  O   UNL     1       5.346  -6.154  24.284  0.00  0.00    -0.284 OA
BRANCH  21  22
ATOM     22  P   UNL     1       3.827  -5.936  23.487  0.00  0.00    +0.472 P 
ATOM     23  O   UNL     1       2.466  -5.741  22.773  0.00  0.00    -0.228 OA
BRANCH  22  24
ATOM     24  O   UNL     1       3.611  -7.544  23.716  0.00  0.00    -0.303 OA
ATOM     25  H   UNL     1       4.434  -8.040  23.574  0.00  0.00    +0.222 HD
ENDBRANCH  22  24
BRANCH  22  26
ATOM     26  O   UNL     1       4.679  -6.063  22.097  0.00  0.00    -0.303 OA
ATOM     27  H   UNL     1       4.828  -6.984  21.829  0.00  0.00    +0.222 HD
ENDBRANCH  22  26
ENDBRANCH  21  22
ENDBRANCH  20  21
ENDBRANCH   4  20
TORSDOF 8
ENDMDL
MODEL 6
REMARK VINA RESULT:      -6.3      3.140      6.548
REMARK  Name = 
REMARK  9 active torsions:
REMARK  status: ('A' for Active; 'I' for Inactive)
REMARK    1  A    between atoms: C_1  and  C_2
REMARK    2  A    between atoms: N_4  and  C_5
REMARK    3  A    between atoms: C_8  and  C_10
REMARK    4  A    between atoms: C_10  and  O_11
REMARK    5  A    between atoms: O_11  and  P_12
REMARK    6  A    between atoms: P_12  and  O_13
REMARK    7  A    between atoms: P_12  and  O_14
REMARK    8  A    between atoms: C_16  and  O_18
REMARK    9  A    between atoms: C_19  and  O_21
REMARK                            x       y       z     vdW  Elec       q    Type
REMARK                         _______ _______ _______ _____ _____    ______ ____
ROOT
ATOM      1  C   UNL     1       8.402  -4.410  24.026  0.00  0.00    +0.255 C 
ATOM      2  C   UNL     1       8.976  -4.985  25.342  0.00  0.00    +0.195 C 
ATOM      3  C   UNL     1       7.741  -5.395  26.162  0.00  0.00    +0.178 C 
ATOM      4  C   UNL     1       6.559  -4.986  25.284  0.00  0.00    +0.178 C 
ATOM      5  O   UNL     1       7.072  -4.970  23.938  0.00  0.00    -0.346 OA
ENDROOT
BRANCH   1  14
ATOM      6  C   UNL     1      10.159   0.118  24.985  0.00  0.00    +0.051 C 
ATOM      7  C   UNL     1       9.200  -0.806  24.312  0.00  0.00    +0.030 A 
ATOM      8  C   UNL     1       8.290  -0.212  23.309  0.00  0.00    +0.257 A 
ATOM      9  O   UNL     1       8.336   0.972  23.004  0.00  0.00    -0.267 OA
ATOM     10  N   UNL     1       7.409  -1.072  22.731  0.00  0.00    -0.275 N 
ATOM     11  H   UNL     1       6.823  -0.693  22.006  0.00  0.00    +0.173 HD
ATOM     12  C   UNL     1       7.452  -2.436  22.808  0.00  0.00    +0.331 A 
ATOM     13  O   UNL     1       6.783  -3.083  22.013  0.00  0.00    -0.246 OA
ATOM     14  N   UNL     1       8.285  -2.962  23.783  0.00  0.00    -0.271 N 
ATOM     15  C   UNL     1       9.128  -2.128  24.515  0.00  0.00    +0.102 A 
ENDBRANCH   1  14
BRANCH   2  16
ATOM     16  O   UNL     1       9.757  -6.174  25.048  0.00  0.00    -0.385 OA
ATOM     17  H   UNL     1       9.343  -6.933  25.491  0.00  0.00    +0.210 HD
ENDBRANCH   2  16
BRANCH   3  18
ATOM     18  O   UNL     1       7.713  -4.768  27.436  0.00  0.00    -0.386 OA
ATOM     19  H   UNL     1       7.939  -5.429  28.115  0.00  0.00    +0.210 HD
ENDBRANCH   3  18
BRANCH   4  20
ATOM     20  C   UNL     1       5.384  -5.960  25.324  0.00  0.00    +0.206 C 
BRANCH  20  21
ATOM     21  O   UNL     1       4.114  -5.343  25.117  0.00  0.00    -0.284 OA
BRANCH  21  22
ATOM     22  P   UNL     1       3.359  -5.939  23.679  0.00  0.00    +0.472 P 
ATOM     23  O   UNL     1       2.684  -6.472  22.391  0.00  0.00    -0.228 OA
BRANCH  22  24
ATOM     24  O   UNL     1       4.540  -7.075  23.673  0.00  0.00    -0.303 OA
ATOM     25  H   UNL     1       5.423  -6.675  23.630  0.00  0.00    +0.222 HD
ENDBRANCH  22  24
BRANCH  22  26
ATOM     26  O   UNL     1       4.217  -4.784  22.901  0.00  0.00    -0.303 OA
ATOM     27  H   UNL     1       5.117  -4.683  23.249  0.00  0.00    +0.222 HD
ENDBRANCH  22  26
ENDBRANCH  21  22
ENDBRANCH  20  21
ENDBRANCH   4  20
TORSDOF 8
ENDMDL
MODEL 7
REMARK VINA RESULT:      -6.1      3.006      6.968
REMARK  Name = 
REMARK  9 active torsions:
REMARK  status: ('A' for Active; 'I' for Inactive)
REMARK    1  A    between atoms: C_1  and  C_2
REMARK    2  A    between atoms: N_4  and  C_5
REMARK    3  A    between atoms: C_8  and  C_10
REMARK    4  A    between atoms: C_10  and  O_11
REMARK    5  A    between atoms: O_11  and  P_12
REMARK    6  A    between atoms: P_12  and  O_13
REMARK    7  A    between atoms: P_12  and  O_14
REMARK    8  A    between atoms: C_16  and  O_18
REMARK    9  A    between atoms: C_19  and  O_21
REMARK                            x       y       z     vdW  Elec       q    Type
REMARK                         _______ _______ _______ _____ _____    ______ ____
ROOT
ATOM      1  C   UNL     1       7.754  -4.350  23.935  0.00  0.00    +0.255 C 
ATOM      2  C   UNL     1       8.883  -4.940  24.812  0.00  0.00    +0.195 C 
ATOM      3  C   UNL     1       8.187  -5.361  26.117  0.00  0.00    +0.178 C 
ATOM      4  C   UNL     1       6.731  -4.943  25.913  0.00  0.00    +0.178 C 
ATOM      5  O   UNL     1       6.540  -4.910  24.486  0.00  0.00    -0.346 OA
ENDROOT
BRANCH   1  14
ATOM      6  C   UNL     1       9.407   0.207  24.945  0.00  0.00    +0.051 C 
ATOM      7  C   UNL     1       8.416  -0.729  24.337  0.00  0.00    +0.030 A 
ATOM      8  C   UNL     1       7.366  -0.131  23.485  0.00  0.00    +0.257 A 
ATOM      9  O   UNL     1       7.321   1.068  23.247  0.00  0.00    -0.267 OA
ATOM     10  N   UNL     1       6.462  -1.004  22.965  0.00  0.00    -0.275 N 
ATOM     11  H   UNL     1       5.777  -0.618  22.338  0.00  0.00    +0.173 HD
ATOM     12  C   UNL     1       6.576  -2.366  22.956  0.00  0.00    +0.331 A 
ATOM     13  O   UNL     1       5.846  -3.004  22.209  0.00  0.00    -0.246 OA
ATOM     14  N   UNL     1       7.543  -2.899  23.794  0.00  0.00    -0.271 N 
ATOM     15  C   UNL     1       8.430  -2.063  24.469  0.00  0.00    +0.102 A 
ENDBRANCH   1  14
BRANCH   2  16
ATOM     16  O   UNL     1       9.423  -6.125  24.167  0.00  0.00    -0.385 OA
ATOM     17  H   UNL     1       8.790  -6.427  23.495  0.00  0.00    +0.210 HD
ENDBRANCH   2  16
BRANCH   3  18
ATOM     18  O   UNL     1       8.773  -4.750  27.257  0.00  0.00    -0.386 OA
ATOM     19  H   UNL     1       8.295  -5.049  28.052  0.00  0.00    +0.210 HD
ENDBRANCH   3  18
BRANCH   4  20
ATOM     20  C   UNL     1       5.713  -5.918  26.498  0.00  0.00    +0.206 C 
BRANCH  20  21
ATOM     21  O   UNL     1       4.861  -5.340  27.487  0.00  0.00    -0.284 OA
BRANCH  21  22
ATOM     22  P   UNL     1       4.922  -6.240  28.963  0.00  0.00    +0.472 P 
ATOM     23  O   UNL     1       4.976  -7.046  30.285  0.00  0.00    -0.228 OA
BRANCH  22  24
ATOM     24  O   UNL     1       6.387  -5.543  29.188  0.00  0.00    -0.303 OA
ATOM     25  H   UNL     1       6.319  -4.719  29.697  0.00  0.00    +0.222 HD
ENDBRANCH  22  24
BRANCH  22  26
ATOM     26  O   UNL     1       5.452  -7.481  28.039  0.00  0.00    -0.303 OA
ATOM     27  H   UNL     1       5.489  -7.260  27.095  0.00  0.00    +0.222 HD
ENDBRANCH  22  26
ENDBRANCH  21  22
ENDBRANCH  20  21
ENDBRANCH   4  20
TORSDOF 8
ENDMDL
MODEL 8
REMARK VINA RESULT:      -6.0      3.185      6.689
REMARK  Name = 
REMARK  9 active torsions:
REMARK  status: ('A' for Active; 'I' for Inactive)
REMARK    1  A    between atoms: C_1  and  C_2
REMARK    2  A    between atoms: N_4  and  C_5
REMARK    3  A    between atoms: C_8  and  C_10
REMARK    4  A    between atoms: C_10  and  O_11
REMARK    5  A    between atoms: O_11  and  P_12
REMARK    6  A    between atoms: P_12  and  O_13
REMARK    7  A    between atoms: P_12  and  O_14
REMARK    8  A    between atoms: C_16  and  O_18
REMARK    9  A    between atoms: C_19  and  O_21
REMARK                            x       y       z     vdW  Elec       q    Type
REMARK                         _______ _______ _______ _____ _____    ______ ____
ROOT
ATOM      1  C   UNL     1       7.484  -3.120  24.182  0.00  0.00    +0.255 C 
ATOM      2  C   UNL     1       7.986  -4.463  23.602  0.00  0.00    +0.195 C 
ATOM      3  C   UNL     1       8.377  -5.299  24.832  0.00  0.00    +0.178 C 
ATOM      4  C   UNL     1       8.118  -4.365  26.014  0.00  0.00    +0.178 C 
ATOM      5  O   UNL     1       7.129  -3.428  25.549  0.00  0.00    -0.346 OA
ENDROOT
BRANCH   1  14
ATOM      6  C   UNL     1       7.856   1.656  25.434  0.00  0.00    +0.051 C 
ATOM      7  C   UNL     1       8.412   0.403  24.844  0.00  0.00    +0.030 A 
ATOM      8  C   UNL     1       9.843   0.417  24.469  0.00  0.00    +0.257 A 
ATOM      9  O   UNL     1      10.561   1.388  24.665  0.00  0.00    -0.267 OA
ATOM     10  N   UNL     1      10.315  -0.729  23.910  0.00  0.00    -0.275 N 
ATOM     11  H   UNL     1      11.300  -0.753  23.703  0.00  0.00    +0.173 HD
ATOM     12  C   UNL     1       9.674  -1.936  23.890  0.00  0.00    +0.331 A 
ATOM     13  O   UNL     1      10.327  -2.935  23.619  0.00  0.00    -0.246 OA
ATOM     14  N   UNL     1       8.325  -1.910  24.209  0.00  0.00    -0.271 N 
ATOM     15  C   UNL     1       7.730  -0.737  24.667  0.00  0.00    +0.102 A 
ENDBRANCH   1  14
BRANCH   2  16
ATOM     16  O   UNL     1       6.893  -5.128  22.915  0.00  0.00    -0.385 OA
ATOM     17  H   UNL     1       7.052  -5.077  21.958  0.00  0.00    +0.210 HD
ENDBRANCH   2  16
BRANCH   3  18
ATOM     18  O   UNL     1       9.727  -5.738  24.773  0.00  0.00    -0.386 OA
ATOM     19  H   UNL     1      10.181  -5.462  25.589  0.00  0.00    +0.210 HD
ENDBRANCH   3  18
BRANCH   4  20
ATOM     20  C   UNL     1       7.556  -5.063  27.250  0.00  0.00    +0.206 C 
BRANCH  20  21
ATOM     21  O   UNL     1       6.664  -6.136  26.952  0.00  0.00    -0.284 OA
BRANCH  21  22
ATOM     22  P   UNL     1       5.254  -6.070  27.953  0.00  0.00    +0.472 P 
ATOM     23  O   UNL     1       3.992  -6.011  28.850  0.00  0.00    -0.228 OA
BRANCH  22  24
ATOM     24  O   UNL     1       6.229  -5.378  29.074  0.00  0.00    -0.303 OA
ATOM     25  H   UNL     1       6.416  -5.983  29.810  0.00  0.00    +0.222 HD
ENDBRANCH  22  24
BRANCH  22  26
ATOM     26  O   UNL     1       5.608  -7.620  28.338  0.00  0.00    -0.303 OA
ATOM     27  H   UNL     1       4.867  -8.226  28.181  0.00  0.00    +0.222 HD
ENDBRANCH  22  26
ENDBRANCH  21  22
ENDBRANCH  20  21
ENDBRANCH   4  20
TORSDOF 8
ENDMDL
MODEL 9
REMARK VINA RESULT:      -6.0      2.685      6.127
REMARK  Name = 
REMARK  9 active torsions:
REMARK  status: ('A' for Active; 'I' for Inactive)
REMARK    1  A    between atoms: C_1  and  C_2
REMARK    2  A    between atoms: N_4  and  C_5
REMARK    3  A    between atoms: C_8  and  C_10
REMARK    4  A    between atoms: C_10  and  O_11
REMARK    5  A    between atoms: O_11  and  P_12
REMARK    6  A    between atoms: P_12  and  O_13
REMARK    7  A    between atoms: P_12  and  O_14
REMARK    8  A    between atoms: C_16  and  O_18
REMARK    9  A    between atoms: C_19  and  O_21
REMARK                            x       y       z     vdW  Elec       q    Type
REMARK                         _______ _______ _______ _____ _____    ______ ____
ROOT
ATOM      1  C   UNL     1       5.999  -3.147  22.581  0.00  0.00    +0.255 C 
ATOM      2  C   UNL     1       6.694  -4.312  21.836  0.00  0.00    +0.195 C 
ATOM      3  C   UNL     1       6.864  -5.410  22.898  0.00  0.00    +0.178 C 
ATOM      4  C   UNL     1       6.302  -4.785  24.175  0.00  0.00    +0.178 C 
ATOM      5  O   UNL     1       5.379  -3.773  23.728  0.00  0.00    -0.346 OA
ENDROOT
BRANCH   1  14
ATOM      6  C   UNL     1       9.817  -0.068  21.907  0.00  0.00    +0.051 C 
ATOM      7  C   UNL     1       8.619  -0.533  22.666  0.00  0.00    +0.030 A 
ATOM      8  C   UNL     1       8.156   0.326  23.777  0.00  0.00    +0.257 A 
ATOM      9  O   UNL     1       8.693   1.392  24.048  0.00  0.00    -0.267 OA
ATOM     10  N   UNL     1       7.078  -0.134  24.467  0.00  0.00    -0.275 N 
ATOM     11  H   UNL     1       6.718   0.468  25.188  0.00  0.00    +0.173 HD
ATOM     12  C   UNL     1       6.260  -1.161  24.086  0.00  0.00    +0.331 A 
ATOM     13  O   UNL     1       5.176  -1.276  24.643  0.00  0.00    -0.246 OA
ATOM     14  N   UNL     1       6.739  -1.971  23.068  0.00  0.00    -0.271 N 
ATOM     15  C   UNL     1       7.912  -1.638  22.394  0.00  0.00    +0.102 A 
ENDBRANCH   1  14
BRANCH   2  16
ATOM     16  O   UNL     1       5.815  -4.806  20.790  0.00  0.00    -0.385 OA
ATOM     17  H   UNL     1       6.354  -5.268  20.126  0.00  0.00    +0.210 HD
ENDBRANCH   2  16
BRANCH   3  18
ATOM     18  O   UNL     1       8.220  -5.810  23.041  0.00  0.00    -0.386 OA
ATOM     19  H   UNL     1       8.242  -6.719  23.393  0.00  0.00    +0.210 HD
ENDBRANCH   3  18
BRANCH   4  20
ATOM     20  C   UNL     1       5.533  -5.759  25.062  0.00  0.00    +0.206 C 
BRANCH  20  21
ATOM     21  O   UNL     1       6.248  -6.167  26.228  0.00  0.00    -0.284 OA
BRANCH  21  22
ATOM     22  P   UNL     1       7.436  -4.991  26.672  0.00  0.00    +0.472 P 
ATOM     23  O   UNL     1       8.500  -3.938  27.070  0.00  0.00    -0.228 OA
BRANCH  22  24
ATOM     24  O   UNL     1       8.542  -6.114  26.225  0.00  0.00    -0.303 OA
ATOM     25  H   UNL     1       9.234  -6.224  26.897  0.00  0.00    +0.222 HD
ENDBRANCH  22  24
BRANCH  22  26
ATOM     26  O   UNL     1       7.228  -5.539  28.199  0.00  0.00    -0.303 OA
ATOM     27  H   UNL     1       7.947  -5.278  28.795  0.00  0.00    +0.222 HD
ENDBRANCH  22  26
ENDBRANCH  21  22
ENDBRANCH  20  21
ENDBRANCH   4  20
TORSDOF 8
ENDMDL
