MODEL 1
REMARK VINA RESULT:      -5.3      0.000      0.000
REMARK  Name = 
REMARK  11 active torsions:
REMARK  status: ('A' for Active; 'I' for Inactive)
REMARK    1  A    between atoms: N_1  and  C_2
REMARK    2  A    between atoms: C_2  and  C_4
REMARK    3  A    between atoms: C_2  and  C_16
REMARK    4  A    between atoms: C_4  and  C_5
REMARK    5  A    between atoms: C_5  and  C_6
REMARK    6  A    between atoms: N_8  and  C_9
REMARK    7  A    between atoms: C_9  and  C_11
REMARK    8  A    between atoms: C_9  and  C_13
REMARK    9  A    between atoms: C_11  and  S_12
REMARK   10  A    between atoms: C_13  and  O_14
REMARK   11  A    between atoms: C_16  and  O_17
REMARK                            x       y       z     vdW  Elec       q    Type
REMARK                         _______ _______ _______ _____ _____    ______ ____
ROOT
ATOM      1  C   UNK     1       9.432  -2.466  24.159  0.00  0.00    +0.214 C 
ATOM      2  N   UNK     1       8.362  -3.281  24.404  0.00  0.00    -0.302 N 
ATOM      3  H   UNK     1       7.519  -2.903  24.835  0.00  0.00    +0.150 HD
ATOM      4  O   UNK     1      10.465  -2.861  23.629  0.00  0.00    -0.276 OA
ENDROOT
BRANCH   1   5
ATOM      5  C   UNK     1       9.234  -1.025  24.584  0.00  0.00    +0.098 C 
BRANCH   5   6
ATOM      6  C   UNK     1       9.794  -0.056  23.544  0.00  0.00    +0.039 C 
BRANCH   6   7
ATOM      7  C   UNK     1       9.025  -0.070  22.218  0.00  0.00    +0.161 C 
BRANCH   7   8
ATOM      8  N   UNK     1       9.727  -0.861  21.165  0.00  0.00    -0.318 NA
ATOM      9  H   UNK     1       9.491  -0.470  20.245  0.00  0.00    +0.119 HD
ATOM     10  H   UNK     1      10.733  -0.691  21.257  0.00  0.00    +0.119 HD
ENDBRANCH   7   8
BRANCH   7  11
ATOM     11  C   UNK     1       8.847   1.372  21.702  0.00  0.00    +0.322 C 
ATOM     12  O   UNK     1       7.777   1.904  21.450  0.00  0.00    -0.249 OA
BRANCH  11  13
ATOM     13  O   UNK     1      10.047   1.994  21.554  0.00  0.00    -0.480 OA
ATOM     14  H   UNK     1      10.289   2.318  22.458  0.00  0.00    +0.295 HD
ENDBRANCH  11  13
ENDBRANCH   7  11
ENDBRANCH   6   7
ENDBRANCH   5   6
ENDBRANCH   1   5
BRANCH   2  15
ATOM     15  C   UNK     1       8.339  -4.716  24.088  0.00  0.00    +0.191 C 
BRANCH  15  16
ATOM     16  C   UNK     1       8.872  -5.403  25.348  0.00  0.00    +0.326 C 
ATOM     17  O   UNK     1       8.150  -5.740  26.281  0.00  0.00    -0.249 OA
BRANCH  16  18
ATOM     18  O   UNK     1      10.212  -5.590  25.378  0.00  0.00    -0.479 OA
ATOM     19  H   UNK     1      10.722  -4.963  24.829  0.00  0.00    +0.295 HD
ENDBRANCH  16  18
ENDBRANCH  15  16
BRANCH  15  20
ATOM     20  C   UNK     1       6.931  -5.203  23.731  0.00  0.00    +0.099 C 
BRANCH  20  21
ATOM     21  S   UNK     1       6.706  -5.503  21.944  0.00  0.00    -0.176 S 
ATOM     22  H   UNK     1       5.379  -5.311  21.905  0.00  0.00    +0.102 HD
ENDBRANCH  20  21
ENDBRANCH  15  20
ENDBRANCH   2  15
TORSDOF 11
ENDMDL
MODEL 2
REMARK VINA RESULT:      -5.3      2.627      6.587
REMARK  Name = 
REMARK  11 active torsions:
REMARK  status: ('A' for Active; 'I' for Inactive)
REMARK    1  A    between atoms: N_1  and  C_2
REMARK    2  A    between atoms: C_2  and  C_4
REMARK    3  A    between atoms: C_2  and  C_16
REMARK    4  A    between atoms: C_4  and  C_5
REMARK    5  A    between atoms: C_5  and  C_6
REMARK    6  A    between atoms: N_8  and  C_9
REMARK    7  A    between atoms: C_9  and  C_11
REMARK    8  A    between atoms: C_9  and  C_13
REMARK    9  A    between atoms: C_11  and  S_12
REMARK   10  A    between atoms: C_13  and  O_14
REMARK   11  A    between atoms: C_16  and  O_17
REMARK                            x       y       z     vdW  Elec       q    Type
REMARK                         _______ _______ _______ _____ _____    ______ ____
ROOT
ATOM      1  C   UNK     1       9.379  -1.980  23.488  0.00  0.00    +0.214 C 
ATOM      2  N   UNK     1       9.208  -0.626  23.578  0.00  0.00    -0.302 N 
ATOM      3  H   UNK     1       8.321  -0.242  23.901  0.00  0.00    +0.150 HD
ATOM      4  O   UNK     1      10.428  -2.498  23.121  0.00  0.00    -0.276 OA
ENDROOT
BRANCH   1   5
ATOM      5  C   UNK     1       8.167  -2.794  23.894  0.00  0.00    +0.098 C 
BRANCH   5   6
ATOM      6  C   UNK     1       8.507  -4.279  24.010  0.00  0.00    +0.039 C 
BRANCH   6   7
ATOM      7  C   UNK     1       8.939  -4.699  25.419  0.00  0.00    +0.161 C 
BRANCH   7   8
ATOM      8  N   UNK     1      10.091  -5.648  25.398  0.00  0.00    -0.318 NA
ATOM      9  H   UNK     1       9.794  -6.540  25.810  0.00  0.00    +0.119 HD
ATOM     10  H   UNK     1      10.294  -5.881  24.420  0.00  0.00    +0.119 HD
ENDBRANCH   7   8
BRANCH   7  11
ATOM     11  C   UNK     1       7.763  -5.383  26.144  0.00  0.00    +0.322 C 
ATOM     12  O   UNK     1       6.650  -5.558  25.673  0.00  0.00    -0.249 OA
BRANCH  11  13
ATOM     13  O   UNK     1       8.116  -5.772  27.397  0.00  0.00    -0.480 OA
ATOM     14  H   UNK     1       9.072  -5.530  27.489  0.00  0.00    +0.295 HD
ENDBRANCH  11  13
ENDBRANCH   7  11
ENDBRANCH   6   7
ENDBRANCH   5   6
ENDBRANCH   1   5
BRANCH   2  15
ATOM     15  C   UNK     1      10.245   0.353  23.222  0.00  0.00    +0.191 C 
BRANCH  15  16
ATOM     16  C   UNK     1       9.825   0.886  21.850  0.00  0.00    +0.326 C 
ATOM     17  O   UNK     1       9.186   0.220  21.041  0.00  0.00    -0.249 OA
BRANCH  16  18
ATOM     18  O   UNK     1      10.236   2.145  21.572  0.00  0.00    -0.479 OA
ATOM     19  H   UNK     1      10.966   2.201  20.926  0.00  0.00    +0.295 HD
ENDBRANCH  16  18
ENDBRANCH  15  16
BRANCH  15  20
ATOM     20  C   UNK     1      10.352   1.478  24.257  0.00  0.00    +0.099 C 
BRANCH  20  21
ATOM     21  S   UNK     1       8.727   2.118  24.792  0.00  0.00    -0.176 S 
ATOM     22  H   UNK     1       8.002   1.041  24.458  0.00  0.00    +0.102 HD
ENDBRANCH  20  21
ENDBRANCH  15  20
ENDBRANCH   2  15
TORSDOF 11
ENDMDL
MODEL 3
REMARK VINA RESULT:      -5.3      1.292      1.385
REMARK  Name = 
REMARK  11 active torsions:
REMARK  status: ('A' for Active; 'I' for Inactive)
REMARK    1  A    between atoms: N_1  and  C_2
REMARK    2  A    between atoms: C_2  and  C_4
REMARK    3  A    between atoms: C_2  and  C_16
REMARK    4  A    between atoms: C_4  and  C_5
REMARK    5  A    between atoms: C_5  and  C_6
REMARK    6  A    between atoms: N_8  and  C_9
REMARK    7  A    between atoms: C_9  and  C_11
REMARK    8  A    between atoms: C_9  and  C_13
REMARK    9  A    between atoms: C_11  and  S_12
REMARK   10  A    between atoms: C_13  and  O_14
REMARK   11  A    between atoms: C_16  and  O_17
REMARK                            x       y       z     vdW  Elec       q    Type
REMARK                         _______ _______ _______ _____ _____    ______ ____
ROOT
ATOM      1  C   UNK     1       9.414  -2.368  24.247  0.00  0.00    +0.214 C 
ATOM      2  N   UNK     1       8.409  -3.242  24.557  0.00  0.00    -0.302 N 
ATOM      3  H   UNK     1       7.616  -2.933  25.119  0.00  0.00    +0.150 HD
ATOM      4  O   UNK     1      10.383  -2.680  23.563  0.00  0.00    -0.276 OA
ENDROOT
BRANCH   1   5
ATOM      5  C   UNK     1       9.227  -0.973  24.807  0.00  0.00    +0.098 C 
BRANCH   5   6
ATOM      6  C   UNK     1      10.348  -0.037  24.356  0.00  0.00    +0.039 C 
BRANCH   6   7
ATOM      7  C   UNK     1       9.842   1.236  23.668  0.00  0.00    +0.161 C 
BRANCH   7   8
ATOM      8  N   UNK     1       8.420   1.536  24.009  0.00  0.00    -0.318 NA
ATOM      9  H   UNK     1       7.905   1.727  23.143  0.00  0.00    +0.119 HD
ATOM     10  H   UNK     1       7.992   0.678  24.371  0.00  0.00    +0.119 HD
ENDBRANCH   7   8
BRANCH   7  11
ATOM     11  C   UNK     1       9.950   1.081  22.139  0.00  0.00    +0.322 C 
ATOM     12  O   UNK     1       9.831   0.032  21.526  0.00  0.00    -0.249 OA
BRANCH  11  13
ATOM     13  O   UNK     1      10.204   2.274  21.539  0.00  0.00    -0.480 OA
ATOM     14  H   UNK     1      11.137   2.212  21.212  0.00  0.00    +0.295 HD
ENDBRANCH  11  13
ENDBRANCH   7  11
ENDBRANCH   6   7
ENDBRANCH   5   6
ENDBRANCH   1   5
BRANCH   2  15
ATOM     15  C   UNK     1       8.391  -4.649  24.132  0.00  0.00    +0.191 C 
BRANCH  15  16
ATOM     16  C   UNK     1       8.881  -5.433  25.352  0.00  0.00    +0.326 C 
ATOM     17  O   UNK     1       8.147  -5.752  26.281  0.00  0.00    -0.249 OA
BRANCH  16  18
ATOM     18  O   UNK     1      10.201  -5.729  25.351  0.00  0.00    -0.479 OA
ATOM     19  H   UNK     1      10.469  -6.393  24.686  0.00  0.00    +0.295 HD
ENDBRANCH  16  18
ENDBRANCH  15  16
BRANCH  15  20
ATOM     20  C   UNK     1       6.992  -5.099  23.696  0.00  0.00    +0.099 C 
BRANCH  20  21
ATOM     21  S   UNK     1       6.966  -5.855  22.034  0.00  0.00    -0.176 S 
ATOM     22  H   UNK     1       7.959  -6.734  22.232  0.00  0.00    +0.102 HD
ENDBRANCH  20  21
ENDBRANCH  15  20
ENDBRANCH   2  15
TORSDOF 11
ENDMDL
MODEL 4
REMARK VINA RESULT:      -5.2      3.038      5.402
REMARK  Name = 
REMARK  11 active torsions:
REMARK  status: ('A' for Active; 'I' for Inactive)
REMARK    1  A    between atoms: N_1  and  C_2
REMARK    2  A    between atoms: C_2  and  C_4
REMARK    3  A    between atoms: C_2  and  C_16
REMARK    4  A    between atoms: C_4  and  C_5
REMARK    5  A    between atoms: C_5  and  C_6
REMARK    6  A    between atoms: N_8  and  C_9
REMARK    7  A    between atoms: C_9  and  C_11
REMARK    8  A    between atoms: C_9  and  C_13
REMARK    9  A    between atoms: C_11  and  S_12
REMARK   10  A    between atoms: C_13  and  O_14
REMARK   11  A    between atoms: C_16  and  O_17
REMARK                            x       y       z     vdW  Elec       q    Type
REMARK                         _______ _______ _______ _____ _____    ______ ____
ROOT
ATOM      1  C   UNK     1       8.432  -2.971  23.136  0.00  0.00    +0.214 C 
ATOM      2  N   UNK     1       7.479  -3.949  23.190  0.00  0.00    -0.302 N 
ATOM      3  H   UNK     1       7.514  -4.659  23.921  0.00  0.00    +0.150 HD
ATOM      4  O   UNK     1       8.431  -2.084  22.288  0.00  0.00    -0.276 OA
ENDROOT
BRANCH   1   5
ATOM      5  C   UNK     1       9.487  -3.061  24.219  0.00  0.00    +0.098 C 
BRANCH   5   6
ATOM      6  C   UNK     1       8.858  -3.303  25.590  0.00  0.00    +0.039 C 
BRANCH   6   7
ATOM      7  C   UNK     1       9.133  -4.703  26.151  0.00  0.00    +0.161 C 
BRANCH   7   8
ATOM      8  N   UNK     1       9.942  -5.538  25.215  0.00  0.00    -0.318 NA
ATOM      9  H   UNK     1      10.303  -6.353  25.726  0.00  0.00    +0.119 HD
ATOM     10  H   UNK     1       9.307  -5.942  24.519  0.00  0.00    +0.119 HD
ENDBRANCH   7   8
BRANCH   7  11
ATOM     11  C   UNK     1       7.800  -5.429  26.419  0.00  0.00    +0.322 C 
ATOM     12  O   UNK     1       6.894  -5.561  25.611  0.00  0.00    -0.249 OA
BRANCH  11  13
ATOM     13  O   UNK     1       7.749  -5.911  27.689  0.00  0.00    -0.480 OA
ATOM     14  H   UNK     1       8.009  -5.153  28.270  0.00  0.00    +0.295 HD
ENDBRANCH  11  13
ENDBRANCH   7  11
ENDBRANCH   6   7
ENDBRANCH   5   6
ENDBRANCH   1   5
BRANCH   2  15
ATOM     15  C   UNK     1       6.371  -4.064  22.231  0.00  0.00    +0.191 C 
BRANCH  15  16
ATOM     16  C   UNK     1       6.570  -5.426  21.562  0.00  0.00    +0.326 C 
ATOM     17  O   UNK     1       7.260  -6.316  22.050  0.00  0.00    -0.249 OA
BRANCH  16  18
ATOM     18  O   UNK     1       5.954  -5.575  20.367  0.00  0.00    -0.479 OA
ATOM     19  H   UNK     1       6.126  -6.429  19.925  0.00  0.00    +0.295 HD
ENDBRANCH  16  18
ENDBRANCH  15  16
BRANCH  15  20
ATOM     20  C   UNK     1       5.004  -3.968  22.919  0.00  0.00    +0.099 C 
BRANCH  20  21
ATOM     21  S   UNK     1       5.010  -2.866  24.376  0.00  0.00    -0.176 S 
ATOM     22  H   UNK     1       5.237  -1.719  23.720  0.00  0.00    +0.102 HD
ENDBRANCH  20  21
ENDBRANCH  15  20
ENDBRANCH   2  15
TORSDOF 11
ENDMDL
MODEL 5
REMARK VINA RESULT:      -5.0      4.055      5.997
REMARK  Name = 
REMARK  11 active torsions:
REMARK  status: ('A' for Active; 'I' for Inactive)
REMARK    1  A    between atoms: N_1  and  C_2
REMARK    2  A    between atoms: C_2  and  C_4
REMARK    3  A    between atoms: C_2  and  C_16
REMARK    4  A    between atoms: C_4  and  C_5
REMARK    5  A    between atoms: C_5  and  C_6
REMARK    6  A    between atoms: N_8  and  C_9
REMARK    7  A    between atoms: C_9  and  C_11
REMARK    8  A    between atoms: C_9  and  C_13
REMARK    9  A    between atoms: C_11  and  S_12
REMARK   10  A    between atoms: C_13  and  O_14
REMARK   11  A    between atoms: C_16  and  O_17
REMARK                            x       y       z     vdW  Elec       q    Type
REMARK                         _______ _______ _______ _____ _____    ______ ____
ROOT
ATOM      1  C   UNK     1       6.762  -5.619  26.839  0.00  0.00    +0.214 C 
ATOM      2  N   UNK     1       7.345  -4.671  26.044  0.00  0.00    -0.302 N 
ATOM      3  H   UNK     1       6.906  -4.399  25.165  0.00  0.00    +0.150 HD
ATOM      4  O   UNK     1       7.237  -5.973  27.912  0.00  0.00    -0.276 OA
ENDROOT
BRANCH   1   5
ATOM      5  C   UNK     1       5.471  -6.191  26.289  0.00  0.00    +0.098 C 
BRANCH   5   6
ATOM      6  C   UNK     1       4.880  -5.291  25.206  0.00  0.00    +0.039 C 
BRANCH   6   7
ATOM      7  C   UNK     1       4.606  -6.021  23.886  0.00  0.00    +0.161 C 
BRANCH   7   8
ATOM      8  N   UNK     1       4.364  -7.480  24.087  0.00  0.00    -0.318 NA
ATOM      9  H   UNK     1       4.935  -7.806  24.874  0.00  0.00    +0.119 HD
ATOM     10  H   UNK     1       3.399  -7.600  24.412  0.00  0.00    +0.119 HD
ENDBRANCH   7   8
BRANCH   7  11
ATOM     11  C   UNK     1       5.811  -5.856  22.939  0.00  0.00    +0.322 C 
ATOM     12  O   UNK     1       6.832  -5.237  23.197  0.00  0.00    -0.249 OA
BRANCH  11  13
ATOM     13  O   UNK     1       5.598  -6.491  21.756  0.00  0.00    -0.480 OA
ATOM     14  H   UNK     1       6.139  -7.320  21.800  0.00  0.00    +0.295 HD
ENDBRANCH  11  13
ENDBRANCH   7  11
ENDBRANCH   6   7
ENDBRANCH   5   6
ENDBRANCH   1   5
BRANCH   2  15
ATOM     15  C   UNK     1       8.607  -3.994  26.373  0.00  0.00    +0.191 C 
BRANCH  15  16
ATOM     16  C   UNK     1       9.619  -4.541  25.363  0.00  0.00    +0.326 C 
ATOM     17  O   UNK     1       9.969  -3.920  24.364  0.00  0.00    -0.249 OA
BRANCH  16  18
ATOM     18  O   UNK     1      10.086  -5.782  25.632  0.00  0.00    -0.479 OA
ATOM     19  H   UNK     1      10.489  -5.882  26.515  0.00  0.00    +0.295 HD
ENDBRANCH  16  18
ENDBRANCH  15  16
BRANCH  15  20
ATOM     20  C   UNK     1       8.483  -2.469  26.278  0.00  0.00    +0.099 C 
BRANCH  20  21
ATOM     21  S   UNK     1       6.864  -1.919  25.637  0.00  0.00    -0.176 S 
ATOM     22  H   UNK     1       6.423  -1.339  26.763  0.00  0.00    +0.102 HD
ENDBRANCH  20  21
ENDBRANCH  15  20
ENDBRANCH   2  15
TORSDOF 11
ENDMDL
MODEL 6
REMARK VINA RESULT:      -4.9      3.196      5.162
REMARK  Name = 
REMARK  11 active torsions:
REMARK  status: ('A' for Active; 'I' for Inactive)
REMARK    1  A    between atoms: N_1  and  C_2
REMARK    2  A    between atoms: C_2  and  C_4
REMARK    3  A    between atoms: C_2  and  C_16
REMARK    4  A    between atoms: C_4  and  C_5
REMARK    5  A    between atoms: C_5  and  C_6
REMARK    6  A    between atoms: N_8  and  C_9
REMARK    7  A    between atoms: C_9  and  C_11
REMARK    8  A    between atoms: C_9  and  C_13
REMARK    9  A    between atoms: C_11  and  S_12
REMARK   10  A    between atoms: C_13  and  O_14
REMARK   11  A    between atoms: C_16  and  O_17
REMARK                            x       y       z     vdW  Elec       q    Type
REMARK                         _______ _______ _______ _____ _____    ______ ____
ROOT
ATOM      1  C   UNK     1       8.759  -4.082  24.605  0.00  0.00    +0.214 C 
ATOM      2  N   UNK     1       8.533  -2.757  24.356  0.00  0.00    -0.302 N 
ATOM      3  H   UNK     1       7.583  -2.388  24.373  0.00  0.00    +0.150 HD
ATOM      4  O   UNK     1       9.881  -4.578  24.612  0.00  0.00    -0.276 OA
ENDROOT
BRANCH   1   5
ATOM      5  C   UNK     1       7.509  -4.891  24.886  0.00  0.00    +0.098 C 
BRANCH   5   6
ATOM      6  C   UNK     1       6.247  -4.056  24.673  0.00  0.00    +0.039 C 
BRANCH   6   7
ATOM      7  C   UNK     1       5.445  -4.465  23.433  0.00  0.00    +0.161 C 
BRANCH   7   8
ATOM      8  N   UNK     1       5.884  -5.782  22.885  0.00  0.00    -0.318 NA
ATOM      9  H   UNK     1       6.756  -5.649  22.361  0.00  0.00    +0.119 HD
ATOM     10  H   UNK     1       6.155  -6.380  23.672  0.00  0.00    +0.119 HD
ENDBRANCH   7   8
BRANCH   7  11
ATOM     11  C   UNK     1       5.611  -3.402  22.330  0.00  0.00    +0.322 C 
ATOM     12  O   UNK     1       5.553  -3.617  21.129  0.00  0.00    -0.249 OA
BRANCH  11  13
ATOM     13  O   UNK     1       5.839  -2.172  22.861  0.00  0.00    -0.480 OA
ATOM     14  H   UNK     1       6.708  -1.880  22.486  0.00  0.00    +0.295 HD
ENDBRANCH  11  13
ENDBRANCH   7  11
ENDBRANCH   6   7
ENDBRANCH   5   6
ENDBRANCH   1   5
BRANCH   2  15
ATOM     15  C   UNK     1       9.596  -1.791  24.045  0.00  0.00    +0.191 C 
BRANCH  15  16
ATOM     16  C   UNK     1       9.554  -1.639  22.523  0.00  0.00    +0.326 C 
ATOM     17  O   UNK     1       8.512  -1.476  21.895  0.00  0.00    -0.249 OA
BRANCH  16  18
ATOM     18  O   UNK     1      10.754  -1.727  21.903  0.00  0.00    -0.479 OA
ATOM     19  H   UNK     1      10.734  -2.188  21.043  0.00  0.00    +0.295 HD
ENDBRANCH  16  18
ENDBRANCH  15  16
BRANCH  15  20
ATOM     20  C   UNK     1       9.379  -0.450  24.753  0.00  0.00    +0.099 C 
BRANCH  20  21
ATOM     21  S   UNK     1      10.786   0.699  24.564  0.00  0.00    -0.176 S 
ATOM     22  H   UNK     1      10.514   1.095  23.312  0.00  0.00    +0.102 HD
ENDBRANCH  20  21
ENDBRANCH  15  20
ENDBRANCH   2  15
TORSDOF 11
ENDMDL
MODEL 7
REMARK VINA RESULT:      -4.9      2.599      3.084
REMARK  Name = 
REMARK  11 active torsions:
REMARK  status: ('A' for Active; 'I' for Inactive)
REMARK    1  A    between atoms: N_1  and  C_2
REMARK    2  A    between atoms: C_2  and  C_4
REMARK    3  A    between atoms: C_2  and  C_16
REMARK    4  A    between atoms: C_4  and  C_5
REMARK    5  A    between atoms: C_5  and  C_6
REMARK    6  A    between atoms: N_8  and  C_9
REMARK    7  A    between atoms: C_9  and  C_11
REMARK    8  A    between atoms: C_9  and  C_13
REMARK    9  A    between atoms: C_11  and  S_12
REMARK   10  A    between atoms: C_13  and  O_14
REMARK   11  A    between atoms: C_16  and  O_17
REMARK                            x       y       z     vdW  Elec       q    Type
REMARK                         _______ _______ _______ _____ _____    ______ ____
ROOT
ATOM      1  C   UNK     1       9.375  -0.538  25.092  0.00  0.00    +0.214 C 
ATOM      2  N   UNK     1       9.253  -1.487  24.115  0.00  0.00    -0.302 N 
ATOM      3  H   UNK     1       9.693  -1.345  23.206  0.00  0.00    +0.150 HD
ATOM      4  O   UNK     1       8.880  -0.662  26.207  0.00  0.00    -0.276 OA
ENDROOT
BRANCH   1   5
ATOM      5  C   UNK     1      10.184   0.678  24.690  0.00  0.00    +0.098 C 
BRANCH   5   6
ATOM      6  C   UNK     1       9.284   1.883  24.423  0.00  0.00    +0.039 C 
BRANCH   6   7
ATOM      7  C   UNK     1       8.636   1.866  23.034  0.00  0.00    +0.161 C 
BRANCH   7   8
ATOM      8  N   UNK     1       7.460   0.950  22.969  0.00  0.00    -0.318 NA
ATOM      9  H   UNK     1       7.662   0.111  23.524  0.00  0.00    +0.119 HD
ATOM     10  H   UNK     1       6.682   1.396  23.466  0.00  0.00    +0.119 HD
ENDBRANCH   7   8
BRANCH   7  11
ATOM     11  C   UNK     1       9.666   1.406  21.983  0.00  0.00    +0.322 C 
ATOM     12  O   UNK     1       9.773   0.269  21.551  0.00  0.00    -0.249 OA
BRANCH  11  13
ATOM     13  O   UNK     1      10.460   2.436  21.587  0.00  0.00    -0.480 OA
ATOM     14  H   UNK     1      10.386   3.116  22.304  0.00  0.00    +0.295 HD
ENDBRANCH  11  13
ENDBRANCH   7  11
ENDBRANCH   6   7
ENDBRANCH   5   6
ENDBRANCH   1   5
BRANCH   2  15
ATOM     15  C   UNK     1       8.500  -2.738  24.280  0.00  0.00    +0.191 C 
BRANCH  15  16
ATOM     16  C   UNK     1       7.954  -3.054  22.886  0.00  0.00    +0.326 C 
ATOM     17  O   UNK     1       7.522  -4.158  22.571  0.00  0.00    -0.249 OA
BRANCH  16  18
ATOM     18  O   UNK     1       8.009  -2.031  22.001  0.00  0.00    -0.479 OA
ATOM     19  H   UNK     1       8.609  -2.179  21.245  0.00  0.00    +0.295 HD
ENDBRANCH  16  18
ENDBRANCH  15  16
BRANCH  15  20
ATOM     20  C   UNK     1       9.381  -3.873  24.813  0.00  0.00    +0.099 C 
BRANCH  20  21
ATOM     21  S   UNK     1       8.854  -4.483  26.451  0.00  0.00    -0.176 S 
ATOM     22  H   UNK     1       7.618  -3.963  26.437  0.00  0.00    +0.102 HD
ENDBRANCH  20  21
ENDBRANCH  15  20
ENDBRANCH   2  15
TORSDOF 11
ENDMDL
MODEL 8
REMARK VINA RESULT:      -4.9      2.072      2.568
REMARK  Name = 
REMARK  11 active torsions:
REMARK  status: ('A' for Active; 'I' for Inactive)
REMARK    1  A    between atoms: N_1  and  C_2
REMARK    2  A    between atoms: C_2  and  C_4
REMARK    3  A    between atoms: C_2  and  C_16
REMARK    4  A    between atoms: C_4  and  C_5
REMARK    5  A    between atoms: C_5  and  C_6
REMARK    6  A    between atoms: N_8  and  C_9
REMARK    7  A    between atoms: C_9  and  C_11
REMARK    8  A    between atoms: C_9  and  C_13
REMARK    9  A    between atoms: C_11  and  S_12
REMARK   10  A    between atoms: C_13  and  O_14
REMARK   11  A    between atoms: C_16  and  O_17
REMARK                            x       y       z     vdW  Elec       q    Type
REMARK                         _______ _______ _______ _____ _____    ______ ____
ROOT
ATOM      1  C   UNK     1       9.558  -2.137  23.139  0.00  0.00    +0.214 C 
ATOM      2  N   UNK     1       8.277  -2.400  22.743  0.00  0.00    -0.302 N 
ATOM      3  H   UNK     1       7.774  -1.734  22.157  0.00  0.00    +0.150 HD
ATOM      4  O   UNK     1      10.215  -2.908  23.830  0.00  0.00    -0.276 OA
ENDROOT
BRANCH   1   5
ATOM      5  C   UNK     1      10.110  -0.816  22.642  0.00  0.00    +0.098 C 
BRANCH   5   6
ATOM      6  C   UNK     1       9.364  -0.333  21.399  0.00  0.00    +0.039 C 
BRANCH   6   7
ATOM      7  C   UNK     1       8.815   1.092  21.530  0.00  0.00    +0.161 C 
BRANCH   7   8
ATOM      8  N   UNK     1       9.901   2.104  21.688  0.00  0.00    -0.318 NA
ATOM      9  H   UNK     1       9.781   2.832  20.975  0.00  0.00    +0.119 HD
ATOM     10  H   UNK     1       9.750   2.596  22.574  0.00  0.00    +0.119 HD
ENDBRANCH   7   8
BRANCH   7  11
ATOM     11  C   UNK     1       7.887   1.183  22.757  0.00  0.00    +0.322 C 
ATOM     12  O   UNK     1       8.098   1.857  23.753  0.00  0.00    -0.249 OA
BRANCH  11  13
ATOM     13  O   UNK     1       6.783   0.405  22.598  0.00  0.00    -0.480 OA
ATOM     14  H   UNK     1       6.279   0.812  21.849  0.00  0.00    +0.295 HD
ENDBRANCH  11  13
ENDBRANCH   7  11
ENDBRANCH   6   7
ENDBRANCH   5   6
ENDBRANCH   1   5
BRANCH   2  15
ATOM     15  C   UNK     1       7.538  -3.613  23.120  0.00  0.00    +0.191 C 
BRANCH  15  16
ATOM     16  C   UNK     1       6.616  -3.173  24.259  0.00  0.00    +0.326 C 
ATOM     17  O   UNK     1       6.414  -3.856  25.258  0.00  0.00    -0.249 OA
BRANCH  16  18
ATOM     18  O   UNK     1       6.006  -1.979  24.076  0.00  0.00    -0.479 OA
ATOM     19  H   UNK     1       6.321  -1.267  24.666  0.00  0.00    +0.295 HD
ENDBRANCH  16  18
ENDBRANCH  15  16
BRANCH  15  20
ATOM     20  C   UNK     1       6.746  -4.193  21.943  0.00  0.00    +0.099 C 
BRANCH  20  21
ATOM     21  S   UNK     1       6.773  -6.018  21.888  0.00  0.00    -0.176 S 
ATOM     22  H   UNK     1       6.845  -6.147  20.555  0.00  0.00    +0.102 HD
ENDBRANCH  20  21
ENDBRANCH  15  20
ENDBRANCH   2  15
TORSDOF 11
ENDMDL
MODEL 9
REMARK VINA RESULT:      -4.8      2.535      6.314
REMARK  Name = 
REMARK  11 active torsions:
REMARK  status: ('A' for Active; 'I' for Inactive)
REMARK    1  A    between atoms: N_1  and  C_2
REMARK    2  A    between atoms: C_2  and  C_4
REMARK    3  A    between atoms: C_2  and  C_16
REMARK    4  A    between atoms: C_4  and  C_5
REMARK    5  A    between atoms: C_5  and  C_6
REMARK    6  A    between atoms: N_8  and  C_9
REMARK    7  A    between atoms: C_9  and  C_11
REMARK    8  A    between atoms: C_9  and  C_13
REMARK    9  A    between atoms: C_11  and  S_12
REMARK   10  A    between atoms: C_13  and  O_14
REMARK   11  A    between atoms: C_16  and  O_17
REMARK                            x       y       z     vdW  Elec       q    Type
REMARK                         _______ _______ _______ _____ _____    ______ ____
ROOT
ATOM      1  C   UNK     1       8.781  -3.639  24.063  0.00  0.00    +0.214 C 
ATOM      2  N   UNK     1       8.714  -2.296  23.817  0.00  0.00    -0.302 N 
ATOM      3  H   UNK     1       7.868  -1.890  23.418  0.00  0.00    +0.150 HD
ATOM      4  O   UNK     1       9.766  -4.179  24.555  0.00  0.00    -0.276 OA
ENDROOT
BRANCH   1   5
ATOM      5  C   UNK     1       7.531  -4.409  23.690  0.00  0.00    +0.098 C 
BRANCH   5   6
ATOM      6  C   UNK     1       6.482  -4.338  24.799  0.00  0.00    +0.039 C 
BRANCH   6   7
ATOM      7  C   UNK     1       6.424  -5.598  25.669  0.00  0.00    +0.161 C 
BRANCH   7   8
ATOM      8  N   UNK     1       5.025  -5.976  26.025  0.00  0.00    -0.318 NA
ATOM      9  H   UNK     1       4.376  -5.391  25.486  0.00  0.00    +0.119 HD
ATOM     10  H   UNK     1       4.853  -6.925  25.677  0.00  0.00    +0.119 HD
ENDBRANCH   7   8
BRANCH   7  11
ATOM     11  C   UNK     1       7.210  -5.368  26.974  0.00  0.00    +0.322 C 
ATOM     12  O   UNK     1       6.756  -4.871  27.993  0.00  0.00    -0.249 OA
BRANCH  11  13
ATOM     13  O   UNK     1       8.498  -5.786  26.854  0.00  0.00    -0.480 OA
ATOM     14  H   UNK     1       8.627  -5.969  25.890  0.00  0.00    +0.295 HD
ENDBRANCH  11  13
ENDBRANCH   7  11
ENDBRANCH   6   7
ENDBRANCH   5   6
ENDBRANCH   1   5
BRANCH   2  15
ATOM     15  C   UNK     1       9.814  -1.360  24.087  0.00  0.00    +0.191 C 
BRANCH  15  16
ATOM     16  C   UNK     1      10.157  -0.755  22.724  0.00  0.00    +0.326 C 
ATOM     17  O   UNK     1      10.231   0.454  22.528  0.00  0.00    -0.249 OA
BRANCH  16  18
ATOM     18  O   UNK     1      10.347  -1.652  21.728  0.00  0.00    -0.479 OA
ATOM     19  H   UNK     1       9.535  -1.902  21.246  0.00  0.00    +0.295 HD
ENDBRANCH  16  18
ENDBRANCH  15  16
BRANCH  15  20
ATOM     20  C   UNK     1       9.415  -0.281  25.099  0.00  0.00    +0.099 C 
BRANCH  20  21
ATOM     21  S   UNK     1       8.655  -0.962  26.614  0.00  0.00    -0.176 S 
ATOM     22  H   UNK     1       9.105  -2.218  26.479  0.00  0.00    +0.102 HD
ENDBRANCH  20  21
ENDBRANCH  15  20
ENDBRANCH   2  15
TORSDOF 11
ENDMDL
