MODEL 1
REMARK VINA RESULT:      -6.7      0.000      0.000
REMARK  Name = 
REMARK  8 active torsions:
REMARK  status: ('A' for Active; 'I' for Inactive)
REMARK    1  A    between atoms: C_2  and  N_3
REMARK    2  A    between atoms: C_2  and  C_4
REMARK    3  A    between atoms: C_2  and  C_23
REMARK    4  A    between atoms: C_4  and  C_5
REMARK    5  A    between atoms: C_11  and  C_13
REMARK    6  A    between atoms: C_13  and  N_14
REMARK    7  A    between atoms: C_15  and  C_17
REMARK    8  A    between atoms: C_23  and  C_24
REMARK                            x       y       z     vdW  Elec       q    Type
REMARK                         _______ _______ _______ _____ _____    ______ ____
ROOT
ATOM      1  C   UNL     1       7.807   0.585  24.573  0.00  0.00    +0.217 C 
ATOM      2  N   UNL     1       8.858   1.003  23.779  0.00  0.00    -0.297 N 
ATOM      3  C   UNL     1       8.974   0.615  22.371  0.00  0.00    +0.093 C 
ATOM      4  C   UNL     1      10.005   1.594  21.782  0.00  0.00    +0.025 C 
ATOM      5  C   UNL     1      10.304   2.592  22.898  0.00  0.00    +0.021 C 
ATOM      6  C   UNL     1       9.983   1.831  24.169  0.00  0.00    +0.108 C 
ATOM      7  O   UNL     1       6.853  -0.034  24.099  0.00  0.00    -0.276 OA
ENDROOT
BRANCH   1   8
ATOM      8  C   UNL     1       7.911   0.929  26.052  0.00  0.00    +0.114 C 
BRANCH   8   9
ATOM      9  C   UNL     1       7.718  -0.257  27.019  0.00  0.00    +0.064 C 
BRANCH   9  10
ATOM     10  N   UNL     1       8.411   0.098  28.279  0.00  0.00    -0.327 NA
ATOM     11  H   UNL     1       7.754   0.020  29.057  0.00  0.00    +0.118 HD
ATOM     12  H   UNL     1       9.134  -0.594  28.473  0.00  0.00    +0.118 HD
ENDBRANCH   9  10
BRANCH   9  13
ATOM     13  C   UNL     1       8.268  -1.588  26.444  0.00  0.00    +0.057 C 
BRANCH  13  14
ATOM     14  C   UNL     1       7.404  -2.830  26.560  0.00  0.00    -0.011 A 
ATOM     15  C   UNL     1       6.007  -2.809  26.471  0.00  0.00    +0.006 A 
ATOM     16  C   UNL     1       5.272  -4.004  26.484  0.00  0.00    +0.000 A 
ATOM     17  C   UNL     1       5.926  -5.233  26.572  0.00  0.00    +0.003 A 
ATOM     18  C   UNL     1       7.314  -5.269  26.654  0.00  0.00    +0.038 A 
ATOM     19  C   UNL     1       8.036  -4.078  26.645  0.00  0.00    +0.127 A 
ATOM     20  F   UNL     1       9.374  -4.147  26.702  0.00  0.00    -0.205 F 
ENDBRANCH  13  14
ENDBRANCH   9  13
ENDBRANCH   8   9
ENDBRANCH   1   8
BRANCH   3  21
ATOM     21  C   UNL     1       9.418  -0.858  22.231  0.00  0.00    +0.127 C 
BRANCH  21  22
ATOM     22  N   UNL     1       8.314  -1.802  22.273  0.00  0.00    -0.310 N 
ATOM     23  H   UNL     1       7.496  -1.594  21.717  0.00  0.00    +0.149 HD
ATOM     24  C   UNL     1       8.389  -2.982  22.986  0.00  0.00    +0.244 C 
ATOM     25  O   UNL     1       9.386  -3.337  23.604  0.00  0.00    -0.270 OA
BRANCH  24  26
ATOM     26  C   UNL     1       7.195  -3.870  22.929  0.00  0.00    +0.037 A 
ATOM     27  C   UNL     1       7.301  -5.266  22.906  0.00  0.00    +0.013 A 
ATOM     28  C   UNL     1       6.146  -6.053  22.881  0.00  0.00    +0.001 A 
ATOM     29  C   UNL     1       4.888  -5.451  22.867  0.00  0.00    +0.000 A 
ATOM     30  C   UNL     1       4.777  -4.062  22.862  0.00  0.00    +0.001 A 
ATOM     31  C   UNL     1       5.928  -3.272  22.887  0.00  0.00    +0.013 A 
ENDBRANCH  24  26
ENDBRANCH  21  22
ENDBRANCH   3  21
TORSDOF 8
ENDMDL
MODEL 2
REMARK VINA RESULT:      -6.6      2.380      5.901
REMARK  Name = 
REMARK  8 active torsions:
REMARK  status: ('A' for Active; 'I' for Inactive)
REMARK    1  A    between atoms: C_2  and  N_3
REMARK    2  A    between atoms: C_2  and  C_4
REMARK    3  A    between atoms: C_2  and  C_23
REMARK    4  A    between atoms: C_4  and  C_5
REMARK    5  A    between atoms: C_11  and  C_13
REMARK    6  A    between atoms: C_13  and  N_14
REMARK    7  A    between atoms: C_15  and  C_17
REMARK    8  A    between atoms: C_23  and  C_24
REMARK                            x       y       z     vdW  Elec       q    Type
REMARK                         _______ _______ _______ _____ _____    ______ ____
ROOT
ATOM      1  C   UNL     1       7.128  -2.731  26.249  0.00  0.00    +0.217 C 
ATOM      2  N   UNL     1       6.326  -3.217  25.234  0.00  0.00    -0.297 N 
ATOM      3  C   UNL     1       6.575  -4.512  24.596  0.00  0.00    +0.093 C 
ATOM      4  C   UNL     1       5.267  -4.838  23.855  0.00  0.00    +0.025 C 
ATOM      5  C   UNL     1       4.285  -3.740  24.256  0.00  0.00    +0.021 C 
ATOM      6  C   UNL     1       5.175  -2.571  24.634  0.00  0.00    +0.108 C 
ATOM      7  O   UNL     1       8.020  -3.420  26.748  0.00  0.00    -0.276 OA
ENDROOT
BRANCH   1   8
ATOM      8  C   UNL     1       6.845  -1.304  26.696  0.00  0.00    +0.114 C 
BRANCH   8   9
ATOM      9  C   UNL     1       7.967  -0.287  26.401  0.00  0.00    +0.064 C 
BRANCH   9  10
ATOM     10  N   UNL     1       8.969  -0.426  27.481  0.00  0.00    -0.327 NA
ATOM     11  H   UNL     1       8.917   0.388  28.096  0.00  0.00    +0.118 HD
ATOM     12  H   UNL     1       8.721  -1.219  28.073  0.00  0.00    +0.118 HD
ENDBRANCH   9  10
BRANCH   9  13
ATOM     13  C   UNL     1       7.440   1.170  26.323  0.00  0.00    +0.057 C 
BRANCH  13  14
ATOM     14  C   UNL     1       7.259   1.794  24.952  0.00  0.00    -0.011 A 
ATOM     15  C   UNL     1       6.539   1.185  23.916  0.00  0.00    +0.006 A 
ATOM     16  C   UNL     1       6.322   1.859  22.705  0.00  0.00    +0.000 A 
ATOM     17  C   UNL     1       6.809   3.154  22.520  0.00  0.00    +0.003 A 
ATOM     18  C   UNL     1       7.520   3.773  23.543  0.00  0.00    +0.038 A 
ATOM     19  C   UNL     1       7.735   3.095  24.741  0.00  0.00    +0.127 A 
ATOM     20  F   UNL     1       8.404   3.728  25.716  0.00  0.00    -0.205 F 
ENDBRANCH  13  14
ENDBRANCH   9  13
ENDBRANCH   8   9
ENDBRANCH   1   8
BRANCH   3  21
ATOM     21  C   UNL     1       7.787  -4.440  23.640  0.00  0.00    +0.127 C 
BRANCH  21  22
ATOM     22  N   UNL     1       8.136  -3.084  23.249  0.00  0.00    -0.310 N 
ATOM     23  H   UNL     1       7.404  -2.503  22.865  0.00  0.00    +0.149 HD
ATOM     24  C   UNL     1       9.400  -2.567  23.454  0.00  0.00    +0.244 C 
ATOM     25  O   UNL     1      10.304  -3.188  24.000  0.00  0.00    -0.270 OA
BRANCH  24  26
ATOM     26  C   UNL     1       9.618  -1.158  23.026  0.00  0.00    +0.037 A 
ATOM     27  C   UNL     1      10.296  -0.229  23.825  0.00  0.00    +0.013 A 
ATOM     28  C   UNL     1      10.499   1.074  23.362  0.00  0.00    +0.001 A 
ATOM     29  C   UNL     1      10.017   1.456  22.109  0.00  0.00    +0.000 A 
ATOM     30  C   UNL     1       9.318   0.543  21.321  0.00  0.00    +0.001 A 
ATOM     31  C   UNL     1       9.114  -0.759  21.780  0.00  0.00    +0.013 A 
ENDBRANCH  24  26
ENDBRANCH  21  22
ENDBRANCH   3  21
TORSDOF 8
ENDMDL
MODEL 3
REMARK VINA RESULT:      -6.3      2.290      4.283
REMARK  Name = 
REMARK  8 active torsions:
REMARK  status: ('A' for Active; 'I' for Inactive)
REMARK    1  A    between atoms: C_2  and  N_3
REMARK    2  A    between atoms: C_2  and  C_4
REMARK    3  A    between atoms: C_2  and  C_23
REMARK    4  A    between atoms: C_4  and  C_5
REMARK    5  A    between atoms: C_11  and  C_13
REMARK    6  A    between atoms: C_13  and  N_14
REMARK    7  A    between atoms: C_15  and  C_17
REMARK    8  A    between atoms: C_23  and  C_24
REMARK                            x       y       z     vdW  Elec       q    Type
REMARK                         _______ _______ _______ _____ _____    ______ ____
ROOT
ATOM      1  C   UNL     1       9.569   1.827  22.723  0.00  0.00    +0.217 C 
ATOM      2  N   UNL     1       8.291   2.315  22.915  0.00  0.00    -0.297 N 
ATOM      3  C   UNL     1       7.989   3.336  23.921  0.00  0.00    +0.093 C 
ATOM      4  C   UNL     1       6.601   3.872  23.526  0.00  0.00    +0.025 C 
ATOM      5  C   UNL     1       6.266   3.197  22.198  0.00  0.00    +0.021 C 
ATOM      6  C   UNL     1       7.083   1.920  22.217  0.00  0.00    +0.108 C 
ATOM      7  O   UNL     1      10.537   2.316  23.309  0.00  0.00    -0.276 OA
ENDROOT
BRANCH   1   8
ATOM      8  C   UNL     1       9.697   0.653  21.763  0.00  0.00    +0.114 C 
BRANCH   8   9
ATOM      9  C   UNL     1       9.885  -0.726  22.428  0.00  0.00    +0.064 C 
BRANCH   9  10
ATOM     10  N   UNL     1      10.957  -1.422  21.679  0.00  0.00    -0.327 NA
ATOM     11  H   UNL     1      11.864  -1.159  22.068  0.00  0.00    +0.118 HD
ATOM     12  H   UNL     1      10.883  -2.427  21.839  0.00  0.00    +0.118 HD
ENDBRANCH   9  10
BRANCH   9  13
ATOM     13  C   UNL     1       8.581  -1.565  22.430  0.00  0.00    +0.057 C 
BRANCH  13  14
ATOM     14  C   UNL     1       8.571  -2.870  23.203  0.00  0.00    -0.011 A 
ATOM     15  C   UNL     1       9.447  -3.148  24.260  0.00  0.00    +0.006 A 
ATOM     16  C   UNL     1       9.321  -4.333  25.001  0.00  0.00    +0.000 A 
ATOM     17  C   UNL     1       8.307  -5.245  24.705  0.00  0.00    +0.003 A 
ATOM     18  C   UNL     1       7.425  -4.979  23.663  0.00  0.00    +0.038 A 
ATOM     19  C   UNL     1       7.561  -3.803  22.929  0.00  0.00    +0.127 A 
ATOM     20  F   UNL     1       6.680  -3.564  21.945  0.00  0.00    -0.205 F 
ENDBRANCH  13  14
ENDBRANCH   9  13
ENDBRANCH   8   9
ENDBRANCH   1   8
BRANCH   3  21
ATOM     21  C   UNL     1       8.003   2.739  25.345  0.00  0.00    +0.127 C 
BRANCH  21  22
ATOM     22  N   UNL     1       7.219   1.521  25.470  0.00  0.00    -0.310 N 
ATOM     23  H   UNL     1       6.217   1.594  25.365  0.00  0.00    +0.149 HD
ATOM     24  C   UNL     1       7.812   0.287  25.653  0.00  0.00    +0.244 C 
ATOM     25  O   UNL     1       9.025   0.119  25.694  0.00  0.00    -0.270 OA
BRANCH  24  26
ATOM     26  C   UNL     1       6.895  -0.883  25.744  0.00  0.00    +0.037 A 
ATOM     27  C   UNL     1       5.816  -1.059  24.870  0.00  0.00    +0.013 A 
ATOM     28  C   UNL     1       5.004  -2.191  24.982  0.00  0.00    +0.001 A 
ATOM     29  C   UNL     1       5.259  -3.141  25.971  0.00  0.00    +0.000 A 
ATOM     30  C   UNL     1       6.315  -2.957  26.861  0.00  0.00    +0.001 A 
ATOM     31  C   UNL     1       7.129  -1.828  26.753  0.00  0.00    +0.013 A 
ENDBRANCH  24  26
ENDBRANCH  21  22
ENDBRANCH   3  21
TORSDOF 8
ENDMDL
MODEL 4
REMARK VINA RESULT:      -6.3      2.690      6.168
REMARK  Name = 
REMARK  8 active torsions:
REMARK  status: ('A' for Active; 'I' for Inactive)
REMARK    1  A    between atoms: C_2  and  N_3
REMARK    2  A    between atoms: C_2  and  C_4
REMARK    3  A    between atoms: C_2  and  C_23
REMARK    4  A    between atoms: C_4  and  C_5
REMARK    5  A    between atoms: C_11  and  C_13
REMARK    6  A    between atoms: C_13  and  N_14
REMARK    7  A    between atoms: C_15  and  C_17
REMARK    8  A    between atoms: C_23  and  C_24
REMARK                            x       y       z     vdW  Elec       q    Type
REMARK                         _______ _______ _______ _____ _____    ______ ____
ROOT
ATOM      1  C   UNL     1       6.092  -3.078  25.731  0.00  0.00    +0.217 C 
ATOM      2  N   UNL     1       6.706  -3.629  24.623  0.00  0.00    -0.297 N 
ATOM      3  C   UNL     1       7.838  -4.552  24.737  0.00  0.00    +0.093 C 
ATOM      4  C   UNL     1       7.933  -5.223  23.355  0.00  0.00    +0.025 C 
ATOM      5  C   UNL     1       6.720  -4.724  22.574  0.00  0.00    +0.021 C 
ATOM      6  C   UNL     1       6.380  -3.399  23.229  0.00  0.00    +0.108 C 
ATOM      7  O   UNL     1       6.391  -3.431  26.873  0.00  0.00    -0.276 OA
ENDROOT
BRANCH   1   8
ATOM      8  C   UNL     1       5.043  -2.011  25.450  0.00  0.00    +0.114 C 
BRANCH   8   9
ATOM      9  C   UNL     1       5.492  -0.559  25.713  0.00  0.00    +0.064 C 
BRANCH   9  10
ATOM     10  N   UNL     1       4.313   0.167  26.239  0.00  0.00    -0.327 NA
ATOM     11  H   UNL     1       4.056   0.908  25.585  0.00  0.00    +0.118 HD
ATOM     12  H   UNL     1       3.509  -0.461  26.255  0.00  0.00    +0.118 HD
ENDBRANCH   9  10
BRANCH   9  13
ATOM     13  C   UNL     1       6.041   0.132  24.438  0.00  0.00    +0.057 C 
BRANCH  13  14
ATOM     14  C   UNL     1       6.599   1.536  24.569  0.00  0.00    -0.011 A 
ATOM     15  C   UNL     1       7.193   2.025  25.740  0.00  0.00    +0.006 A 
ATOM     16  C   UNL     1       7.781   3.298  25.765  0.00  0.00    +0.000 A 
ATOM     17  C   UNL     1       7.797   4.091  24.617  0.00  0.00    +0.003 A 
ATOM     18  C   UNL     1       7.218   3.615  23.445  0.00  0.00    +0.038 A 
ATOM     19  C   UNL     1       6.631   2.352  23.429  0.00  0.00    +0.127 A 
ATOM     20  F   UNL     1       6.102   1.913  22.278  0.00  0.00    -0.205 F 
ENDBRANCH  13  14
ENDBRANCH   9  13
ENDBRANCH   8   9
ENDBRANCH   1   8
BRANCH   3  21
ATOM     21  C   UNL     1       9.134  -3.802  25.115  0.00  0.00    +0.127 C 
BRANCH  21  22
ATOM     22  N   UNL     1       9.385  -2.629  24.294  0.00  0.00    -0.310 N 
ATOM     23  H   UNL     1       9.528  -2.771  23.303  0.00  0.00    +0.149 HD
ATOM     24  C   UNL     1       9.360  -1.352  24.818  0.00  0.00    +0.244 C 
ATOM     25  O   UNL     1       9.100  -1.106  25.990  0.00  0.00    -0.270 OA
BRANCH  24  26
ATOM     26  C   UNL     1       9.613  -0.237  23.863  0.00  0.00    +0.037 A 
ATOM     27  C   UNL     1      10.282   0.934  24.240  0.00  0.00    +0.013 A 
ATOM     28  C   UNL     1      10.517   1.938  23.296  0.00  0.00    +0.001 A 
ATOM     29  C   UNL     1      10.079   1.780  21.981  0.00  0.00    +0.000 A 
ATOM     30  C   UNL     1       9.389   0.629  21.607  0.00  0.00    +0.001 A 
ATOM     31  C   UNL     1       9.151  -0.376  22.547  0.00  0.00    +0.013 A 
ENDBRANCH  24  26
ENDBRANCH  21  22
ENDBRANCH   3  21
TORSDOF 8
ENDMDL
MODEL 5
REMARK VINA RESULT:      -6.2      2.725      5.880
REMARK  Name = 
REMARK  8 active torsions:
REMARK  status: ('A' for Active; 'I' for Inactive)
REMARK    1  A    between atoms: C_2  and  N_3
REMARK    2  A    between atoms: C_2  and  C_4
REMARK    3  A    between atoms: C_2  and  C_23
REMARK    4  A    between atoms: C_4  and  C_5
REMARK    5  A    between atoms: C_11  and  C_13
REMARK    6  A    between atoms: C_13  and  N_14
REMARK    7  A    between atoms: C_15  and  C_17
REMARK    8  A    between atoms: C_23  and  C_24
REMARK                            x       y       z     vdW  Elec       q    Type
REMARK                         _______ _______ _______ _____ _____    ______ ____
ROOT
ATOM      1  C   UNL     1       7.195  -5.119  26.313  0.00  0.00    +0.217 C 
ATOM      2  N   UNL     1       7.194  -4.394  25.136  0.00  0.00    -0.297 N 
ATOM      3  C   UNL     1       8.253  -4.531  24.134  0.00  0.00    +0.093 C 
ATOM      4  C   UNL     1       7.668  -3.895  22.861  0.00  0.00    +0.025 C 
ATOM      5  C   UNL     1       6.218  -3.561  23.201  0.00  0.00    +0.021 C 
ATOM      6  C   UNL     1       6.218  -3.409  24.709  0.00  0.00    +0.108 C 
ATOM      7  O   UNL     1       8.027  -6.005  26.518  0.00  0.00    -0.276 OA
ENDROOT
BRANCH   1   8
ATOM      8  C   UNL     1       6.123  -4.747  27.326  0.00  0.00    +0.114 C 
BRANCH   8   9
ATOM      9  C   UNL     1       5.267  -5.922  27.842  0.00  0.00    +0.064 C 
BRANCH   9  10
ATOM     10  N   UNL     1       6.123  -6.705  28.764  0.00  0.00    -0.327 NA
ATOM     11  H   UNL     1       7.092  -6.659  28.444  0.00  0.00    +0.118 HD
ATOM     12  H   UNL     1       6.127  -6.259  29.682  0.00  0.00    +0.118 HD
ENDBRANCH   9  10
BRANCH   9  13
ATOM     13  C   UNL     1       4.734  -6.817  26.694  0.00  0.00    +0.057 C 
BRANCH  13  14
ATOM     14  C   UNL     1       3.776  -6.200  25.692  0.00  0.00    -0.011 A 
ATOM     15  C   UNL     1       2.717  -5.358  26.055  0.00  0.00    +0.006 A 
ATOM     16  C   UNL     1       1.929  -4.738  25.073  0.00  0.00    +0.000 A 
ATOM     17  C   UNL     1       2.199  -4.940  23.720  0.00  0.00    +0.003 A 
ATOM     18  C   UNL     1       3.252  -5.768  23.345  0.00  0.00    +0.038 A 
ATOM     19  C   UNL     1       4.027  -6.384  24.325  0.00  0.00    +0.127 A 
ATOM     20  F   UNL     1       5.050  -7.158  23.932  0.00  0.00    -0.205 F 
ENDBRANCH  13  14
ENDBRANCH   9  13
ENDBRANCH   8   9
ENDBRANCH   1   8
BRANCH   3  21
ATOM     21  C   UNL     1       9.552  -3.832  24.595  0.00  0.00    +0.127 C 
BRANCH  21  22
ATOM     22  N   UNL     1       9.780  -2.551  23.947  0.00  0.00    -0.310 N 
ATOM     23  H   UNL     1      10.125  -2.559  22.997  0.00  0.00    +0.149 HD
ATOM     24  C   UNL     1       9.475  -1.355  24.567  0.00  0.00    +0.244 C 
ATOM     25  O   UNL     1       8.968  -1.280  25.680  0.00  0.00    -0.270 OA
BRANCH  24  26
ATOM     26  C   UNL     1       9.739  -0.115  23.785  0.00  0.00    +0.037 A 
ATOM     27  C   UNL     1       9.449  -0.016  22.419  0.00  0.00    +0.013 A 
ATOM     28  C   UNL     1       9.691   1.181  21.739  0.00  0.00    +0.001 A 
ATOM     29  C   UNL     1      10.230   2.275  22.417  0.00  0.00    +0.000 A 
ATOM     30  C   UNL     1      10.546   2.173  23.770  0.00  0.00    +0.001 A 
ATOM     31  C   UNL     1      10.306   0.979  24.453  0.00  0.00    +0.013 A 
ENDBRANCH  24  26
ENDBRANCH  21  22
ENDBRANCH   3  21
TORSDOF 8
ENDMDL
MODEL 6
REMARK VINA RESULT:      -6.2      2.154      5.305
REMARK  Name = 
REMARK  8 active torsions:
REMARK  status: ('A' for Active; 'I' for Inactive)
REMARK    1  A    between atoms: C_2  and  N_3
REMARK    2  A    between atoms: C_2  and  C_4
REMARK    3  A    between atoms: C_2  and  C_23
REMARK    4  A    between atoms: C_4  and  C_5
REMARK    5  A    between atoms: C_11  and  C_13
REMARK    6  A    between atoms: C_13  and  N_14
REMARK    7  A    between atoms: C_15  and  C_17
REMARK    8  A    between atoms: C_23  and  C_24
REMARK                            x       y       z     vdW  Elec       q    Type
REMARK                         _______ _______ _______ _____ _____    ______ ____
ROOT
ATOM      1  C   UNL     1       8.681  -1.189  24.004  0.00  0.00    +0.217 C 
ATOM      2  N   UNL     1       7.964  -0.692  25.075  0.00  0.00    -0.297 N 
ATOM      3  C   UNL     1       8.232  -1.107  26.454  0.00  0.00    +0.093 C 
ATOM      4  C   UNL     1       7.532  -0.047  27.323  0.00  0.00    +0.025 C 
ATOM      5  C   UNL     1       7.023   1.010  26.346  0.00  0.00    +0.021 C 
ATOM      6  C   UNL     1       6.869   0.259  25.038  0.00  0.00    +0.108 C 
ATOM      7  O   UNL     1       9.661  -1.917  24.171  0.00  0.00    -0.276 OA
ENDROOT
BRANCH   1   8
ATOM      8  C   UNL     1       8.178  -0.793  22.624  0.00  0.00    +0.114 C 
BRANCH   8   9
ATOM      9  C   UNL     1       9.272  -0.388  21.615  0.00  0.00    +0.064 C 
BRANCH   9  10
ATOM     10  N   UNL     1      10.197  -1.539  21.498  0.00  0.00    -0.327 NA
ATOM     11  H   UNL     1      10.297  -1.790  20.513  0.00  0.00    +0.118 HD
ATOM     12  H   UNL     1      11.131  -1.254  21.794  0.00  0.00    +0.118 HD
ENDBRANCH   9  10
BRANCH   9  13
ATOM     13  C   UNL     1      10.036   0.890  22.050  0.00  0.00    +0.057 C 
BRANCH  13  14
ATOM     14  C   UNL     1       9.230   2.059  22.583  0.00  0.00    -0.011 A 
ATOM     15  C   UNL     1       8.143   2.622  21.902  0.00  0.00    +0.006 A 
ATOM     16  C   UNL     1       7.375   3.635  22.495  0.00  0.00    +0.000 A 
ATOM     17  C   UNL     1       7.675   4.087  23.781  0.00  0.00    +0.003 A 
ATOM     18  C   UNL     1       8.747   3.532  24.472  0.00  0.00    +0.038 A 
ATOM     19  C   UNL     1       9.508   2.530  23.874  0.00  0.00    +0.127 A 
ATOM     20  F   UNL     1      10.521   1.999  24.575  0.00  0.00    -0.205 F 
ENDBRANCH  13  14
ENDBRANCH   9  13
ENDBRANCH   8   9
ENDBRANCH   1   8
BRANCH   3  21
ATOM     21  C   UNL     1       7.695  -2.531  26.723  0.00  0.00    +0.127 C 
BRANCH  21  22
ATOM     22  N   UNL     1       7.157  -3.180  25.538  0.00  0.00    -0.310 N 
ATOM     23  H   UNL     1       6.630  -2.612  24.890  0.00  0.00    +0.149 HD
ATOM     24  C   UNL     1       7.408  -4.508  25.256  0.00  0.00    +0.244 C 
ATOM     25  O   UNL     1       8.116  -5.226  25.952  0.00  0.00    -0.270 OA
BRANCH  24  26
ATOM     26  C   UNL     1       6.814  -5.043  23.999  0.00  0.00    +0.037 A 
ATOM     27  C   UNL     1       5.460  -5.387  23.898  0.00  0.00    +0.013 A 
ATOM     28  C   UNL     1       4.948  -5.859  22.686  0.00  0.00    +0.001 A 
ATOM     29  C   UNL     1       5.785  -5.998  21.579  0.00  0.00    +0.000 A 
ATOM     30  C   UNL     1       7.139  -5.684  21.682  0.00  0.00    +0.001 A 
ATOM     31  C   UNL     1       7.654  -5.213  22.890  0.00  0.00    +0.013 A 
ENDBRANCH  24  26
ENDBRANCH  21  22
ENDBRANCH   3  21
TORSDOF 8
ENDMDL
MODEL 7
REMARK VINA RESULT:      -6.1      2.605      6.348
REMARK  Name = 
REMARK  8 active torsions:
REMARK  status: ('A' for Active; 'I' for Inactive)
REMARK    1  A    between atoms: C_2  and  N_3
REMARK    2  A    between atoms: C_2  and  C_4
REMARK    3  A    between atoms: C_2  and  C_23
REMARK    4  A    between atoms: C_4  and  C_5
REMARK    5  A    between atoms: C_11  and  C_13
REMARK    6  A    between atoms: C_13  and  N_14
REMARK    7  A    between atoms: C_15  and  C_17
REMARK    8  A    between atoms: C_23  and  C_24
REMARK                            x       y       z     vdW  Elec       q    Type
REMARK                         _______ _______ _______ _____ _____    ______ ____
ROOT
ATOM      1  C   UNL     1       7.220  -1.729  26.588  0.00  0.00    +0.217 C 
ATOM      2  N   UNL     1       7.299  -3.105  26.491  0.00  0.00    -0.297 N 
ATOM      3  C   UNL     1       8.575  -3.804  26.319  0.00  0.00    +0.093 C 
ATOM      4  C   UNL     1       8.265  -5.270  26.669  0.00  0.00    +0.025 C 
ATOM      5  C   UNL     1       6.824  -5.275  27.170  0.00  0.00    +0.021 C 
ATOM      6  C   UNL     1       6.202  -4.055  26.519  0.00  0.00    +0.108 C 
ATOM      7  O   UNL     1       8.234  -1.032  26.655  0.00  0.00    -0.276 OA
ENDROOT
BRANCH   1   8
ATOM      8  C   UNL     1       5.817  -1.140  26.595  0.00  0.00    +0.114 C 
BRANCH   8   9
ATOM      9  C   UNL     1       5.681   0.249  25.940  0.00  0.00    +0.064 C 
BRANCH   9  10
ATOM     10  N   UNL     1       4.239   0.585  25.937  0.00  0.00    -0.327 NA
ATOM     11  H   UNL     1       3.942   0.801  26.890  0.00  0.00    +0.118 HD
ATOM     12  H   UNL     1       4.093   1.448  25.413  0.00  0.00    +0.118 HD
ENDBRANCH   9  10
BRANCH   9  13
ATOM     13  C   UNL     1       6.258   0.285  24.501  0.00  0.00    +0.057 C 
BRANCH  13  14
ATOM     14  C   UNL     1       6.672   1.627  23.929  0.00  0.00    -0.011 A 
ATOM     15  C   UNL     1       6.267   2.088  22.670  0.00  0.00    +0.006 A 
ATOM     16  C   UNL     1       6.601   3.382  22.241  0.00  0.00    +0.000 A 
ATOM     17  C   UNL     1       7.330   4.234  23.070  0.00  0.00    +0.003 A 
ATOM     18  C   UNL     1       7.734   3.792  24.326  0.00  0.00    +0.038 A 
ATOM     19  C   UNL     1       7.402   2.505  24.743  0.00  0.00    +0.127 A 
ATOM     20  F   UNL     1       7.785   2.116  25.968  0.00  0.00    -0.205 F 
ENDBRANCH  13  14
ENDBRANCH   9  13
ENDBRANCH   8   9
ENDBRANCH   1   8
BRANCH   3  21
ATOM     21  C   UNL     1       9.108  -3.645  24.878  0.00  0.00    +0.127 C 
BRANCH  21  22
ATOM     22  N   UNL     1       9.500  -2.283  24.552  0.00  0.00    -0.310 N 
ATOM     23  H   UNL     1      10.041  -1.774  25.237  0.00  0.00    +0.149 HD
ATOM     24  C   UNL     1       9.215  -1.715  23.327  0.00  0.00    +0.244 C 
ATOM     25  O   UNL     1       8.645  -2.311  22.420  0.00  0.00    -0.270 OA
BRANCH  24  26
ATOM     26  C   UNL     1       9.691  -0.320  23.114  0.00  0.00    +0.037 A 
ATOM     27  C   UNL     1       9.488   0.365  21.910  0.00  0.00    +0.013 A 
ATOM     28  C   UNL     1       9.931   1.684  21.774  0.00  0.00    +0.001 A 
ATOM     29  C   UNL     1      10.584   2.316  22.832  0.00  0.00    +0.000 A 
ATOM     30  C   UNL     1      10.812   1.630  24.023  0.00  0.00    +0.001 A 
ATOM     31  C   UNL     1      10.372   0.313  24.163  0.00  0.00    +0.013 A 
ENDBRANCH  24  26
ENDBRANCH  21  22
ENDBRANCH   3  21
TORSDOF 8
ENDMDL
MODEL 8
REMARK VINA RESULT:      -5.9      2.286      5.958
REMARK  Name = 
REMARK  8 active torsions:
REMARK  status: ('A' for Active; 'I' for Inactive)
REMARK    1  A    between atoms: C_2  and  N_3
REMARK    2  A    between atoms: C_2  and  C_4
REMARK    3  A    between atoms: C_2  and  C_23
REMARK    4  A    between atoms: C_4  and  C_5
REMARK    5  A    between atoms: C_11  and  C_13
REMARK    6  A    between atoms: C_13  and  N_14
REMARK    7  A    between atoms: C_15  and  C_17
REMARK    8  A    between atoms: C_23  and  C_24
REMARK                            x       y       z     vdW  Elec       q    Type
REMARK                         _______ _______ _______ _____ _____    ______ ____
ROOT
ATOM      1  C   UNL     1       8.956  -2.837  24.323  0.00  0.00    +0.217 C 
ATOM      2  N   UNL     1       8.334  -1.621  24.114  0.00  0.00    -0.297 N 
ATOM      3  C   UNL     1       8.334  -0.960  22.806  0.00  0.00    +0.093 C 
ATOM      4  C   UNL     1       7.225   0.102  22.908  0.00  0.00    +0.025 C 
ATOM      5  C   UNL     1       6.555  -0.135  24.259  0.00  0.00    +0.021 C 
ATOM      6  C   UNL     1       7.629  -0.812  25.089  0.00  0.00    +0.108 C 
ATOM      7  O   UNL     1       9.437  -3.481  23.389  0.00  0.00    -0.276 OA
ENDROOT
BRANCH   1   8
ATOM      8  C   UNL     1       9.016  -3.315  25.767  0.00  0.00    +0.114 C 
BRANCH   8   9
ATOM      9  C   UNL     1       8.674  -4.803  25.984  0.00  0.00    +0.064 C 
BRANCH   9  10
ATOM     10  N   UNL     1       9.778  -5.589  25.386  0.00  0.00    -0.327 NA
ATOM     11  H   UNL     1       9.904  -5.305  24.413  0.00  0.00    +0.118 HD
ATOM     12  H   UNL     1      10.654  -5.346  25.847  0.00  0.00    +0.118 HD
ENDBRANCH   9  10
BRANCH   9  13
ATOM     13  C   UNL     1       7.313  -5.197  25.354  0.00  0.00    +0.057 C 
BRANCH  13  14
ATOM     14  C   UNL     1       6.070  -4.459  25.814  0.00  0.00    -0.011 A 
ATOM     15  C   UNL     1       5.658  -4.401  27.152  0.00  0.00    +0.006 A 
ATOM     16  C   UNL     1       4.556  -3.618  27.527  0.00  0.00    +0.000 A 
ATOM     17  C   UNL     1       3.865  -2.870  26.573  0.00  0.00    +0.003 A 
ATOM     18  C   UNL     1       4.268  -2.911  25.242  0.00  0.00    +0.038 A 
ATOM     19  C   UNL     1       5.360  -3.696  24.877  0.00  0.00    +0.127 A 
ATOM     20  F   UNL     1       5.738  -3.697  23.590  0.00  0.00    -0.205 F 
ENDBRANCH  13  14
ENDBRANCH   9  13
ENDBRANCH   8   9
ENDBRANCH   1   8
BRANCH   3  21
ATOM     21  C   UNL     1       9.713  -0.339  22.493  0.00  0.00    +0.127 C 
BRANCH  21  22
ATOM     22  N   UNL     1       9.738   1.109  22.618  0.00  0.00    -0.310 N 
ATOM     23  H   UNL     1       9.142   1.644  22.000  0.00  0.00    +0.149 HD
ATOM     24  C   UNL     1      10.486   1.746  23.587  0.00  0.00    +0.244 C 
ATOM     25  O   UNL     1      11.155   1.153  24.425  0.00  0.00    -0.270 OA
BRANCH  24  26
ATOM     26  C   UNL     1      10.406   3.233  23.618  0.00  0.00    +0.037 A 
ATOM     27  C   UNL     1       9.199   3.914  23.817  0.00  0.00    +0.013 A 
ATOM     28  C   UNL     1       9.184   5.311  23.865  0.00  0.00    +0.001 A 
ATOM     29  C   UNL     1      10.369   6.029  23.705  0.00  0.00    +0.000 A 
ATOM     30  C   UNL     1      11.569   5.358  23.479  0.00  0.00    +0.001 A 
ATOM     31  C   UNL     1      11.588   3.963  23.430  0.00  0.00    +0.013 A 
ENDBRANCH  24  26
ENDBRANCH  21  22
ENDBRANCH   3  21
TORSDOF 8
ENDMDL
MODEL 9
REMARK VINA RESULT:      -5.8      2.230      6.382
REMARK  Name = 
REMARK  8 active torsions:
REMARK  status: ('A' for Active; 'I' for Inactive)
REMARK    1  A    between atoms: C_2  and  N_3
REMARK    2  A    between atoms: C_2  and  C_4
REMARK    3  A    between atoms: C_2  and  C_23
REMARK    4  A    between atoms: C_4  and  C_5
REMARK    5  A    between atoms: C_11  and  C_13
REMARK    6  A    between atoms: C_13  and  N_14
REMARK    7  A    between atoms: C_15  and  C_17
REMARK    8  A    between atoms: C_23  and  C_24
REMARK                            x       y       z     vdW  Elec       q    Type
REMARK                         _______ _______ _______ _____ _____    ______ ____
ROOT
ATOM      1  C   UNL     1       7.519  -4.262  22.893  0.00  0.00    +0.217 C 
ATOM      2  N   UNL     1       7.930  -4.223  24.212  0.00  0.00    -0.297 N 
ATOM      3  C   UNL     1       8.288  -2.969  24.880  0.00  0.00    +0.093 C 
ATOM      4  C   UNL     1       8.276  -3.312  26.380  0.00  0.00    +0.025 C 
ATOM      5  C   UNL     1       7.755  -4.744  26.468  0.00  0.00    +0.021 C 
ATOM      6  C   UNL     1       8.094  -5.344  25.118  0.00  0.00    +0.108 C 
ATOM      7  O   UNL     1       7.318  -3.229  22.253  0.00  0.00    -0.276 OA
ENDROOT
BRANCH   1   8
ATOM      8  C   UNL     1       7.343  -5.649  22.291  0.00  0.00    +0.114 C 
BRANCH   8   9
ATOM      9  C   UNL     1       5.942  -5.948  21.721  0.00  0.00    +0.064 C 
BRANCH   9  10
ATOM     10  N   UNL     1       5.972  -5.573  20.288  0.00  0.00    -0.327 NA
ATOM     11  H   UNL     1       5.032  -5.662  19.898  0.00  0.00    +0.118 HD
ATOM     12  H   UNL     1       6.200  -4.582  20.202  0.00  0.00    +0.118 HD
ENDBRANCH   9  10
BRANCH   9  13
ATOM     13  C   UNL     1       4.821  -5.179  22.468  0.00  0.00    +0.057 C 
BRANCH  13  14
ATOM     14  C   UNL     1       4.538  -5.551  23.911  0.00  0.00    -0.011 A 
ATOM     15  C   UNL     1       4.549  -6.869  24.385  0.00  0.00    +0.006 A 
ATOM     16  C   UNL     1       4.380  -7.138  25.752  0.00  0.00    +0.000 A 
ATOM     17  C   UNL     1       4.213  -6.093  26.661  0.00  0.00    +0.003 A 
ATOM     18  C   UNL     1       4.208  -4.779  26.205  0.00  0.00    +0.038 A 
ATOM     19  C   UNL     1       4.372  -4.520  24.847  0.00  0.00    +0.127 A 
ATOM     20  F   UNL     1       4.385  -3.241  24.441  0.00  0.00    -0.205 F 
ENDBRANCH  13  14
ENDBRANCH   9  13
ENDBRANCH   8   9
ENDBRANCH   1   8
BRANCH   3  21
ATOM     21  C   UNL     1       9.667  -2.458  24.407  0.00  0.00    +0.127 C 
BRANCH  21  22
ATOM     22  N   UNL     1       9.682  -1.039  24.093  0.00  0.00    -0.310 N 
ATOM     23  H   UNL     1       9.698  -0.773  23.118  0.00  0.00    +0.149 HD
ATOM     24  C   UNL     1       9.604  -0.073  25.076  0.00  0.00    +0.244 C 
ATOM     25  O   UNL     1       9.487  -0.329  26.269  0.00  0.00    -0.270 OA
BRANCH  24  26
ATOM     26  C   UNL     1       9.608   1.344  24.618  0.00  0.00    +0.037 A 
ATOM     27  C   UNL     1       8.586   2.241  24.950  0.00  0.00    +0.013 A 
ATOM     28  C   UNL     1       8.654   3.568  24.516  0.00  0.00    +0.001 A 
ATOM     29  C   UNL     1       9.733   3.999  23.744  0.00  0.00    +0.000 A 
ATOM     30  C   UNL     1      10.739   3.103  23.388  0.00  0.00    +0.001 A 
ATOM     31  C   UNL     1      10.675   1.777  23.819  0.00  0.00    +0.013 A 
ENDBRANCH  24  26
ENDBRANCH  21  22
ENDBRANCH   3  21
TORSDOF 8
ENDMDL
