MODEL 1
REMARK VINA RESULT:      -7.0      0.000      0.000
REMARK  Name = 
REMARK  13 active torsions:
REMARK  status: ('A' for Active; 'I' for Inactive)
REMARK    1  A    between atoms: C_1  and  C_2
REMARK    2  A    between atoms: C_2  and  C_3
REMARK    3  A    between atoms: C_7  and  N_9
REMARK    4  A    between atoms: C_10  and  C_12
REMARK    5  A    between atoms: C_12  and  C_13
REMARK    6  A    between atoms: C_13  and  C_14
REMARK    7  A    between atoms: C_14  and  C_15
REMARK    8  A    between atoms: C_15  and  C_16
REMARK    9  A    between atoms: C_16  and  N_18
REMARK   10  A    between atoms: C_16  and  C_26
REMARK   11  A    between atoms: C_19  and  C_21
REMARK   12  A    between atoms: C_21  and  N_22
REMARK   13  A    between atoms: C_32  and  C_34
REMARK                            x       y       z     vdW  Elec       q    Type
REMARK                         _______ _______ _______ _____ _____    ______ ____
ROOT
ATOM      1  N   UNK A   1       9.584  -1.602  24.459  0.00  0.00    -0.302 N 
ATOM      2  H   UNK A   1      10.450  -1.921  24.039  0.00  0.00    +0.150 HD
ATOM      3  C   UNK A   0       9.508  -0.335  24.979  0.00  0.00    +0.214 C 
ATOM      4  O   UNK A   0       8.510   0.107  25.539  0.00  0.00    -0.276 OA
ENDROOT
BRANCH   1  10
ATOM      5  C   UNK A   1       4.215  -5.013  23.769  0.00  0.00    +0.025 C 
ATOM      6  C   UNK A   1       5.646  -4.565  24.084  0.00  0.00    +0.037 C 
ATOM      7  C   UNK A   1       6.713  -4.908  23.014  0.00  0.00    +0.138 C 
ATOM      8  N   UNK A   1       7.790  -3.911  23.168  0.00  0.00    -0.276 N 
ATOM      9  C   UNK A   1       7.356  -2.556  23.545  0.00  0.00    +0.164 C 
ATOM     10  C   UNK A   1       8.467  -2.562  24.624  0.00  0.00    +0.190 C 
ATOM     11  C   UNK A   1       8.747  -3.997  24.129  0.00  0.00    +0.240 C 
ATOM     12  O   UNK A   1       9.437  -4.913  24.516  0.00  0.00    -0.273 OA
ATOM     13  S   UNK A   1       5.665  -2.718  24.261  0.00  0.00    -0.127 S 
ATOM     14  C   UNK A   1       6.020  -5.140  25.467  0.00  0.00    +0.025 C 
BRANCH   7  15
ATOM     15  C   UNK A   1       6.111  -4.968  21.579  0.00  0.00    +0.064 C 
ATOM     16  O   ACE A   2       5.751  -3.844  21.115  0.00  0.00    -0.548 OA
ATOM     17  O   ACE A   2       6.049  -6.109  21.035  0.00  0.00    -0.548 OA
ENDBRANCH   7  15
ENDBRANCH   1  10
BRANCH   3  18
ATOM     18  C   UNK A   0      10.773   0.470  24.818  0.00  0.00    +0.096 C 
BRANCH  18  19
ATOM     19  C   UNK A   0      10.532   1.663  23.899  0.00  0.00    +0.009 C 
BRANCH  19  20
ATOM     20  C   UNK A   0      10.242   1.165  22.486  0.00  0.00    +0.003 C 
BRANCH  20  21
ATOM     21  C   UNK A   0       9.063   1.893  21.848  0.00  0.00    +0.028 C 
BRANCH  21  22
ATOM     22  C   UNK A   0       8.124   2.523  22.879  0.00  0.00    +0.119 C 
BRANCH  22  23
ATOM     23  N   UNK A   0       8.016   3.980  22.636  0.00  0.00    -0.303 N 
ATOM     24  H   UNK A   0       7.379   4.081  21.842  0.00  0.00    +0.150 HD
ATOM     25  C   UNK A   1       8.380   5.019  23.433  0.00  0.00    +0.259 C 
ATOM     26  O   UNK A   1       8.803   4.930  24.577  0.00  0.00    -0.270 OA
BRANCH  25  27
ATOM     27  C   UNK A   1       8.274   6.359  22.712  0.00  0.00    +0.225 C 
BRANCH  27  28
ATOM     28  N   UNK A   1       7.465   6.255  21.449  0.00  0.00    +0.225 N 
ATOM     29  H   UNK A   1       7.947   5.755  20.699  0.00  0.00    +0.200 HD
ATOM     30  H   UNK A   1       7.182   7.187  21.110  0.00  0.00    +0.200 HD
ATOM     31  H   UNK A   1       6.574   5.781  21.662  0.00  0.00    +0.200 HD
ENDBRANCH  27  28
ENDBRANCH  25  27
ENDBRANCH  22  23
BRANCH  22  32
ATOM     32  C   UNK A   0       6.641   1.976  22.782  0.00  0.00    +0.062 C 
ATOM     33  O   ACE A   2       5.850   2.888  22.336  0.00  0.00    -0.548 OA
ATOM     34  O   ACE A   2       6.406   0.815  23.197  0.00  0.00    -0.548 OA
ENDBRANCH  22  32
ENDBRANCH  21  22
ENDBRANCH  20  21
ENDBRANCH  19  20
ENDBRANCH  18  19
ENDBRANCH   3  18
TORSDOF 11
ENDMDL
MODEL 2
REMARK VINA RESULT:      -6.9      2.806      7.626
REMARK  Name = 
REMARK  13 active torsions:
REMARK  status: ('A' for Active; 'I' for Inactive)
REMARK    1  A    between atoms: C_1  and  C_2
REMARK    2  A    between atoms: C_2  and  C_3
REMARK    3  A    between atoms: C_7  and  N_9
REMARK    4  A    between atoms: C_10  and  C_12
REMARK    5  A    between atoms: C_12  and  C_13
REMARK    6  A    between atoms: C_13  and  C_14
REMARK    7  A    between atoms: C_14  and  C_15
REMARK    8  A    between atoms: C_15  and  C_16
REMARK    9  A    between atoms: C_16  and  N_18
REMARK   10  A    between atoms: C_16  and  C_26
REMARK   11  A    between atoms: C_19  and  C_21
REMARK   12  A    between atoms: C_21  and  N_22
REMARK   13  A    between atoms: C_32  and  C_34
REMARK                            x       y       z     vdW  Elec       q    Type
REMARK                         _______ _______ _______ _____ _____    ______ ____
ROOT
ATOM      1  N   UNK A   1       7.425  -4.002  22.629  0.00  0.00    -0.302 N 
ATOM      2  H   UNK A   1       6.670  -3.822  21.976  0.00  0.00    +0.150 HD
ATOM      3  C   UNK A   0       7.746  -5.295  22.956  0.00  0.00    +0.214 C 
ATOM      4  O   UNK A   0       8.617  -5.590  23.767  0.00  0.00    -0.276 OA
ENDROOT
BRANCH   1  10
ATOM      5  C   UNK A   1      10.548   1.402  24.035  0.00  0.00    +0.025 C 
ATOM      6  C   UNK A   1       9.575   0.219  24.039  0.00  0.00    +0.037 C 
ATOM      7  C   UNK A   1       8.191   0.480  23.394  0.00  0.00    +0.138 C 
ATOM      8  N   UNK A   1       7.691  -0.831  22.939  0.00  0.00    -0.276 N 
ATOM      9  C   UNK A   1       8.713  -1.763  22.433  0.00  0.00    +0.164 C 
ATOM     10  C   UNK A   1       8.070  -2.859  23.318  0.00  0.00    +0.190 C 
ATOM     11  C   UNK A   1       7.115  -1.735  23.774  0.00  0.00    +0.240 C 
ATOM     12  O   UNK A   1       6.273  -1.630  24.637  0.00  0.00    -0.273 OA
ATOM     13  S   UNK A   1      10.335  -1.180  23.086  0.00  0.00    -0.127 S 
ATOM     14  C   UNK A   1       9.441  -0.268  25.498  0.00  0.00    +0.025 C 
BRANCH   7  15
ATOM     15  C   UNK A   1       8.259   1.554  22.267  0.00  0.00    +0.064 C 
ATOM     16  O   ACE A   2       8.734   1.131  21.170  0.00  0.00    -0.548 OA
ATOM     17  O   ACE A   2       7.837   2.711  22.558  0.00  0.00    -0.548 OA
ENDBRANCH   7  15
ENDBRANCH   1  10
BRANCH   3  18
ATOM     18  C   UNK A   0       6.917  -6.331  22.239  0.00  0.00    +0.096 C 
BRANCH  18  19
ATOM     19  C   UNK A   0       5.591  -5.731  21.783  0.00  0.00    +0.009 C 
BRANCH  19  20
ATOM     20  C   UNK A   0       4.546  -5.917  22.879  0.00  0.00    +0.003 C 
BRANCH  20  21
ATOM     21  C   UNK A   0       4.024  -4.586  23.412  0.00  0.00    +0.028 C 
BRANCH  21  22
ATOM     22  C   UNK A   0       3.781  -4.606  24.922  0.00  0.00    +0.119 C 
BRANCH  22  23
ATOM     23  N   UNK A   0       5.056  -4.377  25.641  0.00  0.00    -0.303 N 
ATOM     24  H   UNK A   0       5.085  -3.374  25.839  0.00  0.00    +0.150 HD
ATOM     25  C   UNK A   1       5.892  -5.275  26.226  0.00  0.00    +0.259 C 
ATOM     26  O   UNK A   1       5.687  -6.475  26.341  0.00  0.00    -0.270 OA
BRANCH  25  27
ATOM     27  C   UNK A   1       7.196  -4.630  26.682  0.00  0.00    +0.225 C 
BRANCH  27  28
ATOM     28  N   UNK A   1       8.315  -5.631  26.778  0.00  0.00    +0.225 N 
ATOM     29  H   UNK A   1       8.988  -5.560  26.013  0.00  0.00    +0.200 HD
ATOM     30  H   UNK A   1       7.949  -6.595  26.823  0.00  0.00    +0.200 HD
ATOM     31  H   UNK A   1       8.800  -5.502  27.679  0.00  0.00    +0.200 HD
ENDBRANCH  27  28
ENDBRANCH  25  27
ENDBRANCH  22  23
BRANCH  22  32
ATOM     32  C   UNK A   0       2.818  -3.446  25.409  0.00  0.00    +0.062 C 
ATOM     33  O   ACE A   2       1.586  -3.770  25.221  0.00  0.00    -0.548 OA
ATOM     34  O   ACE A   2       3.332  -2.380  25.826  0.00  0.00    -0.548 OA
ENDBRANCH  22  32
ENDBRANCH  21  22
ENDBRANCH  20  21
ENDBRANCH  19  20
ENDBRANCH  18  19
ENDBRANCH   3  18
TORSDOF 11
ENDMDL
MODEL 3
REMARK VINA RESULT:      -6.9      2.387      3.687
REMARK  Name = 
REMARK  13 active torsions:
REMARK  status: ('A' for Active; 'I' for Inactive)
REMARK    1  A    between atoms: C_1  and  C_2
REMARK    2  A    between atoms: C_2  and  C_3
REMARK    3  A    between atoms: C_7  and  N_9
REMARK    4  A    between atoms: C_10  and  C_12
REMARK    5  A    between atoms: C_12  and  C_13
REMARK    6  A    between atoms: C_13  and  C_14
REMARK    7  A    between atoms: C_14  and  C_15
REMARK    8  A    between atoms: C_15  and  C_16
REMARK    9  A    between atoms: C_16  and  N_18
REMARK   10  A    between atoms: C_16  and  C_26
REMARK   11  A    between atoms: C_19  and  C_21
REMARK   12  A    between atoms: C_21  and  N_22
REMARK   13  A    between atoms: C_32  and  C_34
REMARK                            x       y       z     vdW  Elec       q    Type
REMARK                         _______ _______ _______ _____ _____    ______ ____
ROOT
ATOM      1  N   UNK A   1       8.208  -2.225  23.078  0.00  0.00    -0.302 N 
ATOM      2  H   UNK A   1       7.680  -2.262  22.213  0.00  0.00    +0.150 HD
ATOM      3  C   UNK A   0       9.368  -1.496  23.135  0.00  0.00    +0.214 C 
ATOM      4  O   UNK A   0      10.081  -1.439  24.132  0.00  0.00    -0.276 OA
ENDROOT
BRANCH   1  10
ATOM      5  C   UNK A   1       4.857  -5.583  27.372  0.00  0.00    +0.025 C 
ATOM      6  C   UNK A   1       5.938  -5.092  26.404  0.00  0.00    +0.037 C 
ATOM      7  C   UNK A   1       5.938  -5.749  25.001  0.00  0.00    +0.138 C 
ATOM      8  N   UNK A   1       6.558  -4.772  24.085  0.00  0.00    -0.276 N 
ATOM      9  C   UNK A   1       6.269  -3.357  24.371  0.00  0.00    +0.164 C 
ATOM     10  C   UNK A   1       7.785  -3.075  24.216  0.00  0.00    +0.190 C 
ATOM     11  C   UNK A   1       7.903  -4.597  23.988  0.00  0.00    +0.240 C 
ATOM     12  O   UNK A   1       8.824  -5.377  23.900  0.00  0.00    -0.273 OA
ATOM     13  S   UNK A   1       5.704  -3.273  26.124  0.00  0.00    -0.127 S 
ATOM     14  C   UNK A   1       7.303  -5.253  27.109  0.00  0.00    +0.025 C 
BRANCH   7  15
ATOM     15  C   UNK A   1       4.515  -6.206  24.564  0.00  0.00    +0.064 C 
ATOM     16  O   ACE A   2       4.363  -7.463  24.508  0.00  0.00    -0.548 OA
ATOM     17  O   ACE A   2       3.675  -5.292  24.317  0.00  0.00    -0.548 OA
ENDBRANCH   7  15
ENDBRANCH   1  10
BRANCH   3  18
ATOM     18  C   UNK A   0       9.704  -0.778  21.852  0.00  0.00    +0.096 C 
BRANCH  18  19
ATOM     19  C   UNK A   0       9.101   0.623  21.852  0.00  0.00    +0.009 C 
BRANCH  19  20
ATOM     20  C   UNK A   0      10.195   1.648  22.134  0.00  0.00    +0.003 C 
BRANCH  20  21
ATOM     21  C   UNK A   0      10.204   2.099  23.591  0.00  0.00    +0.028 C 
BRANCH  21  22
ATOM     22  C   UNK A   0       8.814   2.486  24.102  0.00  0.00    +0.119 C 
BRANCH  22  23
ATOM     23  N   UNK A   0       8.490   1.706  25.318  0.00  0.00    -0.303 N 
ATOM     24  H   UNK A   0       8.878   2.240  26.100  0.00  0.00    +0.150 HD
ATOM     25  C   UNK A   1       7.609   0.684  25.481  0.00  0.00    +0.259 C 
ATOM     26  O   UNK A   1       6.833   0.266  24.633  0.00  0.00    -0.270 OA
BRANCH  25  27
ATOM     27  C   UNK A   1       7.732   0.034  26.855  0.00  0.00    +0.225 C 
BRANCH  27  28
ATOM     28  N   UNK A   1       9.040  -0.690  27.019  0.00  0.00    +0.225 N 
ATOM     29  H   UNK A   1       9.480  -0.936  26.129  0.00  0.00    +0.200 HD
ATOM     30  H   UNK A   1       8.925  -1.542  27.589  0.00  0.00    +0.200 HD
ATOM     31  H   UNK A   1       9.681  -0.100  27.570  0.00  0.00    +0.200 HD
ENDBRANCH  27  28
ENDBRANCH  25  27
ENDBRANCH  22  23
BRANCH  22  32
ATOM     32  C   UNK A   0       8.719   4.004  24.545  0.00  0.00    +0.062 C 
ATOM     33  O   ACE A   2       8.191   4.102  25.715  0.00  0.00    -0.548 OA
ATOM     34  O   ACE A   2       9.075   4.887  23.728  0.00  0.00    -0.548 OA
ENDBRANCH  22  32
ENDBRANCH  21  22
ENDBRANCH  20  21
ENDBRANCH  19  20
ENDBRANCH  18  19
ENDBRANCH   3  18
TORSDOF 11
ENDMDL
MODEL 4
REMARK VINA RESULT:      -6.8      2.590      7.632
REMARK  Name = 
REMARK  13 active torsions:
REMARK  status: ('A' for Active; 'I' for Inactive)
REMARK    1  A    between atoms: C_1  and  C_2
REMARK    2  A    between atoms: C_2  and  C_3
REMARK    3  A    between atoms: C_7  and  N_9
REMARK    4  A    between atoms: C_10  and  C_12
REMARK    5  A    between atoms: C_12  and  C_13
REMARK    6  A    between atoms: C_13  and  C_14
REMARK    7  A    between atoms: C_14  and  C_15
REMARK    8  A    between atoms: C_15  and  C_16
REMARK    9  A    between atoms: C_16  and  N_18
REMARK   10  A    between atoms: C_16  and  C_26
REMARK   11  A    between atoms: C_19  and  C_21
REMARK   12  A    between atoms: C_21  and  N_22
REMARK   13  A    between atoms: C_32  and  C_34
REMARK                            x       y       z     vdW  Elec       q    Type
REMARK                         _______ _______ _______ _____ _____    ______ ____
ROOT
ATOM      1  N   UNK A   1       7.206  -2.158  22.616  0.00  0.00    -0.302 N 
ATOM      2  H   UNK A   1       6.298  -1.794  22.346  0.00  0.00    +0.150 HD
ATOM      3  C   UNK A   0       7.391  -3.512  22.722  0.00  0.00    +0.214 C 
ATOM      4  O   UNK A   0       8.446  -4.024  23.083  0.00  0.00    -0.276 OA
ENDROOT
BRANCH   1  10
ATOM      5  C   UNK A   1      10.805   3.041  23.597  0.00  0.00    +0.025 C 
ATOM      6  C   UNK A   1      10.093   1.692  23.745  0.00  0.00    +0.037 C 
ATOM      7  C   UNK A   1       8.785   1.706  24.576  0.00  0.00    +0.138 C 
ATOM      8  N   UNK A   1       7.975   0.571  24.093  0.00  0.00    -0.276 N 
ATOM      9  C   UNK A   1       8.075   0.283  22.653  0.00  0.00    +0.164 C 
ATOM     10  C   UNK A   1       8.269  -1.209  23.023  0.00  0.00    +0.190 C 
ATOM     11  C   UNK A   1       8.192  -0.713  24.483  0.00  0.00    +0.240 C 
ATOM     12  O   UNK A   1       8.388  -1.216  25.566  0.00  0.00    -0.273 OA
ATOM     13  S   UNK A   1       9.628   1.078  22.057  0.00  0.00    -0.127 S 
ATOM     14  C   UNK A   1      11.116   0.684  24.310  0.00  0.00    +0.025 C 
BRANCH   7  15
ATOM     15  C   UNK A   1       8.053   3.079  24.500  0.00  0.00    +0.064 C 
ATOM     16  O   ACE A   2       7.365   3.248  23.449  0.00  0.00    -0.548 OA
ATOM     17  O   ACE A   2       8.216   3.865  25.479  0.00  0.00    -0.548 OA
ENDBRANCH   7  15
ENDBRANCH   1  10
BRANCH   3  18
ATOM     18  C   UNK A   0       6.171  -4.326  22.370  0.00  0.00    +0.096 C 
BRANCH  18  19
ATOM     19  C   UNK A   0       6.290  -5.737  22.938  0.00  0.00    +0.009 C 
BRANCH  19  20
ATOM     20  C   UNK A   0       5.602  -5.797  24.299  0.00  0.00    +0.003 C 
BRANCH  20  21
ATOM     21  C   UNK A   0       4.888  -4.494  24.644  0.00  0.00    +0.028 C 
BRANCH  21  22
ATOM     22  C   UNK A   0       5.413  -3.850  25.928  0.00  0.00    +0.119 C 
BRANCH  22  23
ATOM     23  N   UNK A   0       6.890  -3.955  25.976  0.00  0.00    -0.303 N 
ATOM     24  H   UNK A   0       7.240  -3.202  25.379  0.00  0.00    +0.150 HD
ATOM     25  C   UNK A   1       7.681  -4.648  26.837  0.00  0.00    +0.259 C 
ATOM     26  O   UNK A   1       7.297  -5.267  27.820  0.00  0.00    -0.270 OA
BRANCH  25  27
ATOM     27  C   UNK A   1       9.143  -4.641  26.406  0.00  0.00    +0.225 C 
BRANCH  27  28
ATOM     28  N   UNK A   1       9.456  -5.766  25.459  0.00  0.00    +0.225 N 
ATOM     29  H   UNK A   1       8.727  -6.482  25.426  0.00  0.00    +0.200 HD
ATOM     30  H   UNK A   1      10.358  -6.209  25.690  0.00  0.00    +0.200 HD
ATOM     31  H   UNK A   1       9.598  -5.377  24.515  0.00  0.00    +0.200 HD
ENDBRANCH  27  28
ENDBRANCH  25  27
ENDBRANCH  22  23
BRANCH  22  32
ATOM     32  C   UNK A   0       5.106  -2.298  26.013  0.00  0.00    +0.062 C 
ATOM     33  O   ACE A   2       4.944  -1.803  24.836  0.00  0.00    -0.548 OA
ATOM     34  O   ACE A   2       5.130  -1.747  27.140  0.00  0.00    -0.548 OA
ENDBRANCH  22  32
ENDBRANCH  21  22
ENDBRANCH  20  21
ENDBRANCH  19  20
ENDBRANCH  18  19
ENDBRANCH   3  18
TORSDOF 11
ENDMDL
MODEL 5
REMARK VINA RESULT:      -6.7      2.287      4.046
REMARK  Name = 
REMARK  13 active torsions:
REMARK  status: ('A' for Active; 'I' for Inactive)
REMARK    1  A    between atoms: C_1  and  C_2
REMARK    2  A    between atoms: C_2  and  C_3
REMARK    3  A    between atoms: C_7  and  N_9
REMARK    4  A    between atoms: C_10  and  C_12
REMARK    5  A    between atoms: C_12  and  C_13
REMARK    6  A    between atoms: C_13  and  C_14
REMARK    7  A    between atoms: C_14  and  C_15
REMARK    8  A    between atoms: C_15  and  C_16
REMARK    9  A    between atoms: C_16  and  N_18
REMARK   10  A    between atoms: C_16  and  C_26
REMARK   11  A    between atoms: C_19  and  C_21
REMARK   12  A    between atoms: C_21  and  N_22
REMARK   13  A    between atoms: C_32  and  C_34
REMARK                            x       y       z     vdW  Elec       q    Type
REMARK                         _______ _______ _______ _____ _____    ______ ____
ROOT
ATOM      1  N   UNK A   1       8.334  -2.079  22.564  0.00  0.00    -0.302 N 
ATOM      2  H   UNK A   1       7.995  -1.372  21.920  0.00  0.00    +0.150 HD
ATOM      3  C   UNK A   0       9.609  -1.990  23.060  0.00  0.00    +0.214 C 
ATOM      4  O   UNK A   0      10.103  -2.827  23.809  0.00  0.00    -0.276 OA
ENDROOT
BRANCH   1  10
ATOM      5  C   UNK A   1       4.407  -6.387  25.201  0.00  0.00    +0.025 C 
ATOM      6  C   UNK A   1       5.154  -5.484  24.215  0.00  0.00    +0.037 C 
ATOM      7  C   UNK A   1       4.422  -4.182  23.803  0.00  0.00    +0.138 C 
ATOM      8  N   UNK A   1       5.471  -3.221  23.414  0.00  0.00    -0.276 N 
ATOM      9  C   UNK A   1       6.722  -3.294  24.187  0.00  0.00    +0.164 C 
ATOM     10  C   UNK A   1       7.489  -3.265  22.842  0.00  0.00    +0.190 C 
ATOM     11  C   UNK A   1       6.085  -3.243  22.201  0.00  0.00    +0.240 C 
ATOM     12  O   UNK A   1       5.661  -3.351  21.073  0.00  0.00    -0.273 OA
ATOM     13  S   UNK A   1       6.755  -4.954  24.990  0.00  0.00    -0.127 S 
ATOM     14  C   UNK A   1       5.526  -6.342  22.987  0.00  0.00    +0.025 C 
BRANCH   7  15
ATOM     15  C   UNK A   1       3.472  -3.659  24.921  0.00  0.00    +0.064 C 
ATOM     16  O   ACE A   2       2.251  -3.953  24.751  0.00  0.00    -0.548 OA
ATOM     17  O   ACE A   2       4.010  -3.012  25.867  0.00  0.00    -0.548 OA
ENDBRANCH   7  15
ENDBRANCH   1  10
BRANCH   3  18
ATOM     18  C   UNK A   0      10.366  -0.773  22.590  0.00  0.00    +0.096 C 
BRANCH  18  19
ATOM     19  C   UNK A   0       9.477   0.099  21.708  0.00  0.00    +0.009 C 
BRANCH  19  20
ATOM     20  C   UNK A   0       9.910   1.556  21.833  0.00  0.00    +0.003 C 
BRANCH  20  21
ATOM     21  C   UNK A   0      10.177   1.958  23.280  0.00  0.00    +0.028 C 
BRANCH  21  22
ATOM     22  C   UNK A   0       8.920   2.451  24.001  0.00  0.00    +0.119 C 
BRANCH  22  23
ATOM     23  N   UNK A   0       8.649   1.595  25.179  0.00  0.00    -0.303 N 
ATOM     24  H   UNK A   0       8.986   2.124  25.988  0.00  0.00    +0.150 HD
ATOM     25  C   UNK A   1       7.851   0.500  25.287  0.00  0.00    +0.259 C 
ATOM     26  O   UNK A   1       7.119   0.059  24.413  0.00  0.00    -0.270 OA
BRANCH  25  27
ATOM     27  C   UNK A   1       8.014  -0.197  26.633  0.00  0.00    +0.225 C 
BRANCH  27  28
ATOM     28  N   UNK A   1       8.758  -1.498  26.506  0.00  0.00    +0.225 N 
ATOM     29  H   UNK A   1       9.365  -1.539  25.684  0.00  0.00    +0.200 HD
ATOM     30  H   UNK A   1       8.108  -2.299  26.490  0.00  0.00    +0.200 HD
ATOM     31  H   UNK A   1       9.320  -1.645  27.358  0.00  0.00    +0.200 HD
ENDBRANCH  27  28
ENDBRANCH  25  27
ENDBRANCH  22  23
BRANCH  22  32
ATOM     32  C   UNK A   0       9.074   3.917  24.581  0.00  0.00    +0.062 C 
ATOM     33  O   ACE A   2       8.283   4.094  25.580  0.00  0.00    -0.548 OA
ATOM     34  O   ACE A   2       9.844   4.713  23.991  0.00  0.00    -0.548 OA
ENDBRANCH  22  32
ENDBRANCH  21  22
ENDBRANCH  20  21
ENDBRANCH  19  20
ENDBRANCH  18  19
ENDBRANCH   3  18
TORSDOF 11
ENDMDL
MODEL 6
REMARK VINA RESULT:      -6.5      2.056      2.802
REMARK  Name = 
REMARK  13 active torsions:
REMARK  status: ('A' for Active; 'I' for Inactive)
REMARK    1  A    between atoms: C_1  and  C_2
REMARK    2  A    between atoms: C_2  and  C_3
REMARK    3  A    between atoms: C_7  and  N_9
REMARK    4  A    between atoms: C_10  and  C_12
REMARK    5  A    between atoms: C_12  and  C_13
REMARK    6  A    between atoms: C_13  and  C_14
REMARK    7  A    between atoms: C_14  and  C_15
REMARK    8  A    between atoms: C_15  and  C_16
REMARK    9  A    between atoms: C_16  and  N_18
REMARK   10  A    between atoms: C_16  and  C_26
REMARK   11  A    between atoms: C_19  and  C_21
REMARK   12  A    between atoms: C_21  and  N_22
REMARK   13  A    between atoms: C_32  and  C_34
REMARK                            x       y       z     vdW  Elec       q    Type
REMARK                         _______ _______ _______ _____ _____    ______ ____
ROOT
ATOM      1  N   UNK A   1       8.652  -0.375  23.874  0.00  0.00    -0.302 N 
ATOM      2  H   UNK A   1       8.479   0.033  22.962  0.00  0.00    +0.150 HD
ATOM      3  C   UNK A   0       9.562   0.210  24.718  0.00  0.00    +0.214 C 
ATOM      4  O   UNK A   0       9.854  -0.248  25.818  0.00  0.00    -0.276 OA
ENDROOT
BRANCH   1  10
ATOM      5  C   UNK A   1       4.976  -5.610  24.012  0.00  0.00    +0.025 C 
ATOM      6  C   UNK A   1       6.148  -4.630  24.119  0.00  0.00    +0.037 C 
ATOM      7  C   UNK A   1       7.137  -4.626  22.925  0.00  0.00    +0.138 C 
ATOM      8  N   UNK A   1       7.755  -3.286  22.904  0.00  0.00    -0.276 N 
ATOM      9  C   UNK A   1       6.877  -2.172  23.296  0.00  0.00    +0.164 C 
ATOM     10  C   UNK A   1       8.019  -1.671  24.216  0.00  0.00    +0.190 C 
ATOM     11  C   UNK A   1       8.773  -2.927  23.729  0.00  0.00    +0.240 C 
ATOM     12  O   UNK A   1       9.802  -3.479  24.046  0.00  0.00    -0.273 OA
ATOM     13  S   UNK A   1       5.473  -2.906  24.238  0.00  0.00    -0.127 S 
ATOM     14  C   UNK A   1       6.870  -4.910  25.455  0.00  0.00    +0.025 C 
BRANCH   7  15
ATOM     15  C   UNK A   1       6.446  -5.022  21.586  0.00  0.00    +0.064 C 
ATOM     16  O   ACE A   2       6.672  -6.212  21.213  0.00  0.00    -0.548 OA
ATOM     17  O   ACE A   2       5.743  -4.132  21.024  0.00  0.00    -0.548 OA
ENDBRANCH   7  15
ENDBRANCH   1  10
BRANCH   3  18
ATOM     18  C   UNK A   0      10.190   1.464  24.166  0.00  0.00    +0.096 C 
BRANCH  18  19
ATOM     19  C   UNK A   0       9.442   1.932  22.921  0.00  0.00    +0.009 C 
BRANCH  19  20
ATOM     20  C   UNK A   0       8.526   3.096  23.286  0.00  0.00    +0.003 C 
BRANCH  20  21
ATOM     21  C   UNK A   0       8.966   3.799  24.566  0.00  0.00    +0.028 C 
BRANCH  21  22
ATOM     22  C   UNK A   0       9.275   5.282  24.354  0.00  0.00    +0.119 C 
BRANCH  22  23
ATOM     23  N   UNK A   0      10.456   5.429  23.471  0.00  0.00    -0.303 N 
ATOM     24  H   UNK A   0      10.101   5.328  22.517  0.00  0.00    +0.150 HD
ATOM     25  C   UNK A   1      11.695   5.910  23.757  0.00  0.00    +0.259 C 
ATOM     26  O   UNK A   1      12.042   6.406  24.819  0.00  0.00    -0.270 OA
BRANCH  25  27
ATOM     27  C   UNK A   1      12.671   5.699  22.604  0.00  0.00    +0.225 C 
BRANCH  27  28
ATOM     28  N   UNK A   1      13.946   5.044  23.060  0.00  0.00    +0.225 N 
ATOM     29  H   UNK A   1      14.203   4.227  22.503  0.00  0.00    +0.200 HD
ATOM     30  H   UNK A   1      13.891   4.775  24.055  0.00  0.00    +0.200 HD
ATOM     31  H   UNK A   1      14.707   5.739  23.026  0.00  0.00    +0.200 HD
ENDBRANCH  27  28
ENDBRANCH  25  27
ENDBRANCH  22  23
BRANCH  22  32
ATOM     32  C   UNK A   0       8.108   6.059  23.616  0.00  0.00    +0.062 C 
ATOM     33  O   ACE A   2       7.059   6.114  24.360  0.00  0.00    -0.548 OA
ATOM     34  O   ACE A   2       8.299   6.440  22.436  0.00  0.00    -0.548 OA
ENDBRANCH  22  32
ENDBRANCH  21  22
ENDBRANCH  20  21
ENDBRANCH  19  20
ENDBRANCH  18  19
ENDBRANCH   3  18
TORSDOF 11
ENDMDL
MODEL 7
REMARK VINA RESULT:      -6.5      2.007      3.630
REMARK  Name = 
REMARK  13 active torsions:
REMARK  status: ('A' for Active; 'I' for Inactive)
REMARK    1  A    between atoms: C_1  and  C_2
REMARK    2  A    between atoms: C_2  and  C_3
REMARK    3  A    between atoms: C_7  and  N_9
REMARK    4  A    between atoms: C_10  and  C_12
REMARK    5  A    between atoms: C_12  and  C_13
REMARK    6  A    between atoms: C_13  and  C_14
REMARK    7  A    between atoms: C_14  and  C_15
REMARK    8  A    between atoms: C_15  and  C_16
REMARK    9  A    between atoms: C_16  and  N_18
REMARK   10  A    between atoms: C_16  and  C_26
REMARK   11  A    between atoms: C_19  and  C_21
REMARK   12  A    between atoms: C_21  and  N_22
REMARK   13  A    between atoms: C_32  and  C_34
REMARK                            x       y       z     vdW  Elec       q    Type
REMARK                         _______ _______ _______ _____ _____    ______ ____
ROOT
ATOM      1  N   UNK A   1       6.663   0.692  23.632  0.00  0.00    -0.302 N 
ATOM      2  H   UNK A   1       7.263   1.129  22.940  0.00  0.00    +0.150 HD
ATOM      3  C   UNK A   0       5.676   1.428  24.236  0.00  0.00    +0.214 C 
ATOM      4  O   UNK A   0       4.939   0.981  25.110  0.00  0.00    -0.276 OA
ENDROOT
BRANCH   1  10
ATOM      5  C   UNK A   1       6.539  -5.619  24.678  0.00  0.00    +0.025 C 
ATOM      6  C   UNK A   1       6.987  -4.176  24.424  0.00  0.00    +0.037 C 
ATOM      7  C   UNK A   1       7.319  -3.821  22.952  0.00  0.00    +0.138 C 
ATOM      8  N   UNK A   1       7.105  -2.368  22.817  0.00  0.00    -0.276 N 
ATOM      9  C   UNK A   1       5.994  -1.810  23.606  0.00  0.00    +0.164 C 
ATOM     10  C   UNK A   1       6.959  -0.692  24.071  0.00  0.00    +0.190 C 
ATOM     11  C   UNK A   1       8.013  -1.444  23.230  0.00  0.00    +0.240 C 
ATOM     12  O   UNK A   1       9.212  -1.356  23.089  0.00  0.00    -0.273 OA
ATOM     13  S   UNK A   1       5.621  -3.030  24.937  0.00  0.00    -0.127 S 
ATOM     14  C   UNK A   1       8.178  -3.884  25.362  0.00  0.00    +0.025 C 
BRANCH   7  15
ATOM     15  C   UNK A   1       6.498  -4.675  21.940  0.00  0.00    +0.064 C 
ATOM     16  O   ACE A   2       7.151  -5.617  21.400  0.00  0.00    -0.548 OA
ATOM     17  O   ACE A   2       5.287  -4.346  21.769  0.00  0.00    -0.548 OA
ENDBRANCH   7  15
ENDBRANCH   1  10
BRANCH   3  18
ATOM     18  C   UNK A   0       5.583   2.850  23.743  0.00  0.00    +0.096 C 
BRANCH  18  19
ATOM     19  C   UNK A   0       6.216   2.977  22.361  0.00  0.00    +0.009 C 
BRANCH  19  20
ATOM     20  C   UNK A   0       7.031   4.264  22.291  0.00  0.00    +0.003 C 
BRANCH  20  21
ATOM     21  C   UNK A   0       7.373   4.808  23.674  0.00  0.00    +0.028 C 
BRANCH  21  22
ATOM     22  C   UNK A   0       8.869   4.736  23.988  0.00  0.00    +0.119 C 
BRANCH  22  23
ATOM     23  N   UNK A   0       9.515   3.716  23.130  0.00  0.00    -0.303 N 
ATOM     24  H   UNK A   0       9.991   4.239  22.391  0.00  0.00    +0.150 HD
ATOM     25  C   UNK A   1       9.745   2.399  23.376  0.00  0.00    +0.259 C 
ATOM     26  O   UNK A   1       9.525   1.819  24.429  0.00  0.00    -0.270 OA
BRANCH  25  27
ATOM     27  C   UNK A   1      10.258   1.667  22.141  0.00  0.00    +0.225 C 
BRANCH  27  28
ATOM     28  N   UNK A   1       9.143   1.300  21.200  0.00  0.00    +0.225 N 
ATOM     29  H   UNK A   1       8.232   1.237  21.659  0.00  0.00    +0.200 HD
ATOM     30  H   UNK A   1       9.343   0.413  20.714  0.00  0.00    +0.200 HD
ATOM     31  H   UNK A   1       9.102   2.001  20.445  0.00  0.00    +0.200 HD
ENDBRANCH  27  28
ENDBRANCH  25  27
ENDBRANCH  22  23
BRANCH  22  32
ATOM     32  C   UNK A   0       9.634   6.087  23.672  0.00  0.00    +0.062 C 
ATOM     33  O   ACE A   2       8.804   7.067  23.582  0.00  0.00    -0.548 OA
ATOM     34  O   ACE A   2      10.873   6.039  23.482  0.00  0.00    -0.548 OA
ENDBRANCH  22  32
ENDBRANCH  21  22
ENDBRANCH  20  21
ENDBRANCH  19  20
ENDBRANCH  18  19
ENDBRANCH   3  18
TORSDOF 11
ENDMDL
MODEL 8
REMARK VINA RESULT:      -6.5      1.325      2.570
REMARK  Name = 
REMARK  13 active torsions:
REMARK  status: ('A' for Active; 'I' for Inactive)
REMARK    1  A    between atoms: C_1  and  C_2
REMARK    2  A    between atoms: C_2  and  C_3
REMARK    3  A    between atoms: C_7  and  N_9
REMARK    4  A    between atoms: C_10  and  C_12
REMARK    5  A    between atoms: C_12  and  C_13
REMARK    6  A    between atoms: C_13  and  C_14
REMARK    7  A    between atoms: C_14  and  C_15
REMARK    8  A    between atoms: C_15  and  C_16
REMARK    9  A    between atoms: C_16  and  N_18
REMARK   10  A    between atoms: C_16  and  C_26
REMARK   11  A    between atoms: C_19  and  C_21
REMARK   12  A    between atoms: C_21  and  N_22
REMARK   13  A    between atoms: C_32  and  C_34
REMARK                            x       y       z     vdW  Elec       q    Type
REMARK                         _______ _______ _______ _____ _____    ______ ____
ROOT
ATOM      1  N   UNK A   1       9.097  -1.047  24.125  0.00  0.00    -0.302 N 
ATOM      2  H   UNK A   1       9.487  -0.916  23.197  0.00  0.00    +0.150 HD
ATOM      3  C   UNK A   0       9.541  -0.268  25.163  0.00  0.00    +0.214 C 
ATOM      4  O   UNK A   0       9.149  -0.396  26.318  0.00  0.00    -0.276 OA
ENDROOT
BRANCH   1  10
ATOM      5  C   UNK A   1       4.363  -5.332  23.722  0.00  0.00    +0.025 C 
ATOM      6  C   UNK A   1       5.704  -4.637  23.981  0.00  0.00    +0.037 C 
ATOM      7  C   UNK A   1       6.795  -4.851  22.902  0.00  0.00    +0.138 C 
ATOM      8  N   UNK A   1       7.693  -3.683  22.984  0.00  0.00    -0.276 N 
ATOM      9  C   UNK A   1       7.045  -2.401  23.309  0.00  0.00    +0.164 C 
ATOM     10  C   UNK A   1       8.159  -2.170  24.360  0.00  0.00    +0.190 C 
ATOM     11  C   UNK A   1       8.667  -3.561  23.924  0.00  0.00    +0.240 C 
ATOM     12  O   UNK A   1       9.507  -4.329  24.336  0.00  0.00    -0.273 OA
ATOM     13  S   UNK A   1       5.417  -2.807  24.073  0.00  0.00    -0.127 S 
ATOM     14  C   UNK A   1       6.192  -5.074  25.380  0.00  0.00    +0.025 C 
BRANCH   7  15
ATOM     15  C   UNK A   1       6.188  -5.080  21.486  0.00  0.00    +0.064 C 
ATOM     16  O   ACE A   2       5.752  -4.029  20.928  0.00  0.00    -0.548 OA
ATOM     17  O   ACE A   2       6.197  -6.268  21.049  0.00  0.00    -0.548 OA
ENDBRANCH   7  15
ENDBRANCH   1  10
BRANCH   3  18
ATOM     18  C   UNK A   0      10.575   0.755  24.763  0.00  0.00    +0.096 C 
BRANCH  18  19
ATOM     19  C   UNK A   0      10.404   1.139  23.297  0.00  0.00    +0.009 C 
BRANCH  19  20
ATOM     20  C   UNK A   0      10.593   2.644  23.140  0.00  0.00    +0.003 C 
BRANCH  20  21
ATOM     21  C   UNK A   0       9.532   3.441  23.892  0.00  0.00    +0.028 C 
BRANCH  21  22
ATOM     22  C   UNK A   0       8.206   3.529  23.133  0.00  0.00    +0.119 C 
BRANCH  22  23
ATOM     23  N   UNK A   0       7.170   2.739  23.838  0.00  0.00    -0.303 N 
ATOM     24  H   UNK A   0       6.698   3.397  24.463  0.00  0.00    +0.150 HD
ATOM     25  C   UNK A   1       6.676   1.506  23.548  0.00  0.00    +0.259 C 
ATOM     26  O   UNK A   1       6.953   0.838  22.562  0.00  0.00    -0.270 OA
BRANCH  25  27
ATOM     27  C   UNK A   1       5.760   0.982  24.649  0.00  0.00    +0.225 C 
BRANCH  27  28
ATOM     28  N   UNK A   1       6.386   1.115  26.011  0.00  0.00    +0.225 N 
ATOM     29  H   UNK A   1       5.808   0.728  26.760  0.00  0.00    +0.200 HD
ATOM     30  H   UNK A   1       6.608   2.099  26.224  0.00  0.00    +0.200 HD
ATOM     31  H   UNK A   1       7.303   0.643  26.003  0.00  0.00    +0.200 HD
ENDBRANCH  27  28
ENDBRANCH  25  27
ENDBRANCH  22  23
BRANCH  22  32
ATOM     32  C   UNK A   0       7.628   5.002  23.064  0.00  0.00    +0.062 C 
ATOM     33  O   ACE A   2       8.580   5.866  23.135  0.00  0.00    -0.548 OA
ATOM     34  O   ACE A   2       6.382   5.152  23.029  0.00  0.00    -0.548 OA
ENDBRANCH  22  32
ENDBRANCH  21  22
ENDBRANCH  20  21
ENDBRANCH  19  20
ENDBRANCH  18  19
ENDBRANCH   3  18
TORSDOF 11
ENDMDL
MODEL 9
REMARK VINA RESULT:      -6.4      1.956      2.698
REMARK  Name = 
REMARK  13 active torsions:
REMARK  status: ('A' for Active; 'I' for Inactive)
REMARK    1  A    between atoms: C_1  and  C_2
REMARK    2  A    between atoms: C_2  and  C_3
REMARK    3  A    between atoms: C_7  and  N_9
REMARK    4  A    between atoms: C_10  and  C_12
REMARK    5  A    between atoms: C_12  and  C_13
REMARK    6  A    between atoms: C_13  and  C_14
REMARK    7  A    between atoms: C_14  and  C_15
REMARK    8  A    between atoms: C_15  and  C_16
REMARK    9  A    between atoms: C_16  and  N_18
REMARK   10  A    between atoms: C_16  and  C_26
REMARK   11  A    between atoms: C_19  and  C_21
REMARK   12  A    between atoms: C_21  and  N_22
REMARK   13  A    between atoms: C_32  and  C_34
REMARK                            x       y       z     vdW  Elec       q    Type
REMARK                         _______ _______ _______ _____ _____    ______ ____
ROOT
ATOM      1  N   UNK A   1       8.353  -2.119  22.612  0.00  0.00    -0.302 N 
ATOM      2  H   UNK A   1       8.031  -1.416  21.955  0.00  0.00    +0.150 HD
ATOM      3  C   UNK A   0       9.642  -2.071  23.080  0.00  0.00    +0.214 C 
ATOM      4  O   UNK A   0      10.115  -2.908  23.842  0.00  0.00    -0.276 OA
ENDROOT
BRANCH   1  10
ATOM      5  C   UNK A   1       4.288  -6.170  25.440  0.00  0.00    +0.025 C 
ATOM      6  C   UNK A   1       5.059  -5.332  24.415  0.00  0.00    +0.037 C 
ATOM      7  C   UNK A   1       4.375  -4.017  23.964  0.00  0.00    +0.138 C 
ATOM      8  N   UNK A   1       5.457  -3.113  23.531  0.00  0.00    -0.276 N 
ATOM      9  C   UNK A   1       6.713  -3.211  24.294  0.00  0.00    +0.164 C 
ATOM     10  C   UNK A   1       7.465  -3.259  22.940  0.00  0.00    +0.190 C 
ATOM     11  C   UNK A   1       6.055  -3.203  22.314  0.00  0.00    +0.240 C 
ATOM     12  O   UNK A   1       5.614  -3.332  21.194  0.00  0.00    -0.273 OA
ATOM     13  S   UNK A   1       6.688  -4.841  25.154  0.00  0.00    -0.127 S 
ATOM     14  C   UNK A   1       5.382  -6.247  23.214  0.00  0.00    +0.025 C 
BRANCH   7  15
ATOM     15  C   UNK A   1       3.460  -3.418  25.074  0.00  0.00    +0.064 C 
ATOM     16  O   ACE A   2       4.077  -2.742  25.951  0.00  0.00    -0.548 OA
ATOM     17  O   ACE A   2       2.221  -3.661  24.983  0.00  0.00    -0.548 OA
ENDBRANCH   7  15
ENDBRANCH   1  10
BRANCH   3  18
ATOM     18  C   UNK A   0      10.439  -0.901  22.560  0.00  0.00    +0.096 C 
BRANCH  18  19
ATOM     19  C   UNK A   0       9.630  -0.121  21.529  0.00  0.00    +0.009 C 
BRANCH  19  20
ATOM     20  C   UNK A   0       9.689   1.368  21.856  0.00  0.00    +0.003 C 
BRANCH  20  21
ATOM     21  C   UNK A   0       9.527   1.638  23.348  0.00  0.00    +0.028 C 
BRANCH  21  22
ATOM     22  C   UNK A   0       8.220   2.360  23.684  0.00  0.00    +0.119 C 
BRANCH  22  23
ATOM     23  N   UNK A   0       8.276   3.756  23.190  0.00  0.00    -0.303 N 
ATOM     24  H   UNK A   0       7.888   3.729  22.244  0.00  0.00    +0.150 HD
ATOM     25  C   UNK A   1       8.474   4.910  23.880  0.00  0.00    +0.259 C 
ATOM     26  O   UNK A   1       8.561   5.011  25.096  0.00  0.00    -0.270 OA
BRANCH  25  27
ATOM     27  C   UNK A   1       8.655   6.107  22.954  0.00  0.00    +0.225 C 
BRANCH  27  28
ATOM     28  N   UNK A   1       7.764   6.023  21.745  0.00  0.00    +0.225 N 
ATOM     29  H   UNK A   1       7.028   6.732  21.734  0.00  0.00    +0.200 HD
ATOM     30  H   UNK A   1       7.337   5.087  21.662  0.00  0.00    +0.200 HD
ATOM     31  H   UNK A   1       8.344   6.114  20.897  0.00  0.00    +0.200 HD
ENDBRANCH  27  28
ENDBRANCH  25  27
ENDBRANCH  22  23
BRANCH  22  32
ATOM     32  C   UNK A   0       6.959   1.719  22.971  0.00  0.00    +0.062 C 
ATOM     33  O   ACE A   2       6.358   2.592  22.241  0.00  0.00    -0.548 OA
ATOM     34  O   ACE A   2       6.662   0.530  23.242  0.00  0.00    -0.548 OA
ENDBRANCH  22  32
ENDBRANCH  21  22
ENDBRANCH  20  21
ENDBRANCH  19  20
ENDBRANCH  18  19
ENDBRANCH   3  18
TORSDOF 11
ENDMDL
