MODEL 1
REMARK VINA RESULT:      -4.6      0.000      0.000
REMARK  Name = 
REMARK  3 active torsions:
REMARK  status: ('A' for Active; 'I' for Inactive)
REMARK    1  A    between atoms: C_1  and  C_2
REMARK    2  A    between atoms: C_2  and  C_3
REMARK    3  A    between atoms: C_3  and  C_4
REMARK                            x       y       z     vdW  Elec       q    Type
REMARK                         _______ _______ _______ _____ _____    ______ ____
ROOT
ATOM      1  C   UNL     1       9.352  -2.004  23.017  0.00  0.00    +0.023 A 
ATOM      2  N   UNL     1       9.677  -2.849  24.053  0.00  0.00    -0.339 N 
ATOM      3  H   UNL     1      10.488  -2.652  24.630  0.00  0.00    +0.167 HD
ATOM      4  C   UNL     1       8.966  -3.974  24.362  0.00  0.00    +0.158 A 
ATOM      5  S   UNL     1       9.418  -4.970  25.613  0.00  0.00    -0.013 S 
ATOM      6  N   UNL     1       7.872  -4.235  23.592  0.00  0.00    -0.303 N 
ATOM      7  H   UNL     1       7.318  -5.054  23.798  0.00  0.00    +0.171 HD
ATOM      8  C   UNL     1       7.449  -3.452  22.553  0.00  0.00    +0.252 A 
ATOM      9  O   UNL     1       6.448  -3.705  21.892  0.00  0.00    -0.268 OA
ATOM     10  C   UNL     1       8.272  -2.260  22.264  0.00  0.00    +0.091 A 
ENDROOT
BRANCH   1  11
ATOM     11  C   UNL     1      10.234  -0.800  22.798  0.00  0.00    +0.053 C 
BRANCH  11  13
ATOM     12  C   UNL     1       9.938   1.579  22.015  0.00  0.00    +0.004 C 
ATOM     13  C   UNL     1       9.728   0.110  21.675  0.00  0.00    +0.003 C 
ENDBRANCH  11  13
ENDBRANCH   1  11
TORSDOF 2
ENDMDL
MODEL 2
REMARK VINA RESULT:      -4.5      2.288      2.577
REMARK  Name = 
REMARK  3 active torsions:
REMARK  status: ('A' for Active; 'I' for Inactive)
REMARK    1  A    between atoms: C_1  and  C_2
REMARK    2  A    between atoms: C_2  and  C_3
REMARK    3  A    between atoms: C_3  and  C_4
REMARK                            x       y       z     vdW  Elec       q    Type
REMARK                         _______ _______ _______ _____ _____    ______ ____
ROOT
ATOM      1  C   UNL     1       9.411  -1.843  22.811  0.00  0.00    +0.023 A 
ATOM      2  N   UNL     1       8.179  -2.103  22.256  0.00  0.00    -0.339 N 
ATOM      3  H   UNL     1       7.859  -1.561  21.461  0.00  0.00    +0.167 HD
ATOM      4  C   UNL     1       7.328  -3.064  22.722  0.00  0.00    +0.158 A 
ATOM      5  S   UNL     1       5.841  -3.320  22.024  0.00  0.00    -0.013 S 
ATOM      6  N   UNL     1       7.761  -3.799  23.786  0.00  0.00    -0.303 N 
ATOM      7  H   UNL     1       7.160  -4.524  24.151  0.00  0.00    +0.171 HD
ATOM      8  C   UNL     1       8.972  -3.638  24.399  0.00  0.00    +0.252 A 
ATOM      9  O   UNL     1       9.339  -4.329  25.342  0.00  0.00    -0.268 OA
ATOM     10  C   UNL     1       9.836  -2.571  23.854  0.00  0.00    +0.091 A 
ENDROOT
BRANCH   1  11
ATOM     11  C   UNL     1      10.239  -0.749  22.186  0.00  0.00    +0.053 C 
BRANCH  11  13
ATOM     12  C   UNL     1       9.853   1.736  21.988  0.00  0.00    +0.004 C 
ATOM     13  C   UNL     1       9.385   0.355  21.554  0.00  0.00    +0.003 C 
ENDBRANCH  11  13
ENDBRANCH   1  11
TORSDOF 2
ENDMDL
MODEL 3
REMARK VINA RESULT:      -4.5      3.862      4.641
REMARK  Name = 
REMARK  3 active torsions:
REMARK  status: ('A' for Active; 'I' for Inactive)
REMARK    1  A    between atoms: C_1  and  C_2
REMARK    2  A    between atoms: C_2  and  C_3
REMARK    3  A    between atoms: C_3  and  C_4
REMARK                            x       y       z     vdW  Elec       q    Type
REMARK                         _______ _______ _______ _____ _____    ______ ____
ROOT
ATOM      1  C   UNL     1       7.280  -4.915  23.332  0.00  0.00    +0.023 A 
ATOM      2  N   UNL     1       6.286  -5.497  24.085  0.00  0.00    -0.339 N 
ATOM      3  H   UNL     1       6.331  -5.456  25.098  0.00  0.00    +0.167 HD
ATOM      4  C   UNL     1       5.217  -6.154  23.547  0.00  0.00    +0.158 A 
ATOM      5  S   UNL     1       4.057  -6.857  24.509  0.00  0.00    -0.013 S 
ATOM      6  N   UNL     1       5.152  -6.203  22.187  0.00  0.00    -0.303 N 
ATOM      7  H   UNL     1       4.369  -6.674  21.755  0.00  0.00    +0.171 HD
ATOM      8  C   UNL     1       6.071  -5.641  21.345  0.00  0.00    +0.252 A 
ATOM      9  O   UNL     1       5.973  -5.686  20.124  0.00  0.00    -0.268 OA
ATOM     10  C   UNL     1       7.210  -4.960  21.993  0.00  0.00    +0.091 A 
ENDROOT
BRANCH   1  11
ATOM     11  C   UNL     1       8.399  -4.224  24.070  0.00  0.00    +0.053 C 
BRANCH  11  13
ATOM     12  C   UNL     1       8.956  -4.583  26.503  0.00  0.00    +0.004 C 
ATOM     13  C   UNL     1       9.087  -5.134  25.091  0.00  0.00    +0.003 C 
ENDBRANCH  11  13
ENDBRANCH   1  11
TORSDOF 2
ENDMDL
MODEL 4
REMARK VINA RESULT:      -4.4      4.329      5.080
REMARK  Name = 
REMARK  3 active torsions:
REMARK  status: ('A' for Active; 'I' for Inactive)
REMARK    1  A    between atoms: C_1  and  C_2
REMARK    2  A    between atoms: C_2  and  C_3
REMARK    3  A    between atoms: C_3  and  C_4
REMARK                            x       y       z     vdW  Elec       q    Type
REMARK                         _______ _______ _______ _____ _____    ______ ____
ROOT
ATOM      1  C   UNL     1       6.794  -4.928  24.382  0.00  0.00    +0.023 A 
ATOM      2  N   UNL     1       6.245  -5.214  25.611  0.00  0.00    -0.339 N 
ATOM      3  H   UNL     1       5.238  -5.210  25.727  0.00  0.00    +0.167 HD
ATOM      4  C   UNL     1       6.987  -5.502  26.720  0.00  0.00    +0.158 A 
ATOM      5  S   UNL     1       6.270  -5.820  28.186  0.00  0.00    -0.013 S 
ATOM      6  N   UNL     1       8.341  -5.515  26.563  0.00  0.00    -0.303 N 
ATOM      7  H   UNL     1       8.920  -5.733  27.361  0.00  0.00    +0.171 HD
ATOM      8  C   UNL     1       8.988  -5.266  25.384  0.00  0.00    +0.252 A 
ATOM      9  O   UNL     1      10.208  -5.305  25.271  0.00  0.00    -0.268 OA
ATOM     10  C   UNL     1       8.126  -4.946  24.228  0.00  0.00    +0.091 A 
ENDROOT
BRANCH   1  11
ATOM     11  C   UNL     1       5.844  -4.628  23.249  0.00  0.00    +0.053 C 
BRANCH  11  13
ATOM     12  C   UNL     1       6.309  -5.713  21.020  0.00  0.00    +0.004 C 
ATOM     13  C   UNL     1       5.586  -5.843  22.353  0.00  0.00    +0.003 C 
ENDBRANCH  11  13
ENDBRANCH   1  11
TORSDOF 2
ENDMDL
MODEL 5
REMARK VINA RESULT:      -4.3      2.478      2.767
REMARK  Name = 
REMARK  3 active torsions:
REMARK  status: ('A' for Active; 'I' for Inactive)
REMARK    1  A    between atoms: C_1  and  C_2
REMARK    2  A    between atoms: C_2  and  C_3
REMARK    3  A    between atoms: C_3  and  C_4
REMARK                            x       y       z     vdW  Elec       q    Type
REMARK                         _______ _______ _______ _____ _____    ______ ____
ROOT
ATOM      1  C   UNL     1       9.020  -0.949  22.516  0.00  0.00    +0.023 A 
ATOM      2  N   UNL     1       7.770  -0.836  23.082  0.00  0.00    -0.339 N 
ATOM      3  H   UNL     1       7.140  -0.104  22.772  0.00  0.00    +0.167 HD
ATOM      4  C   UNL     1       7.310  -1.661  24.068  0.00  0.00    +0.158 A 
ATOM      5  S   UNL     1       5.798  -1.464  24.730  0.00  0.00    -0.013 S 
ATOM      6  N   UNL     1       8.154  -2.649  24.480  0.00  0.00    -0.303 N 
ATOM      7  H   UNL     1       7.842  -3.283  25.202  0.00  0.00    +0.171 HD
ATOM      8  C   UNL     1       9.405  -2.864  23.972  0.00  0.00    +0.252 A 
ATOM      9  O   UNL     1      10.132  -3.775  24.352  0.00  0.00    -0.268 OA
ATOM     10  C   UNL     1       9.845  -1.925  22.920  0.00  0.00    +0.091 A 
ENDROOT
BRANCH   1  11
ATOM     11  C   UNL     1       9.386   0.037  21.436  0.00  0.00    +0.053 C 
BRANCH  11  13
ATOM     12  C   UNL     1       8.578   2.372  21.945  0.00  0.00    +0.004 C 
ATOM     13  C   UNL     1       9.760   1.415  21.991  0.00  0.00    +0.003 C 
ENDBRANCH  11  13
ENDBRANCH   1  11
TORSDOF 2
ENDMDL
MODEL 6
REMARK VINA RESULT:      -4.2      3.024      3.965
REMARK  Name = 
REMARK  3 active torsions:
REMARK  status: ('A' for Active; 'I' for Inactive)
REMARK    1  A    between atoms: C_1  and  C_2
REMARK    2  A    between atoms: C_2  and  C_3
REMARK    3  A    between atoms: C_3  and  C_4
REMARK                            x       y       z     vdW  Elec       q    Type
REMARK                         _______ _______ _______ _____ _____    ______ ____
ROOT
ATOM      1  C   UNL     1       9.885   1.471  23.818  0.00  0.00    +0.023 A 
ATOM      2  N   UNL     1       9.370   1.015  25.010  0.00  0.00    -0.339 N 
ATOM      3  H   UNL     1       9.044   1.678  25.705  0.00  0.00    +0.167 HD
ATOM      4  C   UNL     1       9.274  -0.308  25.334  0.00  0.00    +0.158 A 
ATOM      5  S   UNL     1       8.662  -0.799  26.800  0.00  0.00    -0.013 S 
ATOM      6  N   UNL     1       9.705  -1.199  24.397  0.00  0.00    -0.303 N 
ATOM      7  H   UNL     1       9.640  -2.186  24.601  0.00  0.00    +0.171 HD
ATOM      8  C   UNL     1      10.212  -0.856  23.175  0.00  0.00    +0.252 A 
ATOM      9  O   UNL     1      10.573  -1.683  22.346  0.00  0.00    -0.268 OA
ATOM     10  C   UNL     1      10.303   0.592  22.895  0.00  0.00    +0.091 A 
ENDROOT
BRANCH   1  11
ATOM     11  C   UNL     1       9.927   2.963  23.603  0.00  0.00    +0.053 C 
BRANCH  11  13
ATOM     12  C   UNL     1      11.415   4.999  23.566  0.00  0.00    +0.004 C 
ATOM     13  C   UNL     1      11.347   3.491  23.375  0.00  0.00    +0.003 C 
ENDBRANCH  11  13
ENDBRANCH   1  11
TORSDOF 2
ENDMDL
MODEL 7
REMARK VINA RESULT:      -4.2      2.434      2.931
REMARK  Name = 
REMARK  3 active torsions:
REMARK  status: ('A' for Active; 'I' for Inactive)
REMARK    1  A    between atoms: C_1  and  C_2
REMARK    2  A    between atoms: C_2  and  C_3
REMARK    3  A    between atoms: C_3  and  C_4
REMARK                            x       y       z     vdW  Elec       q    Type
REMARK                         _______ _______ _______ _____ _____    ______ ____
ROOT
ATOM      1  C   UNL     1       8.925  -2.786  24.428  0.00  0.00    +0.023 A 
ATOM      2  N   UNL     1       8.416  -3.574  23.422  0.00  0.00    -0.339 N 
ATOM      3  H   UNL     1       8.534  -3.296  22.454  0.00  0.00    +0.167 HD
ATOM      4  C   UNL     1       7.732  -4.735  23.644  0.00  0.00    +0.158 A 
ATOM      5  S   UNL     1       7.120  -5.636  22.389  0.00  0.00    -0.013 S 
ATOM      6  N   UNL     1       7.579  -5.113  24.945  0.00  0.00    -0.303 N 
ATOM      7  H   UNL     1       7.085  -5.971  25.146  0.00  0.00    +0.171 HD
ATOM      8  C   UNL     1       8.062  -4.417  26.018  0.00  0.00    +0.252 A 
ATOM      9  O   UNL     1       7.924  -4.795  27.176  0.00  0.00    -0.268 OA
ATOM     10  C   UNL     1       8.778  -3.163  25.706  0.00  0.00    +0.091 A 
ENDROOT
BRANCH   1  11
ATOM     11  C   UNL     1       9.657  -1.530  24.025  0.00  0.00    +0.053 C 
BRANCH  11  13
ATOM     12  C   UNL     1       9.730  -0.382  21.781  0.00  0.00    +0.004 C 
ATOM     13  C   UNL     1      10.188  -1.587  22.590  0.00  0.00    +0.003 C 
ENDBRANCH  11  13
ENDBRANCH   1  11
TORSDOF 2
ENDMDL
MODEL 8
REMARK VINA RESULT:      -4.2      2.031      4.109
REMARK  Name = 
REMARK  3 active torsions:
REMARK  status: ('A' for Active; 'I' for Inactive)
REMARK    1  A    between atoms: C_1  and  C_2
REMARK    2  A    between atoms: C_2  and  C_3
REMARK    3  A    between atoms: C_3  and  C_4
REMARK                            x       y       z     vdW  Elec       q    Type
REMARK                         _______ _______ _______ _____ _____    ______ ____
ROOT
ATOM      1  C   UNL     1       7.626  -3.251  22.605  0.00  0.00    +0.023 A 
ATOM      2  N   UNL     1       7.979  -4.055  23.664  0.00  0.00    -0.339 N 
ATOM      3  H   UNL     1       7.384  -4.833  23.927  0.00  0.00    +0.167 HD
ATOM      4  C   UNL     1       9.103  -3.864  24.416  0.00  0.00    +0.158 A 
ATOM      5  S   UNL     1       9.468  -4.855  25.699  0.00  0.00    -0.013 S 
ATOM      6  N   UNL     1       9.907  -2.822  24.059  0.00  0.00    -0.303 N 
ATOM      7  H   UNL     1      10.751  -2.657  24.588  0.00  0.00    +0.171 HD
ATOM      8  C   UNL     1       9.662  -1.976  23.012  0.00  0.00    +0.252 A 
ATOM      9  O   UNL     1      10.415  -1.060  22.706  0.00  0.00    -0.268 OA
ATOM     10  C   UNL     1       8.421  -2.230  22.252  0.00  0.00    +0.091 A 
ENDROOT
BRANCH   1  11
ATOM     11  C   UNL     1       6.353  -3.587  21.870  0.00  0.00    +0.053 C 
BRANCH  11  13
ATOM     12  C   UNL     1       5.167  -5.748  22.404  0.00  0.00    +0.004 C 
ATOM     13  C   UNL     1       6.230  -5.079  21.545  0.00  0.00    +0.003 C 
ENDBRANCH  11  13
ENDBRANCH   1  11
TORSDOF 2
ENDMDL
MODEL 9
REMARK VINA RESULT:      -4.1      2.717      4.527
REMARK  Name = 
REMARK  3 active torsions:
REMARK  status: ('A' for Active; 'I' for Inactive)
REMARK    1  A    between atoms: C_1  and  C_2
REMARK    2  A    between atoms: C_2  and  C_3
REMARK    3  A    between atoms: C_3  and  C_4
REMARK                            x       y       z     vdW  Elec       q    Type
REMARK                         _______ _______ _______ _____ _____    ______ ____
ROOT
ATOM      1  C   UNL     1       7.548  -3.362  22.776  0.00  0.00    +0.023 A 
ATOM      2  N   UNL     1       8.222  -2.187  22.534  0.00  0.00    -0.339 N 
ATOM      3  H   UNL     1       7.870  -1.537  21.840  0.00  0.00    +0.167 HD
ATOM      4  C   UNL     1       9.374  -1.831  23.176  0.00  0.00    +0.158 A 
ATOM      5  S   UNL     1      10.158  -0.408  22.827  0.00  0.00    -0.013 S 
ATOM      6  N   UNL     1       9.843  -2.702  24.115  0.00  0.00    -0.303 N 
ATOM      7  H   UNL     1      10.688  -2.465  24.615  0.00  0.00    +0.171 HD
ATOM      8  C   UNL     1       9.241  -3.883  24.448  0.00  0.00    +0.252 A 
ATOM      9  O   UNL     1       9.680  -4.634  25.311  0.00  0.00    -0.268 OA
ATOM     10  C   UNL     1       8.009  -4.214  23.704  0.00  0.00    +0.091 A 
ENDROOT
BRANCH   1  11
ATOM     11  C   UNL     1       6.289  -3.618  21.986  0.00  0.00    +0.053 C 
BRANCH  11  13
ATOM     12  C   UNL     1       6.194  -5.894  20.904  0.00  0.00    +0.004 C 
ATOM     13  C   UNL     1       5.791  -5.061  22.112  0.00  0.00    +0.003 C 
ENDBRANCH  11  13
ENDBRANCH   1  11
TORSDOF 2
ENDMDL
