MODEL 1
REMARK VINA RESULT:      -7.5      0.000      0.000
REMARK  Name = 
REMARK  7 active torsions:
REMARK  status: ('A' for Active; 'I' for Inactive)
REMARK    1  A    between atoms: C_1  and  C_2
REMARK    2  A    between atoms: C_2  and  C_3
REMARK    3  A    between atoms: C_3  and  S_4
REMARK    4  A    between atoms: S_4  and  N_7
REMARK    5  A    between atoms: N_7  and  C_8
REMARK    6  A    between atoms: C_11  and  C_12
REMARK    7  A    between atoms: C_12  and  C_14
REMARK                            x       y       z     vdW  Elec       q    Type
REMARK                         _______ _______ _______ _____ _____    ______ ____
ROOT
ATOM      1  C   UNL     1       9.452  -1.114  24.234  0.00  0.00    +0.084 A 
ATOM      2  C   UNL     1       9.176  -0.762  25.550  0.00  0.00    +0.030 A 
ATOM      3  C   UNL     1       8.559  -1.695  26.387  0.00  0.00    +0.041 A 
ATOM      4  C   UNL     1       8.275  -2.982  25.916  0.00  0.00    +0.137 A 
ATOM      5  F   UNL     1       7.763  -3.864  26.785  0.00  0.00    -0.205 F 
ATOM      6  C   UNL     1       8.554  -3.342  24.598  0.00  0.00    +0.094 A 
ATOM      7  C   UNL     1       9.046  -2.359  23.745  0.00  0.00    +0.159 A 
ATOM      8  F   UNL     1       9.216  -2.593  22.434  0.00  0.00    -0.203 F 
ENDROOT
BRANCH   1   9
ATOM      9  N   UNL     1      10.190  -0.234  23.366  0.00  0.00    -0.218 N 
ATOM     10  H   UNL     1      10.864  -0.780  22.818  0.00  0.00    +0.173 HD
BRANCH   9  11
ATOM     11  S   UNL     1       9.222   0.631  22.264  0.00  0.00    +0.043 S 
ATOM     12  O   UNL     1       9.370  -0.017  20.980  0.00  0.00    -0.155 OA
ATOM     13  O   UNL     1       7.930   0.844  22.874  0.00  0.00    -0.155 OA
BRANCH  11  14
ATOM     14  C   UNL     1      10.119   2.183  22.226  0.00  0.00    +0.188 C 
BRANCH  14  16
ATOM     15  C   UNL     1       9.406   3.737  24.078  0.00  0.00    +0.005 C 
ATOM     16  C   UNL     1      10.405   2.681  23.636  0.00  0.00    +0.021 C 
ENDBRANCH  14  16
ENDBRANCH  11  14
ENDBRANCH   9  11
ENDBRANCH   1   9
BRANCH   6  17
ATOM     17  C   UNL     1       8.361  -4.740  24.147  0.00  0.00    +0.201 C 
ATOM     18  O   UNL     1       9.197  -5.582  24.467  0.00  0.00    -0.286 OA
BRANCH  17  19
ATOM     19  C   UNL     1       7.163  -5.114  23.382  0.00  0.00    +0.049 A 
ATOM     20  C   UNL     1       5.769  -4.797  23.559  0.00  0.00    +0.031 A 
ATOM     21  C   UNL     1       5.053  -5.640  22.712  0.00  0.00    +0.139 A 
ATOM     22  N   UNL     1       3.721  -5.825  22.661  0.00  0.00    -0.236 NA
ATOM     23  C   UNL     1       3.050  -5.078  23.571  0.00  0.00    +0.133 A 
ATOM     24  C   UNL     1       3.623  -4.145  24.421  0.00  0.00    +0.060 A 
ATOM     25 CL   UNL     1       2.661  -3.274  25.549  0.00  0.00    -0.082 Cl
ATOM     26  N   UNL     1       5.947  -6.288  21.908  0.00  0.00    -0.345 N 
ATOM     27  H   UNL     1       5.681  -6.938  21.181  0.00  0.00    +0.167 HD
ATOM     28  C   UNL     1       5.003  -3.955  24.395  0.00  0.00    +0.033 A 
ATOM     29  C   UNL     1       7.222  -5.969  22.287  0.00  0.00    +0.096 A 
ENDBRANCH  17  19
ENDBRANCH   6  17
TORSDOF 6
ENDMDL
MODEL 2
REMARK VINA RESULT:      -7.5      4.095      8.397
REMARK  Name = 
REMARK  7 active torsions:
REMARK  status: ('A' for Active; 'I' for Inactive)
REMARK    1  A    between atoms: C_1  and  C_2
REMARK    2  A    between atoms: C_2  and  C_3
REMARK    3  A    between atoms: C_3  and  S_4
REMARK    4  A    between atoms: S_4  and  N_7
REMARK    5  A    between atoms: N_7  and  C_8
REMARK    6  A    between atoms: C_11  and  C_12
REMARK    7  A    between atoms: C_12  and  C_14
REMARK                            x       y       z     vdW  Elec       q    Type
REMARK                         _______ _______ _______ _____ _____    ______ ____
ROOT
ATOM      1  C   UNL     1       8.162  -2.328  23.571  0.00  0.00    +0.084 A 
ATOM      2  C   UNL     1       8.332  -2.377  22.193  0.00  0.00    +0.030 A 
ATOM      3  C   UNL     1       9.007  -1.333  21.555  0.00  0.00    +0.041 A 
ATOM      4  C   UNL     1       9.548  -0.283  22.305  0.00  0.00    +0.137 A 
ATOM      5  F   UNL     1      10.259   0.646  21.654  0.00  0.00    -0.205 F 
ATOM      6  C   UNL     1       9.383  -0.231  23.689  0.00  0.00    +0.094 A 
ATOM      7  C   UNL     1       8.597  -1.209  24.289  0.00  0.00    +0.159 A 
ATOM      8  F   UNL     1       8.286  -1.153  25.594  0.00  0.00    -0.203 F 
ENDROOT
BRANCH   1   9
ATOM      9  N   UNL     1       7.579  -3.430  24.290  0.00  0.00    -0.218 N 
ATOM     10  H   UNL     1       6.748  -3.764  23.790  0.00  0.00    +0.173 HD
BRANCH   9  11
ATOM     11  S   UNL     1       8.622  -4.762  24.489  0.00  0.00    +0.043 S 
ATOM     12  O   UNL     1       8.311  -5.697  23.430  0.00  0.00    -0.155 OA
ATOM     13  O   UNL     1       9.958  -4.257  24.702  0.00  0.00    -0.155 OA
BRANCH  11  14
ATOM     14  C   UNL     1       7.985  -5.418  26.033  0.00  0.00    +0.188 C 
BRANCH  14  16
ATOM     15  C   UNL     1       5.576  -6.118  26.271  0.00  0.00    +0.005 C 
ATOM     16  C   UNL     1       6.554  -4.956  26.270  0.00  0.00    +0.021 C 
ENDBRANCH  14  16
ENDBRANCH  11  14
ENDBRANCH   9  11
ENDBRANCH   1   9
BRANCH   6  17
ATOM     17  C   UNL     1      10.062   0.819  24.484  0.00  0.00    +0.201 C 
ATOM     18  O   UNL     1      11.050   0.509  25.146  0.00  0.00    -0.286 OA
BRANCH  17  19
ATOM     19  C   UNL     1       9.591   2.211  24.432  0.00  0.00    +0.049 A 
ATOM     20  C   UNL     1      10.209   3.419  23.951  0.00  0.00    +0.031 A 
ATOM     21  C   UNL     1       9.425   4.479  24.400  0.00  0.00    +0.139 A 
ATOM     22  N   UNL     1       9.701   5.795  24.343  0.00  0.00    -0.236 NA
ATOM     23  C   UNL     1      10.902   6.057  23.773  0.00  0.00    +0.133 A 
ATOM     24  C   UNL     1      11.749   5.111  23.215  0.00  0.00    +0.060 A 
ATOM     25 CL   UNL     1      13.261   5.572  22.541  0.00  0.00    -0.082 Cl
ATOM     26  N   UNL     1       8.283   3.959  24.941  0.00  0.00    -0.345 N 
ATOM     27  H   UNL     1       7.532   4.522  25.314  0.00  0.00    +0.167 HD
ATOM     28  C   UNL     1      11.388   3.765  23.256  0.00  0.00    +0.033 A 
ATOM     29  C   UNL     1       8.360   2.594  24.953  0.00  0.00    +0.096 A 
ENDBRANCH  17  19
ENDBRANCH   6  17
TORSDOF 6
ENDMDL
MODEL 3
REMARK VINA RESULT:      -7.1      3.424      6.762
REMARK  Name = 
REMARK  7 active torsions:
REMARK  status: ('A' for Active; 'I' for Inactive)
REMARK    1  A    between atoms: C_1  and  C_2
REMARK    2  A    between atoms: C_2  and  C_3
REMARK    3  A    between atoms: C_3  and  S_4
REMARK    4  A    between atoms: S_4  and  N_7
REMARK    5  A    between atoms: N_7  and  C_8
REMARK    6  A    between atoms: C_11  and  C_12
REMARK    7  A    between atoms: C_12  and  C_14
REMARK                            x       y       z     vdW  Elec       q    Type
REMARK                         _______ _______ _______ _____ _____    ______ ____
ROOT
ATOM      1  C   UNL     1       5.747  -4.436  25.352  0.00  0.00    +0.084 A 
ATOM      2  C   UNL     1       6.267  -5.567  25.970  0.00  0.00    +0.030 A 
ATOM      3  C   UNL     1       7.571  -5.528  26.470  0.00  0.00    +0.041 A 
ATOM      4  C   UNL     1       8.317  -4.346  26.396  0.00  0.00    +0.137 A 
ATOM      5  F   UNL     1       9.528  -4.338  26.968  0.00  0.00    -0.205 F 
ATOM      6  C   UNL     1       7.798  -3.208  25.780  0.00  0.00    +0.094 A 
ATOM      7  C   UNL     1       6.551  -3.307  25.171  0.00  0.00    +0.159 A 
ATOM      8  F   UNL     1       6.044  -2.295  24.449  0.00  0.00    -0.203 F 
ENDROOT
BRANCH   1   9
ATOM      9  N   UNL     1       4.373  -4.385  24.924  0.00  0.00    -0.218 N 
ATOM     10  H   UNL     1       4.131  -3.422  24.666  0.00  0.00    +0.173 HD
BRANCH   9  11
ATOM     11  S   UNL     1       4.024  -5.373  23.581  0.00  0.00    +0.043 S 
ATOM     12  O   UNL     1       4.331  -6.732  23.972  0.00  0.00    -0.155 OA
ATOM     13  O   UNL     1       2.727  -4.993  23.072  0.00  0.00    -0.155 OA
BRANCH  11  14
ATOM     14  C   UNL     1       5.293  -4.806  22.448  0.00  0.00    +0.188 C 
BRANCH  14  16
ATOM     15  C   UNL     1       7.610  -5.796  22.430  0.00  0.00    +0.005 C 
ATOM     16  C   UNL     1       6.167  -5.964  21.987  0.00  0.00    +0.021 C 
ENDBRANCH  14  16
ENDBRANCH  11  14
ENDBRANCH   9  11
ENDBRANCH   1   9
BRANCH   6  17
ATOM     17  C   UNL     1       8.550  -1.931  25.814  0.00  0.00    +0.201 C 
ATOM     18  O   UNL     1       8.624  -1.321  26.878  0.00  0.00    -0.286 OA
BRANCH  17  19
ATOM     19  C   UNL     1       9.236  -1.441  24.609  0.00  0.00    +0.049 A 
ATOM     20  C   UNL     1       9.521  -0.110  24.139  0.00  0.00    +0.031 A 
ATOM     21  C   UNL     1       9.943  -0.233  22.816  0.00  0.00    +0.139 A 
ATOM     22  N   UNL     1      10.151   0.749  21.920  0.00  0.00    -0.236 NA
ATOM     23  C   UNL     1       9.899   1.982  22.421  0.00  0.00    +0.133 A 
ATOM     24  C   UNL     1       9.549   2.258  23.734  0.00  0.00    +0.060 A 
ATOM     25 CL   UNL     1       9.234   3.871  24.241  0.00  0.00    -0.082 Cl
ATOM     26  N   UNL     1      10.113  -1.561  22.550  0.00  0.00    -0.345 N 
ATOM     27  H   UNL     1      10.444  -1.918  21.664  0.00  0.00    +0.167 HD
ATOM     28  C   UNL     1       9.398   1.206  24.635  0.00  0.00    +0.033 A 
ATOM     29  C   UNL     1       9.707  -2.302  23.625  0.00  0.00    +0.096 A 
ENDBRANCH  17  19
ENDBRANCH   6  17
TORSDOF 6
ENDMDL
MODEL 4
REMARK VINA RESULT:      -7.0      3.864      7.910
REMARK  Name = 
REMARK  7 active torsions:
REMARK  status: ('A' for Active; 'I' for Inactive)
REMARK    1  A    between atoms: C_1  and  C_2
REMARK    2  A    between atoms: C_2  and  C_3
REMARK    3  A    between atoms: C_3  and  S_4
REMARK    4  A    between atoms: S_4  and  N_7
REMARK    5  A    between atoms: N_7  and  C_8
REMARK    6  A    between atoms: C_11  and  C_12
REMARK    7  A    between atoms: C_12  and  C_14
REMARK                            x       y       z     vdW  Elec       q    Type
REMARK                         _______ _______ _______ _____ _____    ______ ____
ROOT
ATOM      1  C   UNL     1       8.642  -2.049  23.091  0.00  0.00    +0.084 A 
ATOM      2  C   UNL     1      10.009  -1.975  23.330  0.00  0.00    +0.030 A 
ATOM      3  C   UNL     1      10.554  -0.772  23.784  0.00  0.00    +0.041 A 
ATOM      4  C   UNL     1       9.723   0.323  24.044  0.00  0.00    +0.137 A 
ATOM      5  F   UNL     1      10.285   1.424  24.560  0.00  0.00    -0.205 F 
ATOM      6  C   UNL     1       8.350   0.253  23.809  0.00  0.00    +0.094 A 
ATOM      7  C   UNL     1       7.846  -0.909  23.234  0.00  0.00    +0.159 A 
ATOM      8  F   UNL     1       6.560  -1.003  22.860  0.00  0.00    -0.203 F 
ENDROOT
BRANCH   1   9
ATOM      9  N   UNL     1       8.014  -3.295  22.736  0.00  0.00    -0.218 N 
ATOM     10  H   UNL     1       8.604  -3.797  22.064  0.00  0.00    +0.173 HD
BRANCH   9  11
ATOM     11  S   UNL     1       7.743  -4.340  24.053  0.00  0.00    +0.043 S 
ATOM     12  O   UNL     1       8.897  -5.208  24.141  0.00  0.00    -0.155 OA
ATOM     13  O   UNL     1       7.292  -3.544  25.171  0.00  0.00    -0.155 OA
BRANCH  11  14
ATOM     14  C   UNL     1       6.363  -5.288  23.410  0.00  0.00    +0.188 C 
BRANCH  14  16
ATOM     15  C   UNL     1       6.231  -5.777  20.941  0.00  0.00    +0.005 C 
ATOM     16  C   UNL     1       5.940  -4.772  22.042  0.00  0.00    +0.021 C 
ENDBRANCH  14  16
ENDBRANCH  11  14
ENDBRANCH   9  11
ENDBRANCH   1   9
BRANCH   6  17
ATOM     17  C   UNL     1       7.466   1.375  24.202  0.00  0.00    +0.201 C 
ATOM     18  O   UNL     1       6.880   1.313  25.280  0.00  0.00    -0.286 OA
BRANCH  17  19
ATOM     19  C   UNL     1       7.342   2.559  23.339  0.00  0.00    +0.049 A 
ATOM     20  C   UNL     1       8.067   3.803  23.302  0.00  0.00    +0.031 A 
ATOM     21  C   UNL     1       7.349   4.662  22.472  0.00  0.00    +0.139 A 
ATOM     22  N   UNL     1       7.547   5.979  22.276  0.00  0.00    -0.236 NA
ATOM     23  C   UNL     1       8.578   6.472  23.003  0.00  0.00    +0.133 A 
ATOM     24  C   UNL     1       9.423   5.722  23.808  0.00  0.00    +0.060 A 
ATOM     25 CL   UNL     1      10.686   6.473  24.700  0.00  0.00    -0.082 Cl
ATOM     26  N   UNL     1       6.364   3.938  21.866  0.00  0.00    -0.345 N 
ATOM     27  H   UNL     1       5.719   4.322  21.190  0.00  0.00    +0.167 HD
ATOM     28  C   UNL     1       9.204   4.351  23.934  0.00  0.00    +0.033 A 
ATOM     29  C   UNL     1       6.356   2.664  22.364  0.00  0.00    +0.096 A 
ENDBRANCH  17  19
ENDBRANCH   6  17
TORSDOF 6
ENDMDL
MODEL 5
REMARK VINA RESULT:      -6.9      2.969      6.361
REMARK  Name = 
REMARK  7 active torsions:
REMARK  status: ('A' for Active; 'I' for Inactive)
REMARK    1  A    between atoms: C_1  and  C_2
REMARK    2  A    between atoms: C_2  and  C_3
REMARK    3  A    between atoms: C_3  and  S_4
REMARK    4  A    between atoms: S_4  and  N_7
REMARK    5  A    between atoms: N_7  and  C_8
REMARK    6  A    between atoms: C_11  and  C_12
REMARK    7  A    between atoms: C_12  and  C_14
REMARK                            x       y       z     vdW  Elec       q    Type
REMARK                         _______ _______ _______ _____ _____    ______ ____
ROOT
ATOM      1  C   UNL     1       7.976  -3.257  23.937  0.00  0.00    +0.084 A 
ATOM      2  C   UNL     1       7.566  -3.448  25.251  0.00  0.00    +0.030 A 
ATOM      3  C   UNL     1       8.013  -2.563  26.236  0.00  0.00    +0.041 A 
ATOM      4  C   UNL     1       8.818  -1.473  25.888  0.00  0.00    +0.137 A 
ATOM      5  F   UNL     1       9.147  -0.607  26.857  0.00  0.00    -0.205 F 
ATOM      6  C   UNL     1       9.230  -1.276  24.570  0.00  0.00    +0.094 A 
ATOM      7  C   UNL     1       8.883  -2.239  23.629  0.00  0.00    +0.159 A 
ATOM      8  F   UNL     1       9.350  -2.187  22.371  0.00  0.00    -0.203 F 
ENDROOT
BRANCH   1   9
ATOM      9  N   UNL     1       7.453  -4.067  22.868  0.00  0.00    -0.218 N 
ATOM     10  H   UNL     1       7.331  -5.031  23.197  0.00  0.00    +0.173 HD
BRANCH   9  11
ATOM     11  S   UNL     1       5.947  -3.543  22.268  0.00  0.00    +0.043 S 
ATOM     12  O   UNL     1       5.790  -2.166  22.683  0.00  0.00    -0.155 OA
ATOM     13  O   UNL     1       5.852  -3.945  20.884  0.00  0.00    -0.155 OA
BRANCH  11  14
ATOM     14  C   UNL     1       4.854  -4.565  23.256  0.00  0.00    +0.188 C 
BRANCH  14  16
ATOM     15  C   UNL     1       4.537  -6.842  24.288  0.00  0.00    +0.005 C 
ATOM     16  C   UNL     1       5.400  -5.980  23.383  0.00  0.00    +0.021 C 
ENDBRANCH  14  16
ENDBRANCH  11  14
ENDBRANCH   9  11
ENDBRANCH   1   9
BRANCH   6  17
ATOM     17  C   UNL     1       9.980  -0.054  24.196  0.00  0.00    +0.201 C 
ATOM     18  O   UNL     1      11.144   0.061  24.573  0.00  0.00    -0.286 OA
BRANCH  17  19
ATOM     19  C   UNL     1       9.355   0.968  23.343  0.00  0.00    +0.049 A 
ATOM     20  C   UNL     1       8.096   1.661  23.437  0.00  0.00    +0.031 A 
ATOM     21  C   UNL     1       7.901   2.308  22.219  0.00  0.00    +0.139 A 
ATOM     22  N   UNL     1       6.792   2.933  21.782  0.00  0.00    -0.236 NA
ATOM     23  C   UNL     1       5.775   2.889  22.676  0.00  0.00    +0.133 A 
ATOM     24  C   UNL     1       5.851   2.348  23.951  0.00  0.00    +0.060 A 
ATOM     25 CL   UNL     1       4.477   2.335  24.984  0.00  0.00    -0.082 Cl
ATOM     26  N   UNL     1       9.055   2.203  21.496  0.00  0.00    -0.345 N 
ATOM     27  H   UNL     1       9.186   2.615  20.583  0.00  0.00    +0.167 HD
ATOM     28  C   UNL     1       7.042   1.759  24.371  0.00  0.00    +0.033 A 
ATOM     29  C   UNL     1       9.947   1.413  22.167  0.00  0.00    +0.096 A 
ENDBRANCH  17  19
ENDBRANCH   6  17
TORSDOF 6
ENDMDL
MODEL 6
REMARK VINA RESULT:      -6.9      3.150      7.444
REMARK  Name = 
REMARK  7 active torsions:
REMARK  status: ('A' for Active; 'I' for Inactive)
REMARK    1  A    between atoms: C_1  and  C_2
REMARK    2  A    between atoms: C_2  and  C_3
REMARK    3  A    between atoms: C_3  and  S_4
REMARK    4  A    between atoms: S_4  and  N_7
REMARK    5  A    between atoms: N_7  and  C_8
REMARK    6  A    between atoms: C_11  and  C_12
REMARK    7  A    between atoms: C_12  and  C_14
REMARK                            x       y       z     vdW  Elec       q    Type
REMARK                         _______ _______ _______ _____ _____    ______ ____
ROOT
ATOM      1  C   UNL     1       8.934  -2.312  23.668  0.00  0.00    +0.084 A 
ATOM      2  C   UNL     1       8.723  -2.318  22.294  0.00  0.00    +0.030 A 
ATOM      3  C   UNL     1       9.077  -1.190  21.548  0.00  0.00    +0.041 A 
ATOM      4  C   UNL     1       9.684  -0.096  22.174  0.00  0.00    +0.137 A 
ATOM      5  F   UNL     1      10.082   0.923  21.400  0.00  0.00    -0.205 F 
ATOM      6  C   UNL     1       9.901  -0.086  23.552  0.00  0.00    +0.094 A 
ATOM      7  C   UNL     1       9.423  -1.161  24.294  0.00  0.00    +0.159 A 
ATOM      8  F   UNL     1       9.478  -1.164  25.635  0.00  0.00    -0.203 F 
ENDROOT
BRANCH   1   9
ATOM      9  N   UNL     1       8.697  -3.487  24.463  0.00  0.00    -0.218 N 
ATOM     10  H   UNL     1       9.332  -3.489  25.269  0.00  0.00    +0.173 HD
BRANCH   9  11
ATOM     11  S   UNL     1       7.109  -3.611  25.069  0.00  0.00    +0.043 S 
ATOM     12  O   UNL     1       7.220  -3.749  26.504  0.00  0.00    -0.155 OA
ATOM     13  O   UNL     1       6.314  -2.573  24.454  0.00  0.00    -0.155 OA
BRANCH  11  14
ATOM     14  C   UNL     1       6.644  -5.199  24.377  0.00  0.00    +0.188 C 
BRANCH  14  16
ATOM     15  C   UNL     1       7.099  -5.760  21.963  0.00  0.00    +0.005 C 
ATOM     16  C   UNL     1       6.175  -5.048  22.937  0.00  0.00    +0.021 C 
ENDBRANCH  14  16
ENDBRANCH  11  14
ENDBRANCH   9  11
ENDBRANCH   1   9
BRANCH   6  17
ATOM     17  C   UNL     1      10.652   1.024  24.183  0.00  0.00    +0.201 C 
ATOM     18  O   UNL     1      11.721   0.772  24.735  0.00  0.00    -0.286 OA
BRANCH  17  19
ATOM     19  C   UNL     1      10.150   2.403  24.096  0.00  0.00    +0.049 A 
ATOM     20  C   UNL     1       8.920   3.009  24.538  0.00  0.00    +0.031 A 
ATOM     21  C   UNL     1       8.861   4.272  23.952  0.00  0.00    +0.139 A 
ATOM     22  N   UNL     1       7.823   5.128  23.937  0.00  0.00    -0.236 NA
ATOM     23  C   UNL     1       6.733   4.647  24.581  0.00  0.00    +0.133 A 
ATOM     24  C   UNL     1       6.674   3.446  25.272  0.00  0.00    +0.060 A 
ATOM     25 CL   UNL     1       5.218   2.937  26.032  0.00  0.00    -0.082 Cl
ATOM     26  N   UNL     1      10.066   4.519  23.360  0.00  0.00    -0.345 N 
ATOM     27  H   UNL     1      10.293   5.383  22.887  0.00  0.00    +0.167 HD
ATOM     28  C   UNL     1       7.797   2.620  25.299  0.00  0.00    +0.033 A 
ATOM     29  C   UNL     1      10.860   3.410  23.452  0.00  0.00    +0.096 A 
ENDBRANCH  17  19
ENDBRANCH   6  17
TORSDOF 6
ENDMDL
MODEL 7
REMARK VINA RESULT:      -6.9      3.091      3.829
REMARK  Name = 
REMARK  7 active torsions:
REMARK  status: ('A' for Active; 'I' for Inactive)
REMARK    1  A    between atoms: C_1  and  C_2
REMARK    2  A    between atoms: C_2  and  C_3
REMARK    3  A    between atoms: C_3  and  S_4
REMARK    4  A    between atoms: S_4  and  N_7
REMARK    5  A    between atoms: N_7  and  C_8
REMARK    6  A    between atoms: C_11  and  C_12
REMARK    7  A    between atoms: C_12  and  C_14
REMARK                            x       y       z     vdW  Elec       q    Type
REMARK                         _______ _______ _______ _____ _____    ______ ____
ROOT
ATOM      1  C   UNL     1       7.424   0.153  23.239  0.00  0.00    +0.084 A 
ATOM      2  C   UNL     1       8.715   0.639  23.069  0.00  0.00    +0.030 A 
ATOM      3  C   UNL     1       9.785  -0.258  23.088  0.00  0.00    +0.041 A 
ATOM      4  C   UNL     1       9.550  -1.631  23.221  0.00  0.00    +0.137 A 
ATOM      5  F   UNL     1      10.604  -2.454  23.146  0.00  0.00    -0.205 F 
ATOM      6  C   UNL     1       8.256  -2.124  23.388  0.00  0.00    +0.094 A 
ATOM      7  C   UNL     1       7.218  -1.205  23.499  0.00  0.00    +0.159 A 
ATOM      8  F   UNL     1       5.967  -1.597  23.789  0.00  0.00    -0.203 F 
ENDROOT
BRANCH   1   9
ATOM      9  N   UNL     1       6.279   1.016  23.111  0.00  0.00    -0.218 N 
ATOM     10  H   UNL     1       5.462   0.463  22.830  0.00  0.00    +0.173 HD
BRANCH   9  11
ATOM     11  S   UNL     1       5.864   1.840  24.543  0.00  0.00    +0.043 S 
ATOM     12  O   UNL     1       4.585   1.316  24.970  0.00  0.00    -0.155 OA
ATOM     13  O   UNL     1       7.021   1.844  25.408  0.00  0.00    -0.155 OA
BRANCH  11  14
ATOM     14  C   UNL     1       5.614   3.488  23.883  0.00  0.00    +0.188 C 
BRANCH  14  16
ATOM     15  C   UNL     1       7.522   4.484  22.572  0.00  0.00    +0.005 C 
ATOM     16  C   UNL     1       6.266   3.631  22.515  0.00  0.00    +0.021 C 
ENDBRANCH  14  16
ENDBRANCH  11  14
ENDBRANCH   9  11
ENDBRANCH   1   9
BRANCH   6  17
ATOM     17  C   UNL     1       8.010  -3.586  23.407  0.00  0.00    +0.201 C 
ATOM     18  O   UNL     1       7.755  -4.153  22.347  0.00  0.00    -0.286 OA
BRANCH  17  19
ATOM     19  C   UNL     1       8.124  -4.341  24.663  0.00  0.00    +0.049 A 
ATOM     20  C   UNL     1       7.136  -4.968  25.503  0.00  0.00    +0.031 A 
ATOM     21  C   UNL     1       7.774  -5.297  26.698  0.00  0.00    +0.139 A 
ATOM     22  N   UNL     1       7.215  -5.740  27.839  0.00  0.00    -0.236 NA
ATOM     23  C   UNL     1       5.868  -5.855  27.755  0.00  0.00    +0.133 A 
ATOM     24  C   UNL     1       5.113  -5.637  26.613  0.00  0.00    +0.060 A 
ATOM     25 CL   UNL     1       3.401  -5.797  26.644  0.00  0.00    -0.082 Cl
ATOM     26  N   UNL     1       9.112  -5.084  26.534  0.00  0.00    -0.345 N 
ATOM     27  H   UNL     1       9.803  -5.275  27.246  0.00  0.00    +0.167 HD
ATOM     28  C   UNL     1       5.750  -5.230  25.443  0.00  0.00    +0.033 A 
ATOM     29  C   UNL     1       9.342  -4.524  25.307  0.00  0.00    +0.096 A 
ENDBRANCH  17  19
ENDBRANCH   6  17
TORSDOF 6
ENDMDL
MODEL 8
REMARK VINA RESULT:      -6.8      2.742      3.685
REMARK  Name = 
REMARK  7 active torsions:
REMARK  status: ('A' for Active; 'I' for Inactive)
REMARK    1  A    between atoms: C_1  and  C_2
REMARK    2  A    between atoms: C_2  and  C_3
REMARK    3  A    between atoms: C_3  and  S_4
REMARK    4  A    between atoms: S_4  and  N_7
REMARK    5  A    between atoms: N_7  and  C_8
REMARK    6  A    between atoms: C_11  and  C_12
REMARK    7  A    between atoms: C_12  and  C_14
REMARK                            x       y       z     vdW  Elec       q    Type
REMARK                         _______ _______ _______ _____ _____    ______ ____
ROOT
ATOM      1  C   UNL     1       9.749   0.857  23.524  0.00  0.00    +0.084 A 
ATOM      2  C   UNL     1      10.078   0.432  22.242  0.00  0.00    +0.030 A 
ATOM      3  C   UNL     1       9.450  -0.703  21.722  0.00  0.00    +0.041 A 
ATOM      4  C   UNL     1       8.467  -1.365  22.466  0.00  0.00    +0.137 A 
ATOM      5  F   UNL     1       7.836  -2.395  21.886  0.00  0.00    -0.205 F 
ATOM      6  C   UNL     1       8.131  -0.940  23.751  0.00  0.00    +0.094 A 
ATOM      7  C   UNL     1       8.860   0.109  24.301  0.00  0.00    +0.159 A 
ATOM      8  F   UNL     1       8.683   0.489  25.577  0.00  0.00    -0.203 F 
ENDROOT
BRANCH   1   9
ATOM      9  N   UNL     1      10.278   2.083  24.061  0.00  0.00    -0.218 N 
ATOM     10  H   UNL     1      11.136   2.336  23.558  0.00  0.00    +0.173 HD
BRANCH   9  11
ATOM     11  S   UNL     1       9.216   3.410  23.949  0.00  0.00    +0.043 S 
ATOM     12  O   UNL     1       8.468   3.243  22.722  0.00  0.00    -0.155 OA
ATOM     13  O   UNL     1       8.567   3.573  25.230  0.00  0.00    -0.155 OA
BRANCH  11  14
ATOM     14  C   UNL     1      10.404   4.732  23.717  0.00  0.00    +0.188 C 
BRANCH  14  16
ATOM     15  C   UNL     1      12.808   5.272  23.183  0.00  0.00    +0.005 C 
ATOM     16  C   UNL     1      11.764   4.176  23.317  0.00  0.00    +0.021 C 
ENDBRANCH  14  16
ENDBRANCH  11  14
ENDBRANCH   9  11
ENDBRANCH   1   9
BRANCH   6  17
ATOM     17  C   UNL     1       7.007  -1.574  24.478  0.00  0.00    +0.201 C 
ATOM     18  O   UNL     1       5.907  -1.027  24.453  0.00  0.00    -0.286 OA
BRANCH  17  19
ATOM     19  C   UNL     1       7.198  -2.860  25.165  0.00  0.00    +0.049 A 
ATOM     20  C   UNL     1       6.466  -4.099  25.110  0.00  0.00    +0.031 A 
ATOM     21  C   UNL     1       6.921  -4.883  26.168  0.00  0.00    +0.139 A 
ATOM     22  N   UNL     1       6.411  -6.045  26.617  0.00  0.00    -0.236 NA
ATOM     23  C   UNL     1       5.322  -6.446  25.918  0.00  0.00    +0.133 A 
ATOM     24  C   UNL     1       4.806  -5.809  24.800  0.00  0.00    +0.060 A 
ATOM     25 CL   UNL     1       3.400  -6.410  24.014  0.00  0.00    -0.082 Cl
ATOM     26  N   UNL     1       8.009  -4.264  26.714  0.00  0.00    -0.345 N 
ATOM     27  H   UNL     1       8.545  -4.643  27.482  0.00  0.00    +0.167 HD
ATOM     28  C   UNL     1       5.407  -4.636  24.347  0.00  0.00    +0.033 A 
ATOM     29  C   UNL     1       8.199  -3.052  26.110  0.00  0.00    +0.096 A 
ENDBRANCH  17  19
ENDBRANCH   6  17
TORSDOF 6
ENDMDL
MODEL 9
REMARK VINA RESULT:      -6.8      2.245      2.502
REMARK  Name = 
REMARK  7 active torsions:
REMARK  status: ('A' for Active; 'I' for Inactive)
REMARK    1  A    between atoms: C_1  and  C_2
REMARK    2  A    between atoms: C_2  and  C_3
REMARK    3  A    between atoms: C_3  and  S_4
REMARK    4  A    between atoms: S_4  and  N_7
REMARK    5  A    between atoms: N_7  and  C_8
REMARK    6  A    between atoms: C_11  and  C_12
REMARK    7  A    between atoms: C_12  and  C_14
REMARK                            x       y       z     vdW  Elec       q    Type
REMARK                         _______ _______ _______ _____ _____    ______ ____
ROOT
ATOM      1  C   UNL     1       8.183  -1.353  23.675  0.00  0.00    +0.084 A 
ATOM      2  C   UNL     1       9.271  -1.700  24.469  0.00  0.00    +0.030 A 
ATOM      3  C   UNL     1       9.518  -3.050  24.727  0.00  0.00    +0.041 A 
ATOM      4  C   UNL     1       8.710  -4.036  24.149  0.00  0.00    +0.137 A 
ATOM      5  F   UNL     1       9.043  -5.317  24.360  0.00  0.00    -0.205 F 
ATOM      6  C   UNL     1       7.620  -3.693  23.350  0.00  0.00    +0.094 A 
ATOM      7  C   UNL     1       7.313  -2.343  23.211  0.00  0.00    +0.159 A 
ATOM      8  F   UNL     1       6.206  -1.942  22.566  0.00  0.00    -0.203 F 
ENDROOT
BRANCH   1   9
ATOM      9  N   UNL     1       7.953   0.013  23.282  0.00  0.00    -0.218 N 
ATOM     10  H   UNL     1       8.127   0.633  24.081  0.00  0.00    +0.173 HD
BRANCH   9  11
ATOM     11  S   UNL     1       8.941   0.547  22.002  0.00  0.00    +0.043 S 
ATOM     12  O   UNL     1       9.524  -0.635  21.405  0.00  0.00    -0.155 OA
ATOM     13  O   UNL     1       8.190   1.509  21.229  0.00  0.00    -0.155 OA
BRANCH  11  14
ATOM     14  C   UNL     1      10.212   1.401  22.935  0.00  0.00    +0.188 C 
BRANCH  14  16
ATOM     15  C   UNL     1       9.332   3.498  24.020  0.00  0.00    +0.005 C 
ATOM     16  C   UNL     1       9.634   2.020  24.200  0.00  0.00    +0.021 C 
ENDBRANCH  14  16
ENDBRANCH  11  14
ENDBRANCH   9  11
ENDBRANCH   1   9
BRANCH   6  17
ATOM     17  C   UNL     1       6.848  -4.745  22.647  0.00  0.00    +0.201 C 
ATOM     18  O   UNL     1       7.218  -5.098  21.529  0.00  0.00    -0.286 OA
BRANCH  17  19
ATOM     19  C   UNL     1       5.699  -5.385  23.303  0.00  0.00    +0.049 A 
ATOM     20  C   UNL     1       5.418  -5.674  24.686  0.00  0.00    +0.031 A 
ATOM     21  C   UNL     1       4.322  -6.533  24.703  0.00  0.00    +0.139 A 
ATOM     22  N   UNL     1       3.812  -7.203  25.753  0.00  0.00    -0.236 NA
ATOM     23  C   UNL     1       4.493  -6.978  26.902  0.00  0.00    +0.133 A 
ATOM     24  C   UNL     1       5.551  -6.093  27.048  0.00  0.00    +0.060 A 
ATOM     25 CL   UNL     1       6.347  -5.915  28.561  0.00  0.00    -0.082 Cl
ATOM     26  N   UNL     1       3.822  -6.604  23.434  0.00  0.00    -0.345 N 
ATOM     27  H   UNL     1       3.004  -7.141  23.182  0.00  0.00    +0.167 HD
ATOM     28  C   UNL     1       6.005  -5.385  25.937  0.00  0.00    +0.033 A 
ATOM     29  C   UNL     1       4.631  -5.905  22.582  0.00  0.00    +0.096 A 
ENDBRANCH  17  19
ENDBRANCH   6  17
TORSDOF 6
ENDMDL
