MODEL 1
REMARK VINA RESULT:      -6.0      0.000      0.000
REMARK  Name = 
REMARK  9 active torsions:
REMARK  status: ('A' for Active; 'I' for Inactive)
REMARK    1  A    between atoms: C_1  and  C_2
REMARK    2  A    between atoms: C_2  and  C_3
REMARK    3  A    between atoms: C_2  and  C_4
REMARK    4  A    between atoms: C_4  and  C_5
REMARK    5  A    between atoms: C_8  and  C_11
REMARK    6  A    between atoms: C_11  and  C_12
REMARK    7  A    between atoms: C_11  and  C_13
REMARK    8  A    between atoms: C_13  and  O_14
REMARK    9  A    between atoms: N_15  and  O_16
REMARK                            x       y       z     vdW  Elec       q    Type
REMARK                         _______ _______ _______ _____ _____    ______ ____
ROOT
ATOM      1  C   UNL     1      10.038  -0.545  24.529  0.00  0.00    -0.047 A 
ATOM      2  C   UNL     1       9.147  -0.554  25.609  0.00  0.00    +0.004 A 
ATOM      3  C   UNL     1       8.382  -1.692  25.896  0.00  0.00    +0.004 A 
ATOM      4  C   UNL     1       8.482  -2.839  25.090  0.00  0.00    -0.036 A 
ATOM      5  C   UNL     1       9.408  -2.838  24.039  0.00  0.00    +0.004 A 
ATOM      6  C   UNL     1      10.187  -1.711  23.770  0.00  0.00    +0.004 A 
ENDROOT
BRANCH   4   7
ATOM      7  C   UNL     1       7.598  -4.063  25.297  0.00  0.00    +0.104 C 
ATOM      8  C   UNL     1       7.511  -4.913  24.027  0.00  0.00    +0.022 C 
BRANCH   7   9
ATOM      9  C   UNL     1       7.927  -4.927  26.511  0.00  0.00    +0.231 C 
ATOM     10  N   UNL     1       7.015  -5.692  27.031  0.00  0.00    -0.053 NA
BRANCH  10  11
ATOM     11  O   UNL     1       7.502  -6.371  28.158  0.00  0.00    -0.407 OA
ATOM     12  H   UNL     1       6.736  -6.910  28.428  0.00  0.00    +0.328 HD
ENDBRANCH  10  11
BRANCH   9  13
ATOM     13  O   UNL     1       9.159  -4.842  27.050  0.00  0.00    -0.493 OA
ATOM     14  H   UNL     1       9.586  -5.699  27.193  0.00  0.00    +0.294 HD
ENDBRANCH   9  13
ENDBRANCH   7   9
ENDBRANCH   4   7
BRANCH   1  15
ATOM     15  C   UNL     1      10.793   0.713  24.157  0.00  0.00    +0.038 C 
BRANCH  15  17
ATOM     16  C   UNL     1      10.493   3.164  23.508  0.00  0.00    +0.007 C 
ATOM     17  C   UNL     1       9.927   1.744  23.398  0.00  0.00    -0.013 C 
ATOM     18  C   UNL     1       9.798   1.355  21.924  0.00  0.00    +0.007 C 
ENDBRANCH  15  17
ENDBRANCH   1  15
TORSDOF 6
ENDMDL
MODEL 2
REMARK VINA RESULT:      -5.9      5.927      8.303
REMARK  Name = 
REMARK  9 active torsions:
REMARK  status: ('A' for Active; 'I' for Inactive)
REMARK    1  A    between atoms: C_1  and  C_2
REMARK    2  A    between atoms: C_2  and  C_3
REMARK    3  A    between atoms: C_2  and  C_4
REMARK    4  A    between atoms: C_4  and  C_5
REMARK    5  A    between atoms: C_8  and  C_11
REMARK    6  A    between atoms: C_11  and  C_12
REMARK    7  A    between atoms: C_11  and  C_13
REMARK    8  A    between atoms: C_13  and  O_14
REMARK    9  A    between atoms: N_15  and  O_16
REMARK                            x       y       z     vdW  Elec       q    Type
REMARK                         _______ _______ _______ _____ _____    ______ ____
ROOT
ATOM      1  C   UNL     1       9.268   1.470  24.404  0.00  0.00    -0.047 A 
ATOM      2  C   UNL     1       8.531   2.579  24.837  0.00  0.00    +0.004 A 
ATOM      3  C   UNL     1       8.972   3.881  24.565  0.00  0.00    +0.004 A 
ATOM      4  C   UNL     1      10.173   4.095  23.869  0.00  0.00    -0.036 A 
ATOM      5  C   UNL     1      10.881   2.981  23.399  0.00  0.00    +0.004 A 
ATOM      6  C   UNL     1      10.427   1.685  23.651  0.00  0.00    +0.004 A 
ENDROOT
BRANCH   4   7
ATOM      7  C   UNL     1      10.747   5.488  23.639  0.00  0.00    +0.104 C 
ATOM      8  C   UNL     1      10.091   6.524  24.555  0.00  0.00    +0.022 C 
BRANCH   7   9
ATOM      9  C   UNL     1      12.268   5.599  23.690  0.00  0.00    +0.231 C 
ATOM     10  N   UNL     1      12.992   5.040  22.768  0.00  0.00    -0.053 NA
BRANCH  10  11
ATOM     11  O   UNL     1      14.361   5.221  23.015  0.00  0.00    -0.407 OA
ATOM     12  H   UNL     1      14.464   4.859  23.913  0.00  0.00    +0.328 HD
ENDBRANCH  10  11
BRANCH   9  13
ATOM     13  O   UNL     1      12.835   6.245  24.727  0.00  0.00    -0.493 OA
ATOM     14  H   UNL     1      13.797   6.328  24.660  0.00  0.00    +0.294 HD
ENDBRANCH   9  13
ENDBRANCH   7   9
ENDBRANCH   4   7
BRANCH   1  15
ATOM     15  C   UNL     1       8.848   0.065  24.780  0.00  0.00    +0.038 C 
BRANCH  15  17
ATOM     16  C   UNL     1       9.561  -2.282  24.072  0.00  0.00    +0.007 C 
ATOM     17  C   UNL     1       8.972  -0.943  23.615  0.00  0.00    -0.013 C 
ATOM     18  C   UNL     1       7.610  -1.176  22.960  0.00  0.00    +0.007 C 
ENDBRANCH  15  17
ENDBRANCH   1  15
TORSDOF 6
ENDMDL
MODEL 3
REMARK VINA RESULT:      -5.8      0.520      1.533
REMARK  Name = 
REMARK  9 active torsions:
REMARK  status: ('A' for Active; 'I' for Inactive)
REMARK    1  A    between atoms: C_1  and  C_2
REMARK    2  A    between atoms: C_2  and  C_3
REMARK    3  A    between atoms: C_2  and  C_4
REMARK    4  A    between atoms: C_4  and  C_5
REMARK    5  A    between atoms: C_8  and  C_11
REMARK    6  A    between atoms: C_11  and  C_12
REMARK    7  A    between atoms: C_11  and  C_13
REMARK    8  A    between atoms: C_13  and  O_14
REMARK    9  A    between atoms: N_15  and  O_16
REMARK                            x       y       z     vdW  Elec       q    Type
REMARK                         _______ _______ _______ _____ _____    ______ ____
ROOT
ATOM      1  C   UNL     1      10.065  -0.496  24.536  0.00  0.00    -0.047 A 
ATOM      2  C   UNL     1      10.214  -1.511  23.582  0.00  0.00    +0.004 A 
ATOM      3  C   UNL     1       9.451  -2.683  23.660  0.00  0.00    +0.004 A 
ATOM      4  C   UNL     1       8.536  -2.869  24.709  0.00  0.00    -0.036 A 
ATOM      5  C   UNL     1       8.358  -1.830  25.633  0.00  0.00    +0.004 A 
ATOM      6  C   UNL     1       9.103  -0.653  25.540  0.00  0.00    +0.004 A 
ENDROOT
BRANCH   4   7
ATOM      7  C   UNL     1       7.758  -4.166  24.896  0.00  0.00    +0.104 C 
ATOM      8  C   UNL     1       7.833  -5.051  23.649  0.00  0.00    +0.022 C 
BRANCH   7   9
ATOM      9  C   UNL     1       8.088  -4.966  26.153  0.00  0.00    +0.231 C 
ATOM     10  N   UNL     1       7.146  -5.598  26.787  0.00  0.00    -0.053 NA
BRANCH  10  11
ATOM     11  O   UNL     1       7.643  -6.236  27.933  0.00  0.00    -0.407 OA
ATOM     12  H   UNL     1       8.596  -6.041  27.889  0.00  0.00    +0.328 HD
ENDBRANCH  10  11
BRANCH   9  13
ATOM     13  O   UNL     1       9.355  -4.962  26.609  0.00  0.00    -0.493 OA
ATOM     14  H   UNL     1       9.438  -5.198  27.544  0.00  0.00    +0.294 HD
ENDBRANCH   9  13
ENDBRANCH   7   9
ENDBRANCH   4   7
BRANCH   1  15
ATOM     15  C   UNL     1      10.955   0.727  24.512  0.00  0.00    +0.038 C 
BRANCH  15  17
ATOM     16  C   UNL     1       9.965   1.456  22.275  0.00  0.00    +0.007 C 
ATOM     17  C   UNL     1      10.370   1.895  23.686  0.00  0.00    -0.013 C 
ATOM     18  C   UNL     1       9.164   2.507  24.401  0.00  0.00    +0.007 C 
ENDBRANCH  15  17
ENDBRANCH   1  15
TORSDOF 6
ENDMDL
MODEL 4
REMARK VINA RESULT:      -5.6      1.765      2.215
REMARK  Name = 
REMARK  9 active torsions:
REMARK  status: ('A' for Active; 'I' for Inactive)
REMARK    1  A    between atoms: C_1  and  C_2
REMARK    2  A    between atoms: C_2  and  C_3
REMARK    3  A    between atoms: C_2  and  C_4
REMARK    4  A    between atoms: C_4  and  C_5
REMARK    5  A    between atoms: C_8  and  C_11
REMARK    6  A    between atoms: C_11  and  C_12
REMARK    7  A    between atoms: C_11  and  C_13
REMARK    8  A    between atoms: C_13  and  O_14
REMARK    9  A    between atoms: N_15  and  O_16
REMARK                            x       y       z     vdW  Elec       q    Type
REMARK                         _______ _______ _______ _____ _____    ______ ____
ROOT
ATOM      1  C   UNL     1       9.517   0.131  22.617  0.00  0.00    -0.047 A 
ATOM      2  C   UNL     1       9.228  -0.120  23.965  0.00  0.00    +0.004 A 
ATOM      3  C   UNL     1       8.707  -1.357  24.366  0.00  0.00    +0.004 A 
ATOM      4  C   UNL     1       8.446  -2.361  23.419  0.00  0.00    -0.036 A 
ATOM      5  C   UNL     1       8.780  -2.119  22.080  0.00  0.00    +0.004 A 
ATOM      6  C   UNL     1       9.321  -0.894  21.686  0.00  0.00    +0.004 A 
ENDROOT
BRANCH   4   7
ATOM      7  C   UNL     1       7.784  -3.683  23.790  0.00  0.00    +0.104 C 
ATOM      8  C   UNL     1       7.387  -4.480  22.545  0.00  0.00    +0.022 C 
BRANCH   7   9
ATOM      9  C   UNL     1       8.549  -4.558  24.778  0.00  0.00    +0.231 C 
ATOM     10  N   UNL     1       9.841  -4.666  24.686  0.00  0.00    -0.053 NA
BRANCH  10  11
ATOM     11  O   UNL     1      10.349  -5.544  25.654  0.00  0.00    -0.407 OA
ATOM     12  H   UNL     1      10.467  -6.370  25.152  0.00  0.00    +0.328 HD
ENDBRANCH  10  11
BRANCH   9  13
ATOM     13  O   UNL     1       7.855  -5.243  25.707  0.00  0.00    -0.493 OA
ATOM     14  H   UNL     1       7.782  -4.788  26.558  0.00  0.00    +0.294 HD
ENDBRANCH   9  13
ENDBRANCH   7   9
ENDBRANCH   4   7
BRANCH   1  15
ATOM     15  C   UNL     1       9.987   1.497  22.166  0.00  0.00    +0.038 C 
BRANCH  15  17
ATOM     16  C   UNL     1      11.167   3.437  23.333  0.00  0.00    +0.007 C 
ATOM     17  C   UNL     1       9.905   2.570  23.276  0.00  0.00    -0.013 C 
ATOM     18  C   UNL     1       8.677   3.459  23.072  0.00  0.00    +0.007 C 
ENDBRANCH  15  17
ENDBRANCH   1  15
TORSDOF 6
ENDMDL
MODEL 5
REMARK VINA RESULT:      -5.5      3.278      3.920
REMARK  Name = 
REMARK  9 active torsions:
REMARK  status: ('A' for Active; 'I' for Inactive)
REMARK    1  A    between atoms: C_1  and  C_2
REMARK    2  A    between atoms: C_2  and  C_3
REMARK    3  A    between atoms: C_2  and  C_4
REMARK    4  A    between atoms: C_4  and  C_5
REMARK    5  A    between atoms: C_8  and  C_11
REMARK    6  A    between atoms: C_11  and  C_12
REMARK    7  A    between atoms: C_11  and  C_13
REMARK    8  A    between atoms: C_13  and  O_14
REMARK    9  A    between atoms: N_15  and  O_16
REMARK                            x       y       z     vdW  Elec       q    Type
REMARK                         _______ _______ _______ _____ _____    ______ ____
ROOT
ATOM      1  C   UNL     1       8.891   0.155  22.306  0.00  0.00    -0.047 A 
ATOM      2  C   UNL     1       9.405  -1.093  21.931  0.00  0.00    +0.004 A 
ATOM      3  C   UNL     1       8.676  -2.266  22.167  0.00  0.00    +0.004 A 
ATOM      4  C   UNL     1       7.424  -2.211  22.803  0.00  0.00    -0.036 A 
ATOM      5  C   UNL     1       6.898  -0.955  23.134  0.00  0.00    +0.004 A 
ATOM      6  C   UNL     1       7.615   0.214  22.876  0.00  0.00    +0.004 A 
ENDROOT
BRANCH   4   7
ATOM      7  C   UNL     1       6.640  -3.463  23.176  0.00  0.00    +0.104 C 
ATOM      8  C   UNL     1       5.218  -3.122  23.628  0.00  0.00    +0.022 C 
BRANCH   7   9
ATOM      9  C   UNL     1       6.629  -4.578  22.134  0.00  0.00    +0.231 C 
ATOM     10  N   UNL     1       5.848  -4.493  21.099  0.00  0.00    -0.053 NA
BRANCH  10  11
ATOM     11  O   UNL     1       5.954  -5.630  20.285  0.00  0.00    -0.407 OA
ATOM     12  H   UNL     1       6.787  -5.471  19.806  0.00  0.00    +0.328 HD
ENDBRANCH  10  11
BRANCH   9  13
ATOM     13  O   UNL     1       7.405  -5.660  22.336  0.00  0.00    -0.493 OA
ATOM     14  H   UNL     1       8.282  -5.596  21.929  0.00  0.00    +0.294 HD
ENDBRANCH   9  13
ENDBRANCH   7   9
ENDBRANCH   4   7
BRANCH   1  15
ATOM     15  C   UNL     1       9.716   1.414  22.142  0.00  0.00    +0.038 C 
BRANCH  15  17
ATOM     16  C   UNL     1      10.936   1.053  24.355  0.00  0.00    +0.007 C 
ATOM     17  C   UNL     1      10.151   2.040  23.486  0.00  0.00    -0.013 C 
ATOM     18  C   UNL     1      10.990   3.296  23.246  0.00  0.00    +0.007 C 
ENDBRANCH  15  17
ENDBRANCH   1  15
TORSDOF 6
ENDMDL
MODEL 6
REMARK VINA RESULT:      -5.5      1.449      1.913
REMARK  Name = 
REMARK  9 active torsions:
REMARK  status: ('A' for Active; 'I' for Inactive)
REMARK    1  A    between atoms: C_1  and  C_2
REMARK    2  A    between atoms: C_2  and  C_3
REMARK    3  A    between atoms: C_2  and  C_4
REMARK    4  A    between atoms: C_4  and  C_5
REMARK    5  A    between atoms: C_8  and  C_11
REMARK    6  A    between atoms: C_11  and  C_12
REMARK    7  A    between atoms: C_11  and  C_13
REMARK    8  A    between atoms: C_13  and  O_14
REMARK    9  A    between atoms: N_15  and  O_16
REMARK                            x       y       z     vdW  Elec       q    Type
REMARK                         _______ _______ _______ _____ _____    ______ ____
ROOT
ATOM      1  C   UNL     1       9.434  -0.766  22.821  0.00  0.00    -0.047 A 
ATOM      2  C   UNL     1       8.594  -1.396  21.893  0.00  0.00    +0.004 A 
ATOM      3  C   UNL     1       7.964  -2.607  22.206  0.00  0.00    +0.004 A 
ATOM      4  C   UNL     1       8.180  -3.222  23.450  0.00  0.00    -0.036 A 
ATOM      5  C   UNL     1       8.985  -2.564  24.390  0.00  0.00    +0.004 A 
ATOM      6  C   UNL     1       9.592  -1.345  24.085  0.00  0.00    +0.004 A 
ENDROOT
BRANCH   4   7
ATOM      7  C   UNL     1       7.602  -4.588  23.799  0.00  0.00    +0.104 C 
ATOM      8  C   UNL     1       7.624  -5.531  22.594  0.00  0.00    +0.022 C 
BRANCH   7   9
ATOM      9  C   UNL     1       8.188  -5.266  25.034  0.00  0.00    +0.231 C 
ATOM     10  N   UNL     1       7.502  -5.318  26.135  0.00  0.00    -0.053 NA
BRANCH  10  11
ATOM     11  O   UNL     1       8.228  -5.942  27.160  0.00  0.00    -0.407 OA
ATOM     12  H   UNL     1       8.812  -6.547  26.667  0.00  0.00    +0.328 HD
ENDBRANCH  10  11
BRANCH   9  13
ATOM     13  O   UNL     1       9.439  -5.762  24.966  0.00  0.00    -0.493 OA
ATOM     14  H   UNL     1      10.128  -5.125  25.207  0.00  0.00    +0.294 HD
ENDBRANCH   9  13
ENDBRANCH   7   9
ENDBRANCH   4   7
BRANCH   1  15
ATOM     15  C   UNL     1      10.193   0.490  22.452  0.00  0.00    +0.038 C 
BRANCH  15  17
ATOM     16  C   UNL     1      10.595   2.857  23.320  0.00  0.00    +0.007 C 
ATOM     17  C   UNL     1       9.550   1.780  23.011  0.00  0.00    -0.013 C 
ATOM     18  C   UNL     1       8.516   2.333  22.029  0.00  0.00    +0.007 C 
ENDBRANCH  15  17
ENDBRANCH   1  15
TORSDOF 6
ENDMDL
MODEL 7
REMARK VINA RESULT:      -5.4      3.206      4.207
REMARK  Name = 
REMARK  9 active torsions:
REMARK  status: ('A' for Active; 'I' for Inactive)
REMARK    1  A    between atoms: C_1  and  C_2
REMARK    2  A    between atoms: C_2  and  C_3
REMARK    3  A    between atoms: C_2  and  C_4
REMARK    4  A    between atoms: C_4  and  C_5
REMARK    5  A    between atoms: C_8  and  C_11
REMARK    6  A    between atoms: C_11  and  C_12
REMARK    7  A    between atoms: C_11  and  C_13
REMARK    8  A    between atoms: C_13  and  O_14
REMARK    9  A    between atoms: N_15  and  O_16
REMARK                            x       y       z     vdW  Elec       q    Type
REMARK                         _______ _______ _______ _____ _____    ______ ____
ROOT
ATOM      1  C   UNL     1      10.222   2.117  23.187  0.00  0.00    -0.047 A 
ATOM      2  C   UNL     1       9.932   1.599  21.919  0.00  0.00    +0.004 A 
ATOM      3  C   UNL     1       9.424   0.301  21.777  0.00  0.00    +0.004 A 
ATOM      4  C   UNL     1       9.216  -0.510  22.904  0.00  0.00    -0.036 A 
ATOM      5  C   UNL     1       9.466   0.031  24.172  0.00  0.00    +0.004 A 
ATOM      6  C   UNL     1       9.949   1.333  24.313  0.00  0.00    +0.004 A 
ENDROOT
BRANCH   4   7
ATOM      7  C   UNL     1       8.765  -1.962  22.795  0.00  0.00    +0.104 C 
ATOM      8  C   UNL     1       9.244  -2.790  23.990  0.00  0.00    +0.022 C 
BRANCH   7   9
ATOM      9  C   UNL     1       7.276  -2.181  22.541  0.00  0.00    +0.231 C 
ATOM     10  N   UNL     1       6.866  -3.282  21.987  0.00  0.00    -0.053 NA
BRANCH  10  11
ATOM     11  O   UNL     1       5.476  -3.273  21.803  0.00  0.00    -0.407 OA
ATOM     12  H   UNL     1       5.304  -4.161  21.441  0.00  0.00    +0.328 HD
ENDBRANCH  10  11
BRANCH   9  13
ATOM     13  O   UNL     1       6.415  -1.196  22.859  0.00  0.00    -0.493 OA
ATOM     14  H   UNL     1       6.800  -0.308  22.822  0.00  0.00    +0.294 HD
ENDBRANCH   9  13
ENDBRANCH   7   9
ENDBRANCH   4   7
BRANCH   1  15
ATOM     15  C   UNL     1      10.862   3.481  23.340  0.00  0.00    +0.038 C 
BRANCH  15  17
ATOM     16  C   UNL     1      10.501   5.942  23.914  0.00  0.00    +0.007 C 
ATOM     17  C   UNL     1       9.934   4.522  24.005  0.00  0.00    -0.013 C 
ATOM     18  C   UNL     1       8.542   4.482  23.371  0.00  0.00    +0.007 C 
ENDBRANCH  15  17
ENDBRANCH   1  15
TORSDOF 6
ENDMDL
MODEL 8
REMARK VINA RESULT:      -5.4      4.469      6.857
REMARK  Name = 
REMARK  9 active torsions:
REMARK  status: ('A' for Active; 'I' for Inactive)
REMARK    1  A    between atoms: C_1  and  C_2
REMARK    2  A    between atoms: C_2  and  C_3
REMARK    3  A    between atoms: C_2  and  C_4
REMARK    4  A    between atoms: C_4  and  C_5
REMARK    5  A    between atoms: C_8  and  C_11
REMARK    6  A    between atoms: C_11  and  C_12
REMARK    7  A    between atoms: C_11  and  C_13
REMARK    8  A    between atoms: C_13  and  O_14
REMARK    9  A    between atoms: N_15  and  O_16
REMARK                            x       y       z     vdW  Elec       q    Type
REMARK                         _______ _______ _______ _____ _____    ______ ____
ROOT
ATOM      1  C   UNL     1       8.202  -3.082  23.303  0.00  0.00    -0.047 A 
ATOM      2  C   UNL     1       7.519  -2.019  22.698  0.00  0.00    +0.004 A 
ATOM      3  C   UNL     1       7.970  -0.701  22.851  0.00  0.00    +0.004 A 
ATOM      4  C   UNL     1       9.104  -0.422  23.631  0.00  0.00    -0.036 A 
ATOM      5  C   UNL     1       9.807  -1.495  24.196  0.00  0.00    +0.004 A 
ATOM      6  C   UNL     1       9.370  -2.809  24.022  0.00  0.00    +0.004 A 
ENDROOT
BRANCH   4   7
ATOM      7  C   UNL     1       9.573   1.001  23.913  0.00  0.00    +0.104 C 
ATOM      8  C   UNL     1      11.060   1.041  24.271  0.00  0.00    +0.022 C 
BRANCH   7   9
ATOM      9  C   UNL     1       9.240   2.037  22.843  0.00  0.00    +0.231 C 
ATOM     10  N   UNL     1       8.297   2.906  23.051  0.00  0.00    -0.053 NA
BRANCH  10  11
ATOM     11  O   UNL     1       8.119   3.741  21.938  0.00  0.00    -0.407 OA
ATOM     12  H   UNL     1       7.505   4.417  22.276  0.00  0.00    +0.328 HD
ENDBRANCH  10  11
BRANCH   9  13
ATOM     13  O   UNL     1       9.910   1.999  21.675  0.00  0.00    -0.493 OA
ATOM     14  H   UNL     1      10.426   2.797  21.491  0.00  0.00    +0.294 HD
ENDBRANCH   9  13
ENDBRANCH   7   9
ENDBRANCH   4   7
BRANCH   1  15
ATOM     15  C   UNL     1       7.664  -4.494  23.222  0.00  0.00    +0.038 C 
BRANCH  15  17
ATOM     16  C   UNL     1       6.683  -5.802  21.262  0.00  0.00    +0.007 C 
ATOM     17  C   UNL     1       6.478  -4.643  22.242  0.00  0.00    -0.013 C 
ATOM     18  C   UNL     1       5.170  -4.843  23.010  0.00  0.00    +0.007 C 
ENDBRANCH  15  17
ENDBRANCH   1  15
TORSDOF 6
ENDMDL
MODEL 9
REMARK VINA RESULT:      -5.2      2.909      3.173
REMARK  Name = 
REMARK  9 active torsions:
REMARK  status: ('A' for Active; 'I' for Inactive)
REMARK    1  A    between atoms: C_1  and  C_2
REMARK    2  A    between atoms: C_2  and  C_3
REMARK    3  A    between atoms: C_2  and  C_4
REMARK    4  A    between atoms: C_4  and  C_5
REMARK    5  A    between atoms: C_8  and  C_11
REMARK    6  A    between atoms: C_11  and  C_12
REMARK    7  A    between atoms: C_11  and  C_13
REMARK    8  A    between atoms: C_13  and  O_14
REMARK    9  A    between atoms: N_15  and  O_16
REMARK                            x       y       z     vdW  Elec       q    Type
REMARK                         _______ _______ _______ _____ _____    ______ ____
ROOT
ATOM      1  C   UNL     1       9.379  -0.933  24.203  0.00  0.00    -0.047 A 
ATOM      2  C   UNL     1       8.027  -0.732  24.508  0.00  0.00    +0.004 A 
ATOM      3  C   UNL     1       7.116  -1.794  24.453  0.00  0.00    +0.004 A 
ATOM      4  C   UNL     1       7.540  -3.077  24.070  0.00  0.00    -0.036 A 
ATOM      5  C   UNL     1       8.902  -3.281  23.811  0.00  0.00    +0.004 A 
ATOM      6  C   UNL     1       9.812  -2.226  23.891  0.00  0.00    +0.004 A 
ENDROOT
BRANCH   4   7
ATOM      7  C   UNL     1       6.571  -4.241  23.895  0.00  0.00    +0.104 C 
ATOM      8  C   UNL     1       5.147  -3.852  24.299  0.00  0.00    +0.022 C 
BRANCH   7   9
ATOM      9  C   UNL     1       6.584  -4.919  22.528  0.00  0.00    +0.231 C 
ATOM     10  N   UNL     1       5.811  -4.485  21.579  0.00  0.00    -0.053 NA
BRANCH  10  11
ATOM     11  O   UNL     1       5.940  -5.263  20.419  0.00  0.00    -0.407 OA
ATOM     12  H   UNL     1       5.524  -4.702  19.740  0.00  0.00    +0.328 HD
ENDBRANCH  10  11
BRANCH   9  13
ATOM     13  O   UNL     1       7.373  -5.996  22.348  0.00  0.00    -0.493 OA
ATOM     14  H   UNL     1       6.920  -6.842  22.476  0.00  0.00    +0.294 HD
ENDBRANCH   9  13
ENDBRANCH   7   9
ENDBRANCH   4   7
BRANCH   1  15
ATOM     15  C   UNL     1      10.347   0.230  24.167  0.00  0.00    +0.038 C 
BRANCH  15  17
ATOM     16  C   UNL     1      10.678   2.683  23.545  0.00  0.00    +0.007 C 
ATOM     17  C   UNL     1       9.844   1.419  23.317  0.00  0.00    -0.013 C 
ATOM     18  C   UNL     1       9.852   1.058  21.831  0.00  0.00    +0.007 C 
ENDBRANCH  15  17
ENDBRANCH   1  15
TORSDOF 6
ENDMDL
