MODEL 1
REMARK VINA RESULT:      -6.3      0.000      0.000
REMARK  Name = 
REMARK  4 active torsions:
REMARK  status: ('A' for Active; 'I' for Inactive)
REMARK    1  A    between atoms: C_2  and  C_16
REMARK    2  A    between atoms: N_5  and  C_6
REMARK    3  A    between atoms: C_16  and  C_17
REMARK    4  A    between atoms: C_16  and  C_18
REMARK                            x       y       z     vdW  Elec       q    Type
REMARK                         _______ _______ _______ _____ _____    ______ ____
ROOT
ATOM      1  C   UNL     1       6.880  -4.878  24.543  0.00  0.00    +0.144 C 
ATOM      2  C   UNL     1       6.489  -3.474  24.995  0.00  0.00    +0.252 C 
ATOM      3  O   UNL     1       5.422  -3.229  25.545  0.00  0.00    -0.272 OA
ATOM      4  N   UNL     1       7.411  -2.513  24.663  0.00  0.00    -0.158 NA
ATOM      5  C   UNL     1       8.566  -3.002  24.373  0.00  0.00    +0.151 C 
ATOM      6  N   UNL     1       9.690  -2.357  23.960  0.00  0.00    -0.294 N 
ATOM      7  H   UNL     1      10.541  -2.907  23.900  0.00  0.00    +0.154 HD
ATOM      8  S   UNL     1       8.710  -4.743  24.495  0.00  0.00    -0.080 S 
ENDROOT
BRANCH   6   9
ATOM      9  C   UNL     1       9.760  -1.127  23.274  0.00  0.00    +0.068 A 
ATOM     10  C   UNL     1       9.348  -0.957  21.946  0.00  0.00    +0.026 A 
ATOM     11  C   UNL     1       9.410   0.293  21.321  0.00  0.00    +0.002 A 
ATOM     12  C   UNL     1       9.870   1.405  22.020  0.00  0.00    +0.003 A 
ATOM     13  C   UNL     1      10.273   1.266  23.344  0.00  0.00    +0.040 A 
ATOM     14  C   UNL     1      10.213   0.014  23.956  0.00  0.00    +0.144 A 
ATOM     15  F   UNL     1      10.616  -0.102  25.231  0.00  0.00    -0.204 F 
ENDBRANCH   6   9
BRANCH   1  16
ATOM     16  C   UNL     1       6.266  -5.203  23.161  0.00  0.00    +0.005 C 
ATOM     17  C   UNL     1       7.259  -5.887  22.216  0.00  0.00    +0.009 C 
ATOM     18  C   UNL     1       5.029  -6.104  23.298  0.00  0.00    +0.009 C 
ENDBRANCH   1  16
TORSDOF 2
ENDMDL
MODEL 2
REMARK VINA RESULT:      -6.2      1.103      1.603
REMARK  Name = 
REMARK  4 active torsions:
REMARK  status: ('A' for Active; 'I' for Inactive)
REMARK    1  A    between atoms: C_2  and  C_16
REMARK    2  A    between atoms: N_5  and  C_6
REMARK    3  A    between atoms: C_16  and  C_17
REMARK    4  A    between atoms: C_16  and  C_18
REMARK                            x       y       z     vdW  Elec       q    Type
REMARK                         _______ _______ _______ _____ _____    ______ ____
ROOT
ATOM      1  C   UNL     1       6.867  -4.896  24.562  0.00  0.00    +0.144 C 
ATOM      2  C   UNL     1       6.510  -3.523  25.123  0.00  0.00    +0.252 C 
ATOM      3  O   UNL     1       5.449  -3.297  25.694  0.00  0.00    -0.272 OA
ATOM      4  N   UNL     1       7.453  -2.561  24.863  0.00  0.00    -0.158 NA
ATOM      5  C   UNL     1       8.596  -3.052  24.532  0.00  0.00    +0.151 C 
ATOM      6  N   UNL     1       9.734  -2.403  24.166  0.00  0.00    -0.294 N 
ATOM      7  H   UNL     1      10.572  -2.966  24.061  0.00  0.00    +0.154 HD
ATOM      8  S   UNL     1       8.700  -4.800  24.519  0.00  0.00    -0.080 S 
ENDROOT
BRANCH   6   9
ATOM      9  C   UNL     1       9.831  -1.125  23.577  0.00  0.00    +0.068 A 
ATOM     10  C   UNL     1      10.308   0.005  24.253  0.00  0.00    +0.026 A 
ATOM     11  C   UNL     1      10.412   1.244  23.613  0.00  0.00    +0.002 A 
ATOM     12  C   UNL     1      10.057   1.374  22.272  0.00  0.00    +0.003 A 
ATOM     13  C   UNL     1       9.593   0.263  21.575  0.00  0.00    +0.040 A 
ATOM     14  C   UNL     1       9.488  -0.966  22.224  0.00  0.00    +0.144 A 
ATOM     15  F   UNL     1       9.028  -2.023  21.537  0.00  0.00    -0.204 F 
ENDBRANCH   6   9
BRANCH   1  16
ATOM     16  C   UNL     1       6.243  -5.099  23.162  0.00  0.00    +0.005 C 
ATOM     17  C   UNL     1       7.217  -5.738  22.165  0.00  0.00    +0.009 C 
ATOM     18  C   UNL     1       4.982  -5.973  23.234  0.00  0.00    +0.009 C 
ENDBRANCH   1  16
TORSDOF 2
ENDMDL
MODEL 3
REMARK VINA RESULT:      -6.2      2.388      3.088
REMARK  Name = 
REMARK  4 active torsions:
REMARK  status: ('A' for Active; 'I' for Inactive)
REMARK    1  A    between atoms: C_2  and  C_16
REMARK    2  A    between atoms: N_5  and  C_6
REMARK    3  A    between atoms: C_16  and  C_17
REMARK    4  A    between atoms: C_16  and  C_18
REMARK                            x       y       z     vdW  Elec       q    Type
REMARK                         _______ _______ _______ _____ _____    ______ ____
ROOT
ATOM      1  C   UNL     1       7.721  -4.500  24.839  0.00  0.00    +0.144 C 
ATOM      2  C   UNL     1       9.182  -4.148  24.570  0.00  0.00    +0.252 C 
ATOM      3  O   UNL     1      10.110  -4.874  24.906  0.00  0.00    -0.272 OA
ATOM      4  N   UNL     1       9.353  -2.918  23.986  0.00  0.00    -0.158 NA
ATOM      5  C   UNL     1       8.276  -2.461  23.450  0.00  0.00    +0.151 C 
ATOM      6  N   UNL     1       8.066  -1.268  22.831  0.00  0.00    -0.294 N 
ATOM      7  H   UNL     1       7.175  -1.142  22.363  0.00  0.00    +0.154 HD
ATOM      8  S   UNL     1       6.870  -3.501  23.555  0.00  0.00    -0.080 S 
ENDROOT
BRANCH   6   9
ATOM      9  C   UNL     1       8.767  -0.064  23.048  0.00  0.00    +0.068 A 
ATOM     10  C   UNL     1       8.916   0.529  24.309  0.00  0.00    +0.026 A 
ATOM     11  C   UNL     1       9.647   1.710  24.474  0.00  0.00    +0.002 A 
ATOM     12  C   UNL     1      10.264   2.312  23.381  0.00  0.00    +0.003 A 
ATOM     13  C   UNL     1      10.143   1.736  22.120  0.00  0.00    +0.040 A 
ATOM     14  C   UNL     1       9.406   0.563  21.965  0.00  0.00    +0.144 A 
ATOM     15  F   UNL     1       9.292   0.028  20.739  0.00  0.00    -0.204 F 
ENDBRANCH   6   9
BRANCH   1  16
ATOM     16  C   UNL     1       7.314  -4.102  26.276  0.00  0.00    +0.005 C 
ATOM     17  C   UNL     1       5.917  -3.476  26.346  0.00  0.00    +0.009 C 
ATOM     18  C   UNL     1       7.350  -5.312  27.222  0.00  0.00    +0.009 C 
ENDBRANCH   1  16
TORSDOF 2
ENDMDL
MODEL 4
REMARK VINA RESULT:      -5.8      2.808      5.902
REMARK  Name = 
REMARK  4 active torsions:
REMARK  status: ('A' for Active; 'I' for Inactive)
REMARK    1  A    between atoms: C_2  and  C_16
REMARK    2  A    between atoms: N_5  and  C_6
REMARK    3  A    between atoms: C_16  and  C_17
REMARK    4  A    between atoms: C_16  and  C_18
REMARK                            x       y       z     vdW  Elec       q    Type
REMARK                         _______ _______ _______ _____ _____    ______ ____
ROOT
ATOM      1  C   UNL     1       8.293   2.207  22.736  0.00  0.00    +0.144 C 
ATOM      2  C   UNL     1       7.029   1.433  23.097  0.00  0.00    +0.252 C 
ATOM      3  O   UNL     1       6.004   1.982  23.482  0.00  0.00    -0.272 OA
ATOM      4  N   UNL     1       7.178   0.071  23.017  0.00  0.00    -0.158 NA
ATOM      5  C   UNL     1       8.200  -0.285  22.321  0.00  0.00    +0.151 C 
ATOM      6  N   UNL     1       8.674  -1.535  22.070  0.00  0.00    -0.294 N 
ATOM      7  H   UNL     1       9.425  -1.616  21.393  0.00  0.00    +0.154 HD
ATOM      8  S   UNL     1       9.136   1.019  21.618  0.00  0.00    -0.080 S 
ENDROOT
BRANCH   6   9
ATOM      9  C   UNL     1       8.507  -2.683  22.873  0.00  0.00    +0.068 A 
ATOM     10  C   UNL     1       7.584  -3.698  22.590  0.00  0.00    +0.026 A 
ATOM     11  C   UNL     1       7.479  -4.831  23.403  0.00  0.00    +0.002 A 
ATOM     12  C   UNL     1       8.311  -4.981  24.509  0.00  0.00    +0.003 A 
ATOM     13  C   UNL     1       9.245  -3.993  24.805  0.00  0.00    +0.040 A 
ATOM     14  C   UNL     1       9.338  -2.864  23.991  0.00  0.00    +0.144 A 
ATOM     15  F   UNL     1      10.238  -1.917  24.299  0.00  0.00    -0.204 F 
ENDBRANCH   6   9
BRANCH   1  16
ATOM     16  C   UNL     1       9.121   2.531  24.001  0.00  0.00    +0.005 C 
ATOM     17  C   UNL     1      10.553   1.988  23.930  0.00  0.00    +0.009 C 
ATOM     18  C   UNL     1       9.191   4.046  24.250  0.00  0.00    +0.009 C 
ENDBRANCH   1  16
TORSDOF 2
ENDMDL
MODEL 5
REMARK VINA RESULT:      -5.7      2.684      6.121
REMARK  Name = 
REMARK  4 active torsions:
REMARK  status: ('A' for Active; 'I' for Inactive)
REMARK    1  A    between atoms: C_2  and  C_16
REMARK    2  A    between atoms: N_5  and  C_6
REMARK    3  A    between atoms: C_16  and  C_17
REMARK    4  A    between atoms: C_16  and  C_18
REMARK                            x       y       z     vdW  Elec       q    Type
REMARK                         _______ _______ _______ _____ _____    ______ ____
ROOT
ATOM      1  C   UNL     1       9.186   0.244  22.934  0.00  0.00    +0.144 C 
ATOM      2  C   UNL     1       7.719  -0.175  22.947  0.00  0.00    +0.252 C 
ATOM      3  O   UNL     1       6.808   0.595  22.667  0.00  0.00    -0.272 OA
ATOM      4  N   UNL     1       7.520  -1.466  23.369  0.00  0.00    -0.158 NA
ATOM      5  C   UNL     1       8.588  -2.181  23.323  0.00  0.00    +0.151 C 
ATOM      6  N   UNL     1       8.771  -3.475  23.703  0.00  0.00    -0.294 N 
ATOM      7  H   UNL     1       9.662  -3.902  23.472  0.00  0.00    +0.154 HD
ATOM      8  S   UNL     1      10.020  -1.377  22.715  0.00  0.00    -0.080 S 
ENDROOT
BRANCH   6   9
ATOM      9  C   UNL     1       8.036  -4.187  24.674  0.00  0.00    +0.068 A 
ATOM     10  C   UNL     1       8.400  -4.255  26.024  0.00  0.00    +0.026 A 
ATOM     11  C   UNL     1       7.619  -4.951  26.953  0.00  0.00    +0.002 A 
ATOM     12  C   UNL     1       6.442  -5.577  26.551  0.00  0.00    +0.003 A 
ATOM     13  C   UNL     1       6.051  -5.513  25.217  0.00  0.00    +0.040 A 
ATOM     14  C   UNL     1       6.841  -4.823  24.299  0.00  0.00    +0.144 A 
ATOM     15  F   UNL     1       6.452  -4.781  23.014  0.00  0.00    -0.204 F 
ENDBRANCH   6   9
BRANCH   1  16
ATOM     16  C   UNL     1       9.571   0.943  24.259  0.00  0.00    +0.005 C 
ATOM     17  C   UNL     1      10.952   0.520  24.774  0.00  0.00    +0.009 C 
ATOM     18  C   UNL     1       9.558   2.471  24.108  0.00  0.00    +0.009 C 
ENDBRANCH   1  16
TORSDOF 2
ENDMDL
MODEL 6
REMARK VINA RESULT:      -5.5      2.911      5.865
REMARK  Name = 
REMARK  4 active torsions:
REMARK  status: ('A' for Active; 'I' for Inactive)
REMARK    1  A    between atoms: C_2  and  C_16
REMARK    2  A    between atoms: N_5  and  C_6
REMARK    3  A    between atoms: C_16  and  C_17
REMARK    4  A    between atoms: C_16  and  C_18
REMARK                            x       y       z     vdW  Elec       q    Type
REMARK                         _______ _______ _______ _____ _____    ______ ____
ROOT
ATOM      1  C   UNL     1       9.335   0.318  25.332  0.00  0.00    +0.144 C 
ATOM      2  C   UNL     1      10.003  -0.414  24.171  0.00  0.00    +0.252 C 
ATOM      3  O   UNL     1      10.942   0.059  23.543  0.00  0.00    -0.272 OA
ATOM      4  N   UNL     1       9.405  -1.610  23.860  0.00  0.00    -0.158 NA
ATOM      5  C   UNL     1       8.653  -2.058  24.802  0.00  0.00    +0.151 C 
ATOM      6  N   UNL     1       7.880  -3.178  24.824  0.00  0.00    -0.294 N 
ATOM      7  H   UNL     1       7.453  -3.426  25.710  0.00  0.00    +0.154 HD
ATOM      8  S   UNL     1       8.585  -1.081  26.255  0.00  0.00    -0.080 S 
ENDROOT
BRANCH   6   9
ATOM      9  C   UNL     1       7.310  -3.837  23.715  0.00  0.00    +0.068 A 
ATOM     10  C   UNL     1       6.326  -3.266  22.897  0.00  0.00    +0.026 A 
ATOM     11  C   UNL     1       5.815  -3.952  21.790  0.00  0.00    +0.002 A 
ATOM     12  C   UNL     1       6.293  -5.219  21.467  0.00  0.00    +0.003 A 
ATOM     13  C   UNL     1       7.280  -5.802  22.256  0.00  0.00    +0.040 A 
ATOM     14  C   UNL     1       7.778  -5.113  23.360  0.00  0.00    +0.144 A 
ATOM     15  F   UNL     1       8.722  -5.697  24.115  0.00  0.00    -0.204 F 
ENDBRANCH   6   9
BRANCH   1  16
ATOM     16  C   UNL     1       8.285   1.328  24.815  0.00  0.00    +0.005 C 
ATOM     17  C   UNL     1       7.038   1.396  25.704  0.00  0.00    +0.009 C 
ATOM     18  C   UNL     1       8.877   2.741  24.704  0.00  0.00    +0.009 C 
ENDBRANCH   1  16
TORSDOF 2
ENDMDL
MODEL 7
REMARK VINA RESULT:      -5.4      2.228      2.659
REMARK  Name = 
REMARK  4 active torsions:
REMARK  status: ('A' for Active; 'I' for Inactive)
REMARK    1  A    between atoms: C_2  and  C_16
REMARK    2  A    between atoms: N_5  and  C_6
REMARK    3  A    between atoms: C_16  and  C_17
REMARK    4  A    between atoms: C_16  and  C_18
REMARK                            x       y       z     vdW  Elec       q    Type
REMARK                         _______ _______ _______ _____ _____    ______ ____
ROOT
ATOM      1  C   UNL     1       5.421  -4.288  23.961  0.00  0.00    +0.144 C 
ATOM      2  C   UNL     1       5.609  -3.861  22.508  0.00  0.00    +0.252 C 
ATOM      3  O   UNL     1       5.381  -4.607  21.564  0.00  0.00    -0.272 OA
ATOM      4  N   UNL     1       6.124  -2.595  22.369  0.00  0.00    -0.158 NA
ATOM      5  C   UNL     1       6.009  -1.885  23.436  0.00  0.00    +0.151 C 
ATOM      6  N   UNL     1       6.442  -0.617  23.673  0.00  0.00    -0.294 N 
ATOM      7  H   UNL     1       6.146  -0.184  24.540  0.00  0.00    +0.154 HD
ATOM      8  S   UNL     1       5.210  -2.662  24.788  0.00  0.00    -0.080 S 
ENDROOT
BRANCH   6   9
ATOM      9  C   UNL     1       7.523   0.040  23.050  0.00  0.00    +0.068 A 
ATOM     10  C   UNL     1       7.380   1.192  22.265  0.00  0.00    +0.026 A 
ATOM     11  C   UNL     1       8.490   1.823  21.693  0.00  0.00    +0.002 A 
ATOM     12  C   UNL     1       9.771   1.324  21.912  0.00  0.00    +0.003 A 
ATOM     13  C   UNL     1       9.941   0.189  22.698  0.00  0.00    +0.040 A 
ATOM     14  C   UNL     1       8.828  -0.437  23.258  0.00  0.00    +0.144 A 
ATOM     15  F   UNL     1       9.012  -1.537  24.005  0.00  0.00    -0.204 F 
ENDBRANCH   6   9
BRANCH   1  16
ATOM     16  C   UNL     1       6.656  -5.065  24.471  0.00  0.00    +0.005 C 
ATOM     17  C   UNL     1       7.788  -5.126  23.440  0.00  0.00    +0.009 C 
ATOM     18  C   UNL     1       7.211  -4.445  25.762  0.00  0.00    +0.009 C 
ENDBRANCH   1  16
TORSDOF 2
ENDMDL
MODEL 8
REMARK VINA RESULT:      -5.4      2.789      3.683
REMARK  Name = 
REMARK  4 active torsions:
REMARK  status: ('A' for Active; 'I' for Inactive)
REMARK    1  A    between atoms: C_2  and  C_16
REMARK    2  A    between atoms: N_5  and  C_6
REMARK    3  A    between atoms: C_16  and  C_17
REMARK    4  A    between atoms: C_16  and  C_18
REMARK                            x       y       z     vdW  Elec       q    Type
REMARK                         _______ _______ _______ _____ _____    ______ ____
ROOT
ATOM      1  C   UNL     1       9.028  -2.531  24.300  0.00  0.00    +0.144 C 
ATOM      2  C   UNL     1       8.958  -1.490  25.413  0.00  0.00    +0.252 C 
ATOM      3  O   UNL     1       8.717  -1.782  26.578  0.00  0.00    -0.272 OA
ATOM      4  N   UNL     1       9.118  -0.201  24.971  0.00  0.00    -0.158 NA
ATOM      5  C   UNL     1       9.649  -0.132  23.800  0.00  0.00    +0.151 C 
ATOM      6  N   UNL     1       9.910   0.966  23.041  0.00  0.00    -0.294 N 
ATOM      7  H   UNL     1      10.448   0.822  22.193  0.00  0.00    +0.154 HD
ATOM      8  S   UNL     1      10.070  -1.663  23.062  0.00  0.00    -0.080 S 
ENDROOT
BRANCH   6   9
ATOM      9  C   UNL     1       9.242   2.208  23.085  0.00  0.00    +0.068 A 
ATOM     10  C   UNL     1       9.634   3.268  23.913  0.00  0.00    +0.026 A 
ATOM     11  C   UNL     1       8.954   4.490  23.898  0.00  0.00    +0.002 A 
ATOM     12  C   UNL     1       7.877   4.684  23.037  0.00  0.00    +0.003 A 
ATOM     13  C   UNL     1       7.476   3.651  22.196  0.00  0.00    +0.040 A 
ATOM     14  C   UNL     1       8.157   2.434  22.223  0.00  0.00    +0.144 A 
ATOM     15  F   UNL     1       7.748   1.446  21.411  0.00  0.00    -0.204 F 
ENDBRANCH   6   9
BRANCH   1  16
ATOM     16  C   UNL     1       7.615  -2.865  23.767  0.00  0.00    +0.005 C 
ATOM     17  C   UNL     1       7.519  -2.770  22.240  0.00  0.00    +0.009 C 
ATOM     18  C   UNL     1       7.176  -4.274  24.192  0.00  0.00    +0.009 C 
ENDBRANCH   1  16
TORSDOF 2
ENDMDL
MODEL 9
REMARK VINA RESULT:      -5.4      2.769      5.973
REMARK  Name = 
REMARK  4 active torsions:
REMARK  status: ('A' for Active; 'I' for Inactive)
REMARK    1  A    between atoms: C_2  and  C_16
REMARK    2  A    between atoms: N_5  and  C_6
REMARK    3  A    between atoms: C_16  and  C_17
REMARK    4  A    between atoms: C_16  and  C_18
REMARK                            x       y       z     vdW  Elec       q    Type
REMARK                         _______ _______ _______ _____ _____    ______ ____
ROOT
ATOM      1  C   UNL     1       9.302   0.226  23.519  0.00  0.00    +0.144 C 
ATOM      2  C   UNL     1       9.162  -0.450  22.159  0.00  0.00    +0.252 C 
ATOM      3  O   UNL     1       9.401   0.128  21.105  0.00  0.00    -0.272 OA
ATOM      4  N   UNL     1       8.677  -1.732  22.229  0.00  0.00    -0.158 NA
ATOM      5  C   UNL     1       8.777  -2.244  23.405  0.00  0.00    +0.151 C 
ATOM      6  N   UNL     1       8.362  -3.462  23.848  0.00  0.00    -0.294 N 
ATOM      7  H   UNL     1       8.644  -3.732  24.784  0.00  0.00    +0.154 HD
ATOM      8  S   UNL     1       9.522  -1.226  24.620  0.00  0.00    -0.080 S 
ENDROOT
BRANCH   6   9
ATOM      9  C   UNL     1       7.312  -4.244  23.323  0.00  0.00    +0.068 A 
ATOM     10  C   UNL     1       7.515  -5.401  22.560  0.00  0.00    +0.026 A 
ATOM     11  C   UNL     1       6.437  -6.157  22.088  0.00  0.00    +0.002 A 
ATOM     12  C   UNL     1       5.130  -5.780  22.387  0.00  0.00    +0.003 A 
ATOM     13  C   UNL     1       4.903  -4.642  23.154  0.00  0.00    +0.040 A 
ATOM     14  C   UNL     1       5.984  -3.891  23.614  0.00  0.00    +0.144 A 
ATOM     15  F   UNL     1       5.743  -2.791  24.344  0.00  0.00    -0.204 F 
ENDBRANCH   6   9
BRANCH   1  16
ATOM     16  C   UNL     1       8.038   1.050  23.858  0.00  0.00    +0.005 C 
ATOM     17  C   UNL     1       7.578   0.862  25.308  0.00  0.00    +0.009 C 
ATOM     18  C   UNL     1       8.267   2.549  23.614  0.00  0.00    +0.009 C 
ENDBRANCH   1  16
TORSDOF 2
ENDMDL
