MODEL 1
REMARK VINA RESULT:      -8.3      0.000      0.000
REMARK  Name = 
REMARK  4 active torsions:
REMARK  status: ('A' for Active; 'I' for Inactive)
REMARK    1  A    between atoms: C_2  and  C_3
REMARK    2  A    between atoms: C_3  and  C_4
REMARK    3  A    between atoms: C_7  and  N_10
REMARK    4  A    between atoms: C_23  and  N_26
REMARK                            x       y       z     vdW  Elec       q    Type
REMARK                         _______ _______ _______ _____ _____    ______ ____
ROOT
ATOM      1  O   UNL     1       8.731  -5.669  25.245  0.00  0.00    -0.275 OA
ATOM      2  C   UNL     1       8.795  -4.700  24.490  0.00  0.00    +0.223 C 
ATOM      3  N   UNL     1       7.896  -4.423  23.479  0.00  0.00    -0.268 N 
ATOM      4  H   UNL     1       8.260  -4.032  22.622  0.00  0.00    +0.156 HD
ATOM      5  C   UNL     1       6.742  -5.155  23.312  0.00  0.00    +0.154 A 
ATOM      6  C   UNL     1       5.792  -5.564  24.295  0.00  0.00    +0.043 A 
ATOM      7  C   UNL     1       5.591  -5.351  25.674  0.00  0.00    +0.038 A 
ATOM      8  C   UNL     1       4.442  -5.871  26.276  0.00  0.00    +0.052 A 
ATOM      9  C   UNL     1       3.534  -6.644  25.551  0.00  0.00    +0.027 A 
ATOM     10  C   UNL     1       3.719  -6.879  24.185  0.00  0.00    +0.029 A 
ATOM     11  C   UNL     1       4.842  -6.293  23.586  0.00  0.00    +0.068 A 
ATOM     12  N   UNL     1       5.270  -6.255  22.287  0.00  0.00    -0.275 N 
ATOM     13  H   UNL     1       4.829  -6.693  21.484  0.00  0.00    +0.189 HD
ATOM     14  N   UNL     1       6.353  -5.492  22.081  0.00  0.00    -0.157 NA
ENDROOT
BRANCH   8  15
ATOM     15  N   UNL     1       4.190  -5.579  27.636  0.00  0.00    -0.207 N 
ATOM     16  S   UNL     1       4.408  -6.732  28.841  0.00  0.00    +0.046 S 
ATOM     17  O   UNL     1       5.682  -7.390  28.668  0.00  0.00    -0.155 OA
ATOM     18  O   UNL     1       3.168  -7.461  29.006  0.00  0.00    -0.155 OA
ATOM     19  C   UNL     1       4.539  -5.526  30.156  0.00  0.00    +0.190 C 
ATOM     20  C   UNL     1       4.632  -4.164  29.466  0.00  0.00    +0.045 C 
ATOM     21  C   UNL     1       3.863  -4.255  28.147  0.00  0.00    +0.133 C 
ENDBRANCH   8  15
BRANCH   2  22
ATOM     22  C   UNL     1       9.912  -3.680  24.615  0.00  0.00    +0.131 C 
BRANCH  22  23
ATOM     23  C   UNL     1       9.571  -2.300  24.114  0.00  0.00    -0.039 A 
ATOM     24  C   UNL     1      10.147  -1.787  22.951  0.00  0.00    +0.006 A 
ATOM     25  C   UNL     1       9.825  -0.496  22.507  0.00  0.00    +0.023 A 
ATOM     26  C   UNL     1       8.923   0.335  23.193  0.00  0.00    +0.030 A 
ATOM     27  C   UNL     1       8.396  -0.184  24.382  0.00  0.00    +0.023 A 
ATOM     28  C   UNL     1       8.713  -1.472  24.840  0.00  0.00    +0.006 A 
BRANCH  26  29
ATOM     29  N   UNL     1       8.613   1.601  22.726  0.00  0.00    -0.330 N 
ATOM     30  C   UNL     1       9.457   2.759  23.041  0.00  0.00    +0.105 C 
ATOM     31  C   UNL     1       8.574   3.894  23.554  0.00  0.00    +0.019 C 
ATOM     32  C   UNL     1       7.464   4.220  22.555  0.00  0.00    +0.003 C 
ATOM     33  C   UNL     1       6.675   2.965  22.183  0.00  0.00    +0.019 C 
ATOM     34  C   UNL     1       7.597   1.843  21.699  0.00  0.00    +0.105 C 
ENDBRANCH  26  29
ENDBRANCH  22  23
ENDBRANCH   2  22
TORSDOF 4
ENDMDL
MODEL 2
REMARK VINA RESULT:      -8.1      3.885      8.537
REMARK  Name = 
REMARK  4 active torsions:
REMARK  status: ('A' for Active; 'I' for Inactive)
REMARK    1  A    between atoms: C_2  and  C_3
REMARK    2  A    between atoms: C_3  and  C_4
REMARK    3  A    between atoms: C_7  and  N_10
REMARK    4  A    between atoms: C_23  and  N_26
REMARK                            x       y       z     vdW  Elec       q    Type
REMARK                         _______ _______ _______ _____ _____    ______ ____
ROOT
ATOM      1  O   UNL     1       8.319   1.244  21.969  0.00  0.00    -0.275 OA
ATOM      2  C   UNL     1       9.455   0.808  22.147  0.00  0.00    +0.223 C 
ATOM      3  N   UNL     1      10.497   1.518  22.710  0.00  0.00    -0.268 N 
ATOM      4  H   UNL     1      11.423   1.371  22.334  0.00  0.00    +0.156 HD
ATOM      5  C   UNL     1      10.311   2.766  23.261  0.00  0.00    +0.154 A 
ATOM      6  C   UNL     1       9.286   3.208  24.150  0.00  0.00    +0.043 A 
ATOM      7  C   UNL     1       8.207   2.619  24.840  0.00  0.00    +0.038 A 
ATOM      8  C   UNL     1       7.462   3.406  25.723  0.00  0.00    +0.052 A 
ATOM      9  C   UNL     1       7.731   4.766  25.881  0.00  0.00    +0.027 A 
ATOM     10  C   UNL     1       8.789   5.374  25.198  0.00  0.00    +0.029 A 
ATOM     11  C   UNL     1       9.564   4.553  24.369  0.00  0.00    +0.068 A 
ATOM     12  N   UNL     1      10.694   4.801  23.636  0.00  0.00    -0.275 N 
ATOM     13  H   UNL     1      11.183   5.686  23.545  0.00  0.00    +0.189 HD
ATOM     14  N   UNL     1      11.219   3.719  23.045  0.00  0.00    -0.157 NA
ENDROOT
BRANCH   8  15
ATOM     15  N   UNL     1       6.440   2.795  26.486  0.00  0.00    -0.207 N 
ATOM     16  S   UNL     1       6.713   2.260  28.058  0.00  0.00    +0.046 S 
ATOM     17  O   UNL     1       7.399   3.281  28.813  0.00  0.00    -0.155 OA
ATOM     18  O   UNL     1       7.172   0.888  28.000  0.00  0.00    -0.155 OA
ATOM     19  C   UNL     1       4.979   2.261  28.499  0.00  0.00    +0.190 C 
ATOM     20  C   UNL     1       4.254   2.958  27.347  0.00  0.00    +0.045 C 
ATOM     21  C   UNL     1       5.049   2.693  26.067  0.00  0.00    +0.133 C 
ENDBRANCH   8  15
BRANCH   2  22
ATOM     22  C   UNL     1       9.823  -0.611  21.750  0.00  0.00    +0.131 C 
BRANCH  22  23
ATOM     23  C   UNL     1       9.192  -1.690  22.592  0.00  0.00    -0.039 A 
ATOM     24  C   UNL     1       9.842  -2.213  23.709  0.00  0.00    +0.006 A 
ATOM     25  C   UNL     1       9.242  -3.225  24.474  0.00  0.00    +0.023 A 
ATOM     26  C   UNL     1       7.980  -3.757  24.163  0.00  0.00    +0.030 A 
ATOM     27  C   UNL     1       7.368  -3.249  23.009  0.00  0.00    +0.023 A 
ATOM     28  C   UNL     1       7.959  -2.240  22.233  0.00  0.00    +0.006 A 
BRANCH  26  29
ATOM     29  N   UNL     1       7.404  -4.747  24.941  0.00  0.00    -0.330 N 
ATOM     30  C   UNL     1       6.213  -5.475  24.492  0.00  0.00    +0.105 C 
ATOM     31  C   UNL     1       5.179  -5.478  25.615  0.00  0.00    +0.019 C 
ATOM     32  C   UNL     1       5.771  -6.044  26.905  0.00  0.00    +0.003 C 
ATOM     33  C   UNL     1       7.063  -5.319  27.280  0.00  0.00    +0.019 C 
ATOM     34  C   UNL     1       8.063  -5.315  26.120  0.00  0.00    +0.105 C 
ENDBRANCH  26  29
ENDBRANCH  22  23
ENDBRANCH   2  22
TORSDOF 4
ENDMDL
MODEL 3
REMARK VINA RESULT:      -8.0      4.023      8.529
REMARK  Name = 
REMARK  4 active torsions:
REMARK  status: ('A' for Active; 'I' for Inactive)
REMARK    1  A    between atoms: C_2  and  C_3
REMARK    2  A    between atoms: C_3  and  C_4
REMARK    3  A    between atoms: C_7  and  N_10
REMARK    4  A    between atoms: C_23  and  N_26
REMARK                            x       y       z     vdW  Elec       q    Type
REMARK                         _______ _______ _______ _____ _____    ______ ____
ROOT
ATOM      1  O   UNL     1       8.308   1.140  21.867  0.00  0.00    -0.275 OA
ATOM      2  C   UNL     1       9.433   0.708  22.114  0.00  0.00    +0.223 C 
ATOM      3  N   UNL     1      10.438   1.425  22.732  0.00  0.00    -0.268 N 
ATOM      4  H   UNL     1      11.385   1.277  22.412  0.00  0.00    +0.156 HD
ATOM      5  C   UNL     1      10.219   2.677  23.262  0.00  0.00    +0.154 A 
ATOM      6  C   UNL     1       9.142   3.123  24.086  0.00  0.00    +0.043 A 
ATOM      7  C   UNL     1       8.026   2.537  24.715  0.00  0.00    +0.038 A 
ATOM      8  C   UNL     1       7.229   3.328  25.547  0.00  0.00    +0.052 A 
ATOM      9  C   UNL     1       7.485   4.691  25.710  0.00  0.00    +0.027 A 
ATOM     10  C   UNL     1       8.580   5.296  25.086  0.00  0.00    +0.029 A 
ATOM     11  C   UNL     1       9.404   4.471  24.310  0.00  0.00    +0.068 A 
ATOM     12  N   UNL     1      10.574   4.716  23.642  0.00  0.00    -0.275 N 
ATOM     13  H   UNL     1      11.066   5.601  23.573  0.00  0.00    +0.189 HD
ATOM     14  N   UNL     1      11.136   3.630  23.091  0.00  0.00    -0.157 NA
ENDROOT
BRANCH   8  15
ATOM     15  N   UNL     1       6.165   2.721  26.254  0.00  0.00    -0.207 N 
ATOM     16  S   UNL     1       4.615   2.629  25.606  0.00  0.00    +0.046 S 
ATOM     17  O   UNL     1       4.679   2.160  24.242  0.00  0.00    -0.155 OA
ATOM     18  O   UNL     1       3.887   3.820  25.990  0.00  0.00    -0.155 OA
ATOM     19  C   UNL     1       4.108   1.284  26.671  0.00  0.00    +0.190 C 
ATOM     20  C   UNL     1       5.379   0.807  27.377  0.00  0.00    +0.045 C 
ATOM     21  C   UNL     1       6.315   2.008  27.515  0.00  0.00    +0.133 C 
ENDBRANCH   8  15
BRANCH   2  22
ATOM     22  C   UNL     1       9.826  -0.713  21.751  0.00  0.00    +0.131 C 
BRANCH  22  23
ATOM     23  C   UNL     1       9.190  -1.785  22.598  0.00  0.00    -0.039 A 
ATOM     24  C   UNL     1       9.837  -2.304  23.719  0.00  0.00    +0.006 A 
ATOM     25  C   UNL     1       9.233  -3.309  24.489  0.00  0.00    +0.023 A 
ATOM     26  C   UNL     1       7.968  -3.838  24.180  0.00  0.00    +0.030 A 
ATOM     27  C   UNL     1       7.360  -3.334  23.023  0.00  0.00    +0.023 A 
ATOM     28  C   UNL     1       7.956  -2.332  22.242  0.00  0.00    +0.006 A 
BRANCH  26  29
ATOM     29  N   UNL     1       7.388  -4.821  24.963  0.00  0.00    -0.330 N 
ATOM     30  C   UNL     1       6.224  -5.581  24.496  0.00  0.00    +0.105 C 
ATOM     31  C   UNL     1       5.157  -5.578  25.589  0.00  0.00    +0.019 C 
ATOM     32  C   UNL     1       5.722  -6.105  26.908  0.00  0.00    +0.003 C 
ATOM     33  C   UNL     1       6.990  -5.349  27.303  0.00  0.00    +0.019 C 
ATOM     34  C   UNL     1       8.022  -5.351  26.172  0.00  0.00    +0.105 C 
ENDBRANCH  26  29
ENDBRANCH  22  23
ENDBRANCH   2  22
TORSDOF 4
ENDMDL
MODEL 4
REMARK VINA RESULT:      -8.0      2.781      4.048
REMARK  Name = 
REMARK  4 active torsions:
REMARK  status: ('A' for Active; 'I' for Inactive)
REMARK    1  A    between atoms: C_2  and  C_3
REMARK    2  A    between atoms: C_3  and  C_4
REMARK    3  A    between atoms: C_7  and  N_10
REMARK    4  A    between atoms: C_23  and  N_26
REMARK                            x       y       z     vdW  Elec       q    Type
REMARK                         _______ _______ _______ _____ _____    ______ ____
ROOT
ATOM      1  O   UNL     1       7.589  -1.436  24.669  0.00  0.00    -0.275 OA
ATOM      2  C   UNL     1       8.481  -1.855  23.933  0.00  0.00    +0.223 C 
ATOM      3  N   UNL     1       9.180  -3.030  24.123  0.00  0.00    -0.268 N 
ATOM      4  H   UNL     1      10.164  -3.034  23.892  0.00  0.00    +0.156 HD
ATOM      5  C   UNL     1       8.836  -3.928  25.108  0.00  0.00    +0.154 A 
ATOM      6  C   UNL     1       7.544  -4.425  25.454  0.00  0.00    +0.043 A 
ATOM      7  C   UNL     1       6.234  -4.306  24.949  0.00  0.00    +0.038 A 
ATOM      8  C   UNL     1       5.213  -5.056  25.539  0.00  0.00    +0.052 A 
ATOM      9  C   UNL     1       5.460  -5.864  26.650  0.00  0.00    +0.027 A 
ATOM     10  C   UNL     1       6.750  -5.989  27.175  0.00  0.00    +0.029 A 
ATOM     11  C   UNL     1       7.770  -5.280  26.528  0.00  0.00    +0.068 A 
ATOM     12  N   UNL     1       9.124  -5.242  26.727  0.00  0.00    -0.275 N 
ATOM     13  H   UNL     1       9.653  -5.736  27.439  0.00  0.00    +0.189 HD
ATOM     14  N   UNL     1       9.797  -4.517  25.822  0.00  0.00    -0.157 NA
ENDROOT
BRANCH   8  15
ATOM     15  N   UNL     1       3.917  -5.010  24.975  0.00  0.00    -0.207 N 
ATOM     16  S   UNL     1       3.428  -6.108  23.798  0.00  0.00    +0.046 S 
ATOM     17  O   UNL     1       3.783  -7.450  24.200  0.00  0.00    -0.155 OA
ATOM     18  O   UNL     1       3.764  -5.567  22.498  0.00  0.00    -0.155 OA
ATOM     19  C   UNL     1       1.683  -5.846  24.091  0.00  0.00    +0.190 C 
ATOM     20  C   UNL     1       1.594  -4.998  25.362  0.00  0.00    +0.045 C 
ATOM     21  C   UNL     1       2.851  -4.129  25.431  0.00  0.00    +0.133 C 
ENDBRANCH   8  15
BRANCH   2  22
ATOM     22  C   UNL     1       8.903  -1.084  22.694  0.00  0.00    +0.131 C 
BRANCH  22  23
ATOM     23  C   UNL     1       9.254   0.362  22.934  0.00  0.00    -0.039 A 
ATOM     24  C   UNL     1      10.385   0.723  23.666  0.00  0.00    +0.006 A 
ATOM     25  C   UNL     1      10.689   2.075  23.888  0.00  0.00    +0.023 A 
ATOM     26  C   UNL     1       9.888   3.118  23.396  0.00  0.00    +0.030 A 
ATOM     27  C   UNL     1       8.732   2.729  22.705  0.00  0.00    +0.023 A 
ATOM     28  C   UNL     1       8.414   1.382  22.480  0.00  0.00    +0.006 A 
BRANCH  26  29
ATOM     29  N   UNL     1      10.216   4.444  23.618  0.00  0.00    -0.330 N 
ATOM     30  C   UNL     1      11.517   4.987  23.213  0.00  0.00    +0.105 C 
ATOM     31  C   UNL     1      12.125   5.749  24.388  0.00  0.00    +0.019 C 
ATOM     32  C   UNL     1      11.166   6.823  24.902  0.00  0.00    +0.003 C 
ATOM     33  C   UNL     1       9.794   6.227  25.217  0.00  0.00    +0.019 C 
ATOM     34  C   UNL     1       9.231   5.450  24.024  0.00  0.00    +0.105 C 
ENDBRANCH  26  29
ENDBRANCH  22  23
ENDBRANCH   2  22
TORSDOF 4
ENDMDL
MODEL 5
REMARK VINA RESULT:      -8.0      2.053      2.422
REMARK  Name = 
REMARK  4 active torsions:
REMARK  status: ('A' for Active; 'I' for Inactive)
REMARK    1  A    between atoms: C_2  and  C_3
REMARK    2  A    between atoms: C_3  and  C_4
REMARK    3  A    between atoms: C_7  and  N_10
REMARK    4  A    between atoms: C_23  and  N_26
REMARK                            x       y       z     vdW  Elec       q    Type
REMARK                         _______ _______ _______ _____ _____    ______ ____
ROOT
ATOM      1  O   UNL     1       8.114  -5.298  25.346  0.00  0.00    -0.275 OA
ATOM      2  C   UNL     1       8.490  -4.572  24.427  0.00  0.00    +0.223 C 
ATOM      3  N   UNL     1       7.883  -4.480  23.190  0.00  0.00    -0.268 N 
ATOM      4  H   UNL     1       8.478  -4.366  22.382  0.00  0.00    +0.156 HD
ATOM      5  C   UNL     1       6.689  -5.109  22.918  0.00  0.00    +0.154 A 
ATOM      6  C   UNL     1       5.499  -5.148  23.705  0.00  0.00    +0.043 A 
ATOM      7  C   UNL     1       5.046  -4.562  24.904  0.00  0.00    +0.038 A 
ATOM      8  C   UNL     1       3.727  -4.787  25.309  0.00  0.00    +0.052 A 
ATOM      9  C   UNL     1       2.882  -5.627  24.582  0.00  0.00    +0.027 A 
ATOM     10  C   UNL     1       3.314  -6.228  23.395  0.00  0.00    +0.029 A 
ATOM     11  C   UNL     1       4.617  -5.936  22.973  0.00  0.00    +0.068 A 
ATOM     12  N   UNL     1       5.311  -6.285  21.846  0.00  0.00    -0.275 N 
ATOM     13  H   UNL     1       4.987  -6.871  21.083  0.00  0.00    +0.189 HD
ATOM     14  N   UNL     1       6.521  -5.715  21.742  0.00  0.00    -0.157 NA
ENDROOT
BRANCH   8  15
ATOM     15  N   UNL     1       3.243  -4.124  26.460  0.00  0.00    -0.207 N 
ATOM     16  S   UNL     1       2.430  -2.655  26.356  0.00  0.00    +0.046 S 
ATOM     17  O   UNL     1       1.425  -2.721  25.321  0.00  0.00    -0.155 OA
ATOM     18  O   UNL     1       3.404  -1.586  26.431  0.00  0.00    -0.155 OA
ATOM     19  C   UNL     1       1.645  -2.825  27.954  0.00  0.00    +0.190 C 
ATOM     20  C   UNL     1       1.927  -4.258  28.408  0.00  0.00    +0.045 C 
ATOM     21  C   UNL     1       3.266  -4.685  27.804  0.00  0.00    +0.133 C 
ENDBRANCH   8  15
BRANCH   2  22
ATOM     22  C   UNL     1       9.704  -3.674  24.583  0.00  0.00    +0.131 C 
BRANCH  22  23
ATOM     23  C   UNL     1       9.494  -2.242  24.160  0.00  0.00    -0.039 A 
ATOM     24  C   UNL     1       8.576  -1.420  24.813  0.00  0.00    +0.006 A 
ATOM     25  C   UNL     1       8.387  -0.093  24.397  0.00  0.00    +0.023 A 
ATOM     26  C   UNL     1       9.097   0.469  23.324  0.00  0.00    +0.030 A 
ATOM     27  C   UNL     1       9.977  -0.391  22.654  0.00  0.00    +0.023 A 
ATOM     28  C   UNL     1      10.172  -1.721  23.056  0.00  0.00    +0.006 A 
BRANCH  26  29
ATOM     29  N   UNL     1       8.901   1.785  22.941  0.00  0.00    -0.330 N 
ATOM     30  C   UNL     1       9.713   2.872  23.498  0.00  0.00    +0.105 C 
ATOM     31  C   UNL     1       8.789   3.990  23.973  0.00  0.00    +0.019 C 
ATOM     32  C   UNL     1       7.865   4.455  22.847  0.00  0.00    +0.003 C 
ATOM     33  C   UNL     1       7.114   3.275  22.232  0.00  0.00    +0.019 C 
ATOM     34  C   UNL     1       8.072   2.164  21.793  0.00  0.00    +0.105 C 
ENDBRANCH  26  29
ENDBRANCH  22  23
ENDBRANCH   2  22
TORSDOF 4
ENDMDL
MODEL 6
REMARK VINA RESULT:      -8.0      2.713      3.332
REMARK  Name = 
REMARK  4 active torsions:
REMARK  status: ('A' for Active; 'I' for Inactive)
REMARK    1  A    between atoms: C_2  and  C_3
REMARK    2  A    between atoms: C_3  and  C_4
REMARK    3  A    between atoms: C_7  and  N_10
REMARK    4  A    between atoms: C_23  and  N_26
REMARK                            x       y       z     vdW  Elec       q    Type
REMARK                         _______ _______ _______ _____ _____    ______ ____
ROOT
ATOM      1  O   UNL     1       9.225  -3.346  24.280  0.00  0.00    -0.275 OA
ATOM      2  C   UNL     1       9.160  -2.633  23.281  0.00  0.00    +0.223 C 
ATOM      3  N   UNL     1       8.143  -2.667  22.347  0.00  0.00    -0.268 N 
ATOM      4  H   UNL     1       8.391  -2.533  21.377  0.00  0.00    +0.156 HD
ATOM      5  C   UNL     1       7.012  -3.431  22.532  0.00  0.00    +0.154 A 
ATOM      6  C   UNL     1       6.197  -3.554  23.697  0.00  0.00    +0.043 A 
ATOM      7  C   UNL     1       6.140  -2.958  24.973  0.00  0.00    +0.038 A 
ATOM      8  C   UNL     1       5.090  -3.300  25.830  0.00  0.00    +0.052 A 
ATOM      9  C   UNL     1       4.144  -4.259  25.466  0.00  0.00    +0.027 A 
ATOM     10  C   UNL     1       4.188  -4.872  24.210  0.00  0.00    +0.029 A 
ATOM     11  C   UNL     1       5.209  -4.467  23.341  0.00  0.00    +0.068 A 
ATOM     12  N   UNL     1       5.488  -4.797  22.042  0.00  0.00    -0.275 N 
ATOM     13  H   UNL     1       4.982  -5.452  21.454  0.00  0.00    +0.189 HD
ATOM     14  N   UNL     1       6.505  -4.110  21.502  0.00  0.00    -0.157 NA
ENDROOT
BRANCH   8  15
ATOM     15  N   UNL     1       4.977  -2.634  27.072  0.00  0.00    -0.207 N 
ATOM     16  S   UNL     1       4.977  -0.955  27.176  0.00  0.00    +0.046 S 
ATOM     17  O   UNL     1       4.072  -0.401  26.195  0.00  0.00    -0.155 OA
ATOM     18  O   UNL     1       6.345  -0.504  27.319  0.00  0.00    -0.155 OA
ATOM     19  C   UNL     1       4.196  -0.923  28.785  0.00  0.00    +0.190 C 
ATOM     20  C   UNL     1       3.746  -2.359  29.061  0.00  0.00    +0.045 C 
ATOM     21  C   UNL     1       4.716  -3.298  28.342  0.00  0.00    +0.133 C 
ENDBRANCH   8  15
BRANCH   2  22
ATOM     22  C   UNL     1      10.236  -1.605  22.978  0.00  0.00    +0.131 C 
BRANCH  22  23
ATOM     23  C   UNL     1       9.797  -0.169  23.105  0.00  0.00    -0.039 A 
ATOM     24  C   UNL     1       9.724   0.669  21.992  0.00  0.00    +0.006 A 
ATOM     25  C   UNL     1       9.324   2.006  22.132  0.00  0.00    +0.023 A 
ATOM     26  C   UNL     1       8.979   2.564  23.374  0.00  0.00    +0.030 A 
ATOM     27  C   UNL     1       9.106   1.716  24.482  0.00  0.00    +0.023 A 
ATOM     28  C   UNL     1       9.510   0.379  24.357  0.00  0.00    +0.006 A 
BRANCH  26  29
ATOM     29  N   UNL     1       8.575   3.884  23.484  0.00  0.00    -0.330 N 
ATOM     30  C   UNL     1       7.260   4.322  23.005  0.00  0.00    +0.105 C 
ATOM     31  C   UNL     1       7.436   5.564  22.134  0.00  0.00    +0.019 C 
ATOM     32  C   UNL     1       8.191   6.659  22.886  0.00  0.00    +0.003 C 
ATOM     33  C   UNL     1       9.508   6.129  23.450  0.00  0.00    +0.019 C 
ATOM     34  C   UNL     1       9.293   4.870  24.295  0.00  0.00    +0.105 C 
ENDBRANCH  26  29
ENDBRANCH  22  23
ENDBRANCH   2  22
TORSDOF 4
ENDMDL
MODEL 7
REMARK VINA RESULT:      -7.9      3.848      8.811
REMARK  Name = 
REMARK  4 active torsions:
REMARK  status: ('A' for Active; 'I' for Inactive)
REMARK    1  A    between atoms: C_2  and  C_3
REMARK    2  A    between atoms: C_3  and  C_4
REMARK    3  A    between atoms: C_7  and  N_10
REMARK    4  A    between atoms: C_23  and  N_26
REMARK                            x       y       z     vdW  Elec       q    Type
REMARK                         _______ _______ _______ _____ _____    ______ ____
ROOT
ATOM      1  O   UNL     1       9.017   0.861  21.204  0.00  0.00    -0.275 OA
ATOM      2  C   UNL     1       9.772   0.414  22.066  0.00  0.00    +0.223 C 
ATOM      3  N   UNL     1      10.409   1.170  23.030  0.00  0.00    -0.268 N 
ATOM      4  H   UNL     1      11.350   0.906  23.287  0.00  0.00    +0.156 HD
ATOM      5  C   UNL     1      10.140   2.509  23.199  0.00  0.00    +0.154 A 
ATOM      6  C   UNL     1       8.875   3.167  23.257  0.00  0.00    +0.043 A 
ATOM      7  C   UNL     1       7.520   2.778  23.260  0.00  0.00    +0.038 A 
ATOM      8  C   UNL     1       6.538   3.759  23.432  0.00  0.00    +0.052 A 
ATOM      9  C   UNL     1       6.876   5.109  23.534  0.00  0.00    +0.027 A 
ATOM     10  C   UNL     1       8.214   5.518  23.522  0.00  0.00    +0.029 A 
ATOM     11  C   UNL     1       9.184   4.514  23.416  0.00  0.00    +0.068 A 
ATOM     12  N   UNL     1      10.552   4.558  23.453  0.00  0.00    -0.275 N 
ATOM     13  H   UNL     1      11.136   5.382  23.546  0.00  0.00    +0.189 HD
ATOM     14  N   UNL     1      11.145   3.356  23.427  0.00  0.00    -0.157 NA
ENDROOT
BRANCH   8  15
ATOM     15  N   UNL     1       5.185   3.361  23.530  0.00  0.00    -0.207 N 
ATOM     16  S   UNL     1       4.567   2.676  24.937  0.00  0.00    +0.046 S 
ATOM     17  O   UNL     1       4.974   3.454  26.083  0.00  0.00    -0.155 OA
ATOM     18  O   UNL     1       4.744   1.241  24.863  0.00  0.00    -0.155 OA
ATOM     19  C   UNL     1       2.867   3.061  24.534  0.00  0.00    +0.190 C 
ATOM     20  C   UNL     1       2.924   3.983  23.315  0.00  0.00    +0.045 C 
ATOM     21  C   UNL     1       4.175   3.620  22.513  0.00  0.00    +0.133 C 
ENDBRANCH   8  15
BRANCH   2  22
ATOM     22  C   UNL     1      10.076  -1.071  22.150  0.00  0.00    +0.131 C 
BRANCH  22  23
ATOM     23  C   UNL     1       9.150  -1.860  23.039  0.00  0.00    -0.039 A 
ATOM     24  C   UNL     1       7.941  -2.365  22.561  0.00  0.00    +0.006 A 
ATOM     25  C   UNL     1       7.087  -3.089  23.407  0.00  0.00    +0.023 A 
ATOM     26  C   UNL     1       7.396  -3.340  24.754  0.00  0.00    +0.030 A 
ATOM     27  C   UNL     1       8.592  -2.782  25.222  0.00  0.00    +0.023 A 
ATOM     28  C   UNL     1       9.453  -2.053  24.389  0.00  0.00    +0.006 A 
BRANCH  26  29
ATOM     29  N   UNL     1       6.541  -4.068  25.565  0.00  0.00    -0.330 N 
ATOM     30  C   UNL     1       6.684  -4.061  27.025  0.00  0.00    +0.105 C 
ATOM     31  C   UNL     1       6.669  -5.502  27.532  0.00  0.00    +0.019 C 
ATOM     32  C   UNL     1       5.415  -6.237  27.060  0.00  0.00    +0.003 C 
ATOM     33  C   UNL     1       5.256  -6.133  25.543  0.00  0.00    +0.019 C 
ATOM     34  C   UNL     1       5.303  -4.676  25.072  0.00  0.00    +0.105 C 
ENDBRANCH  26  29
ENDBRANCH  22  23
ENDBRANCH   2  22
TORSDOF 4
ENDMDL
MODEL 8
REMARK VINA RESULT:      -7.7      4.296      9.234
REMARK  Name = 
REMARK  4 active torsions:
REMARK  status: ('A' for Active; 'I' for Inactive)
REMARK    1  A    between atoms: C_2  and  C_3
REMARK    2  A    between atoms: C_3  and  C_4
REMARK    3  A    between atoms: C_7  and  N_10
REMARK    4  A    between atoms: C_23  and  N_26
REMARK                            x       y       z     vdW  Elec       q    Type
REMARK                         _______ _______ _______ _____ _____    ______ ____
ROOT
ATOM      1  O   UNL     1       9.260   1.805  22.322  0.00  0.00    -0.275 OA
ATOM      2  C   UNL     1       9.907   1.861  23.366  0.00  0.00    +0.223 C 
ATOM      3  N   UNL     1      10.208   3.021  24.051  0.00  0.00    -0.268 N 
ATOM      4  H   UNL     1      11.116   3.085  24.490  0.00  0.00    +0.156 HD
ATOM      5  C   UNL     1       9.679   4.239  23.686  0.00  0.00    +0.154 A 
ATOM      6  C   UNL     1       8.329   4.565  23.357  0.00  0.00    +0.043 A 
ATOM      7  C   UNL     1       7.088   3.896  23.351  0.00  0.00    +0.038 A 
ATOM      8  C   UNL     1       5.934   4.621  23.040  0.00  0.00    +0.052 A 
ATOM      9  C   UNL     1       6.002   5.967  22.678  0.00  0.00    +0.027 A 
ATOM     10  C   UNL     1       7.224   6.647  22.666  0.00  0.00    +0.029 A 
ATOM     11  C   UNL     1       8.359   5.920  23.045  0.00  0.00    +0.068 A 
ATOM     12  N   UNL     1       9.666   6.290  23.215  0.00  0.00    -0.275 N 
ATOM     13  H   UNL     1      10.067   7.211  23.065  0.00  0.00    +0.189 HD
ATOM     14  N   UNL     1      10.457   5.322  23.699  0.00  0.00    -0.157 NA
ENDROOT
BRANCH   8  15
ATOM     15  N   UNL     1       4.678   3.976  23.126  0.00  0.00    -0.207 N 
ATOM     16  S   UNL     1       4.150   3.259  24.553  0.00  0.00    +0.046 S 
ATOM     17  O   UNL     1       4.358   4.161  25.663  0.00  0.00    -0.155 OA
ATOM     18  O   UNL     1       4.600   1.884  24.569  0.00  0.00    -0.155 OA
ATOM     19  C   UNL     1       2.424   3.288  24.084  0.00  0.00    +0.190 C 
ATOM     20  C   UNL     1       2.350   4.138  22.814  0.00  0.00    +0.045 C 
ATOM     21  C   UNL     1       3.677   3.981  22.069  0.00  0.00    +0.133 C 
ENDBRANCH   8  15
BRANCH   2  22
ATOM     22  C   UNL     1      10.449   0.603  24.022  0.00  0.00    +0.131 C 
BRANCH  22  23
ATOM     23  C   UNL     1       9.546  -0.601  23.931  0.00  0.00    -0.039 A 
ATOM     24  C   UNL     1       9.788  -1.621  23.011  0.00  0.00    +0.006 A 
ATOM     25  C   UNL     1       8.930  -2.729  22.935  0.00  0.00    +0.023 A 
ATOM     26  C   UNL     1       7.804  -2.869  23.763  0.00  0.00    +0.030 A 
ATOM     27  C   UNL     1       7.556  -1.809  24.645  0.00  0.00    +0.023 A 
ATOM     28  C   UNL     1       8.403  -0.693  24.729  0.00  0.00    +0.006 A 
BRANCH  26  29
ATOM     29  N   UNL     1       6.980  -3.978  23.676  0.00  0.00    -0.330 N 
ATOM     30  C   UNL     1       7.498  -5.283  23.252  0.00  0.00    +0.105 C 
ATOM     31  C   UNL     1       6.588  -5.849  22.163  0.00  0.00    +0.019 C 
ATOM     32  C   UNL     1       5.137  -5.910  22.639  0.00  0.00    +0.003 C 
ATOM     33  C   UNL     1       4.673  -4.552  23.163  0.00  0.00    +0.019 C 
ATOM     34  C   UNL     1       5.625  -4.007  24.232  0.00  0.00    +0.105 C 
ENDBRANCH  26  29
ENDBRANCH  22  23
ENDBRANCH   2  22
TORSDOF 4
ENDMDL
MODEL 9
REMARK VINA RESULT:      -7.7      3.081      3.892
REMARK  Name = 
REMARK  4 active torsions:
REMARK  status: ('A' for Active; 'I' for Inactive)
REMARK    1  A    between atoms: C_2  and  C_3
REMARK    2  A    between atoms: C_3  and  C_4
REMARK    3  A    between atoms: C_7  and  N_10
REMARK    4  A    between atoms: C_23  and  N_26
REMARK                            x       y       z     vdW  Elec       q    Type
REMARK                         _______ _______ _______ _____ _____    ______ ____
ROOT
ATOM      1  O   UNL     1       9.313  -1.455  25.254  0.00  0.00    -0.275 OA
ATOM      2  C   UNL     1       9.376  -1.952  24.131  0.00  0.00    +0.223 C 
ATOM      3  N   UNL     1       9.248  -3.298  23.851  0.00  0.00    -0.268 N 
ATOM      4  H   UNL     1       9.830  -3.683  23.120  0.00  0.00    +0.156 HD
ATOM      5  C   UNL     1       8.895  -4.211  24.819  0.00  0.00    +0.154 A 
ATOM      6  C   UNL     1       7.853  -4.126  25.791  0.00  0.00    +0.043 A 
ATOM      7  C   UNL     1       6.805  -3.232  26.090  0.00  0.00    +0.038 A 
ATOM      8  C   UNL     1       5.904  -3.566  27.106  0.00  0.00    +0.052 A 
ATOM      9  C   UNL     1       6.065  -4.729  27.861  0.00  0.00    +0.027 A 
ATOM     10  C   UNL     1       7.105  -5.624  27.589  0.00  0.00    +0.029 A 
ATOM     11  C   UNL     1       7.956  -5.304  26.524  0.00  0.00    +0.068 A 
ATOM     12  N   UNL     1       8.999  -5.982  25.952  0.00  0.00    -0.275 N 
ATOM     13  H   UNL     1       9.373  -6.883  26.235  0.00  0.00    +0.189 HD
ATOM     14  N   UNL     1       9.512  -5.393  24.863  0.00  0.00    -0.157 NA
ENDROOT
BRANCH   8  15
ATOM     15  N   UNL     1       4.798  -2.718  27.345  0.00  0.00    -0.207 N 
ATOM     16  S   UNL     1       3.942  -2.008  26.083  0.00  0.00    +0.046 S 
ATOM     17  O   UNL     1       3.642  -2.997  25.074  0.00  0.00    -0.155 OA
ATOM     18  O   UNL     1       4.559  -0.736  25.770  0.00  0.00    -0.155 OA
ATOM     19  C   UNL     1       2.481  -1.706  27.069  0.00  0.00    +0.190 C 
ATOM     20  C   UNL     1       2.703  -2.451  28.386  0.00  0.00    +0.045 C 
ATOM     21  C   UNL     1       4.209  -2.484  28.656  0.00  0.00    +0.133 C 
ENDBRANCH   8  15
BRANCH   2  22
ATOM     22  C   UNL     1       9.603  -1.090  22.902  0.00  0.00    +0.131 C 
BRANCH  22  23
ATOM     23  C   UNL     1       9.475   0.394  23.134  0.00  0.00    -0.039 A 
ATOM     24  C   UNL     1      10.574   1.166  23.513  0.00  0.00    +0.006 A 
ATOM     25  C   UNL     1      10.432   2.544  23.735  0.00  0.00    +0.023 A 
ATOM     26  C   UNL     1       9.204   3.210  23.590  0.00  0.00    +0.030 A 
ATOM     27  C   UNL     1       8.107   2.404  23.256  0.00  0.00    +0.023 A 
ATOM     28  C   UNL     1       8.233   1.024  23.036  0.00  0.00    +0.006 A 
BRANCH  26  29
ATOM     29  N   UNL     1       9.094   4.573  23.803  0.00  0.00    -0.330 N 
ATOM     30  C   UNL     1      10.265   5.454  23.734  0.00  0.00    +0.105 C 
ATOM     31  C   UNL     1      10.292   6.341  24.977  0.00  0.00    +0.019 C 
ATOM     32  C   UNL     1       8.979   7.108  25.134  0.00  0.00    +0.003 C 
ATOM     33  C   UNL     1       7.783   6.158  25.101  0.00  0.00    +0.019 C 
ATOM     34  C   UNL     1       7.805   5.268  23.855  0.00  0.00    +0.105 C 
ENDBRANCH  26  29
ENDBRANCH  22  23
ENDBRANCH   2  22
TORSDOF 4
ENDMDL
