MODEL 1
REMARK VINA RESULT:      -6.7      0.000      0.000
REMARK  Name = 
REMARK  22 active torsions:
REMARK  status: ('A' for Active; 'I' for Inactive)
REMARK    1  A    between atoms: C_1  and  C_2
REMARK    2  A    between atoms: C_7  and  C_8
REMARK    3  A    between atoms: N_9  and  C_10
REMARK    4  A    between atoms: C_10  and  C_11
REMARK    5  A    between atoms: C_11  and  O_13
REMARK    6  A    between atoms: C_11  and  C_14
REMARK    7  A    between atoms: C_14  and  O_16
REMARK    8  A    between atoms: C_14  and  C_17
REMARK    9  A    between atoms: C_17  and  O_19
REMARK   10  A    between atoms: C_17  and  C_20
REMARK   11  A    between atoms: C_20  and  O_21
REMARK   12  A    between atoms: O_21  and  P_22
REMARK   13  A    between atoms: P_22  and  O_23
REMARK   14  A    between atoms: P_22  and  O_25
REMARK   15  A    between atoms: O_25  and  P_26
REMARK   16  A    between atoms: P_26  and  O_27
REMARK   17  A    between atoms: P_26  and  O_29
REMARK   18  A    between atoms: O_29  and  C_30
REMARK   19  A    between atoms: C_30  and  C_31
REMARK   20  A    between atoms: C_34  and  N_42
REMARK   21  A    between atoms: C_36  and  O_38
REMARK   22  A    between atoms: C_39  and  O_41
REMARK                            x       y       z     vdW  Elec       q    Type
REMARK                         _______ _______ _______ _____ _____    ______ ____
ROOT
ATOM      1  P   UNL     1       3.029  -2.483  26.912  0.00  0.00    +0.483 P 
ATOM      2  O   UNL     1       2.179  -2.370  28.173  0.00  0.00    -0.227 OA
ENDROOT
BRANCH   1   3
ATOM      3  O   UNL     1       1.564  -2.300  26.010  0.00  0.00    -0.302 OA
ATOM      4  H   UNL     1       1.401  -1.331  26.068  0.00  0.00    +0.222 HD
ENDBRANCH   1   3
BRANCH   1   5
ATOM      5  O   UNL     1       4.493  -2.666  27.815  0.00  0.00    -0.186 OA
BRANCH   5   6
ATOM      6  P   UNL     1       5.601  -3.652  26.922  0.00  0.00    +0.483 P 
ATOM      7  O   UNL     1       6.646  -2.537  26.955  0.00  0.00    -0.227 OA
BRANCH   6   8
ATOM      8  O   UNL     1       4.716  -3.406  25.569  0.00  0.00    -0.302 OA
ATOM      9  H   UNL     1       4.607  -2.491  25.271  0.00  0.00    +0.222 HD
ENDBRANCH   6   8
BRANCH   6  10
ATOM     10  O   UNL     1       6.707  -4.636  26.030  0.00  0.00    -0.284 OA
BRANCH  10  11
ATOM     11  C   UNL     1       6.187  -5.210  24.844  0.00  0.00    +0.206 C 
BRANCH  11  12
ATOM     12  C   UNL     1       7.218  -5.095  23.709  0.00  0.00    +0.178 C 
ATOM     13  C   UNL     1       6.585  -4.902  22.330  0.00  0.00    +0.178 C 
ATOM     14  C   UNL     1       6.673  -3.403  22.045  0.00  0.00    +0.195 C 
ATOM     15  C   UNL     1       7.387  -2.828  23.277  0.00  0.00    +0.253 C 
ATOM     16  O   UNL     1       8.061  -3.940  23.907  0.00  0.00    -0.346 OA
BRANCH  15  17
ATOM     17  N   UNL     1       8.348  -1.799  22.928  0.00  0.00    -0.286 N 
ATOM     18  C   UNL     1       8.019  -0.493  22.684  0.00  0.00    +0.167 A 
ATOM     19  N   UNL     1       6.792   0.059  22.701  0.00  0.00    -0.216 NA
ATOM     20  C   UNL     1       6.865   1.377  22.409  0.00  0.00    +0.225 A 
ATOM     21  N   UNL     1       7.955   2.109  22.096  0.00  0.00    -0.219 NA
ATOM     22  C   UNL     1       9.163   1.499  22.095  0.00  0.00    +0.147 A 
ATOM     23  N   UNL     1      10.282   2.254  21.774  0.00  0.00    -0.341 N 
ATOM     24  H   UNL     1      11.071   1.694  21.470  0.00  0.00    +0.144 HD
ATOM     25  H   UNL     1      10.049   3.076  21.234  0.00  0.00    +0.144 HD
ATOM     26  C   UNL     1       9.221   0.129  22.395  0.00  0.00    +0.147 A 
ATOM     27  N   UNL     1      10.263  -0.776  22.446  0.00  0.00    -0.231 NA
ATOM     28  C   UNL     1       9.703  -1.918  22.794  0.00  0.00    +0.203 A 
ENDBRANCH  15  17
BRANCH  14  29
ATOM     29  O   UNL     1       5.375  -2.843  21.843  0.00  0.00    -0.385 OA
ATOM     30  H   UNL     1       5.394  -2.402  20.966  0.00  0.00    +0.210 HD
ENDBRANCH  14  29
BRANCH  13  31
ATOM     31  O   UNL     1       7.351  -5.631  21.355  0.00  0.00    -0.386 OA
ATOM     32  H   UNL     1       6.742  -6.190  20.838  0.00  0.00    +0.210 HD
ENDBRANCH  13  31
ENDBRANCH  11  12
ENDBRANCH  10  11
ENDBRANCH   6  10
ENDBRANCH   5   6
ENDBRANCH   1   5
BRANCH   1  33
ATOM     33  O   UNL     1       3.444  -0.992  26.379  0.00  0.00    -0.284 OA
BRANCH  33  34
ATOM     34  C   UNL     1       3.576   0.107  27.294  0.00  0.00    +0.206 C 
BRANCH  34  35
ATOM     35  C   UNL     1       4.999   0.704  27.394  0.00  0.00    +0.172 C 
BRANCH  35  36
ATOM     36  O   UNL     1       5.817  -0.089  28.264  0.00  0.00    -0.387 OA
ATOM     37  H   UNL     1       5.990  -0.930  27.797  0.00  0.00    +0.210 HD
ENDBRANCH  35  36
BRANCH  35  38
ATOM     38  C   UNL     1       5.685   0.839  25.999  0.00  0.00    +0.175 C 
BRANCH  38  39
ATOM     39  O   UNL     1       5.857  -0.457  25.415  0.00  0.00    -0.387 OA
ATOM     40  H   UNL     1       5.475  -1.127  26.009  0.00  0.00    +0.210 HD
ENDBRANCH  38  39
BRANCH  38  41
ATOM     41  C   UNL     1       7.044   1.577  26.112  0.00  0.00    +0.165 C 
BRANCH  41  42
ATOM     42  O   UNL     1       7.984   0.891  26.944  0.00  0.00    -0.387 OA
ATOM     43  H   UNL     1       8.319   0.143  26.412  0.00  0.00    +0.210 HD
ENDBRANCH  41  42
BRANCH  41  44
ATOM     44  C   UNL     1       6.998   3.078  26.436  0.00  0.00    +0.158 C 
BRANCH  44  51
ATOM     45  C   UNL     1       0.715   5.141  24.533  0.00  0.00    +0.044 C 
ATOM     46  C   UNL     1       2.142   4.946  24.967  0.00  0.00    -0.045 A 
ATOM     47  C   UNL     1       2.536   4.316  26.155  0.00  0.00    -0.045 A 
ATOM     48  C   UNL     1       1.502   3.783  27.116  0.00  0.00    +0.044 C 
ATOM     49  C   UNL     1       3.926   4.102  26.420  0.00  0.00    +0.031 A 
ATOM     50  C   UNL     1       4.941   4.427  25.504  0.00  0.00    +0.069 A 
ATOM     51  N   UNL     1       6.323   4.166  25.647  0.00  0.00    -0.320 N 
ATOM     52  C   UNL     1       7.183   4.720  24.657  0.00  0.00    +0.170 A 
ATOM     53  C   UNL     1       6.604   5.505  23.508  0.00  0.00    +0.171 A 
ATOM     54  N   UNL     1       5.330   5.668  23.377  0.00  0.00    -0.237 NA
ATOM     55  C   UNL     1       7.513   6.064  22.453  0.00  0.00    +0.282 A 
ATOM     56  O   UNL     1       7.113   6.751  21.533  0.00  0.00    -0.265 OA
ATOM     57  N   UNL     1       8.817   5.732  22.644  0.00  0.00    -0.272 N 
ATOM     58  H   UNL     1       9.484   6.079  21.976  0.00  0.00    +0.174 HD
ATOM     59  C   UNL     1       9.312   5.024  23.697  0.00  0.00    +0.351 A 
ATOM     60  O   UNL     1      10.524   4.846  23.748  0.00  0.00    -0.245 OA
ATOM     61  N   UNL     1       8.475   4.534  24.660  0.00  0.00    -0.173 NA
ATOM     62  C   UNL     1       4.492   5.139  24.358  0.00  0.00    +0.089 A 
ATOM     63  C   UNL     1       3.138   5.378  24.105  0.00  0.00    +0.033 A 
ENDBRANCH  44  51
ENDBRANCH  41  44
ENDBRANCH  38  41
ENDBRANCH  35  38
ENDBRANCH  34  35
ENDBRANCH  33  34
ENDBRANCH   1  33
TORSDOF 20
ENDMDL
MODEL 2
REMARK VINA RESULT:      -6.6      3.451      7.760
REMARK  Name = 
REMARK  22 active torsions:
REMARK  status: ('A' for Active; 'I' for Inactive)
REMARK    1  A    between atoms: C_1  and  C_2
REMARK    2  A    between atoms: C_7  and  C_8
REMARK    3  A    between atoms: N_9  and  C_10
REMARK    4  A    between atoms: C_10  and  C_11
REMARK    5  A    between atoms: C_11  and  O_13
REMARK    6  A    between atoms: C_11  and  C_14
REMARK    7  A    between atoms: C_14  and  O_16
REMARK    8  A    between atoms: C_14  and  C_17
REMARK    9  A    between atoms: C_17  and  O_19
REMARK   10  A    between atoms: C_17  and  C_20
REMARK   11  A    between atoms: C_20  and  O_21
REMARK   12  A    between atoms: O_21  and  P_22
REMARK   13  A    between atoms: P_22  and  O_23
REMARK   14  A    between atoms: P_22  and  O_25
REMARK   15  A    between atoms: O_25  and  P_26
REMARK   16  A    between atoms: P_26  and  O_27
REMARK   17  A    between atoms: P_26  and  O_29
REMARK   18  A    between atoms: O_29  and  C_30
REMARK   19  A    between atoms: C_30  and  C_31
REMARK   20  A    between atoms: C_34  and  N_42
REMARK   21  A    between atoms: C_36  and  O_38
REMARK   22  A    between atoms: C_39  and  O_41
REMARK                            x       y       z     vdW  Elec       q    Type
REMARK                         _______ _______ _______ _____ _____    ______ ____
ROOT
ATOM      1  P   UNL     1       3.921   3.222  24.511  0.00  0.00    +0.483 P 
ATOM      2  O   UNL     1       4.770   2.945  23.276  0.00  0.00    -0.227 OA
ENDROOT
BRANCH   1   3
ATOM      3  O   UNL     1       2.569   2.621  23.613  0.00  0.00    -0.302 OA
ATOM      4  H   UNL     1       1.829   3.172  23.956  0.00  0.00    +0.222 HD
ENDBRANCH   1   3
BRANCH   1   5
ATOM      5  O   UNL     1       5.273   3.823  25.409  0.00  0.00    -0.186 OA
BRANCH   5   6
ATOM      6  P   UNL     1       6.670   3.865  24.388  0.00  0.00    +0.483 P 
ATOM      7  O   UNL     1       7.583   3.928  25.613  0.00  0.00    -0.227 OA
BRANCH   6   8
ATOM      8  O   UNL     1       6.327   5.414  23.996  0.00  0.00    -0.302 OA
ATOM      9  H   UNL     1       6.871   6.105  24.401  0.00  0.00    +0.222 HD
ENDBRANCH   6   8
BRANCH   6  10
ATOM     10  O   UNL     1       8.066   3.907  23.369  0.00  0.00    -0.284 OA
BRANCH  10  11
ATOM     11  C   UNL     1       8.073   2.965  22.312  0.00  0.00    +0.206 C 
BRANCH  11  12
ATOM     12  C   UNL     1       9.282   2.025  22.454  0.00  0.00    +0.178 C 
ATOM     13  C   UNL     1       9.853   1.979  23.873  0.00  0.00    +0.178 C 
ATOM     14  C   UNL     1       9.280   0.711  24.504  0.00  0.00    +0.195 C 
ATOM     15  C   UNL     1       8.432   0.086  23.387  0.00  0.00    +0.253 C 
ATOM     16  O   UNL     1       8.904   0.666  22.151  0.00  0.00    -0.346 OA
BRANCH  15  17
ATOM     17  N   UNL     1       8.561  -1.358  23.338  0.00  0.00    -0.286 N 
ATOM     18  C   UNL     1       7.568  -2.204  22.921  0.00  0.00    +0.167 A 
ATOM     19  N   UNL     1       6.330  -1.872  22.511  0.00  0.00    -0.216 NA
ATOM     20  C   UNL     1       5.632  -2.981  22.178  0.00  0.00    +0.225 A 
ATOM     21  N   UNL     1       6.022  -4.272  22.248  0.00  0.00    -0.219 NA
ATOM     22  C   UNL     1       7.280  -4.543  22.666  0.00  0.00    +0.147 A 
ATOM     23  N   UNL     1       7.679  -5.870  22.737  0.00  0.00    -0.341 N 
ATOM     24  H   UNL     1       8.472  -6.020  23.351  0.00  0.00    +0.144 HD
ATOM     25  H   UNL     1       6.895  -6.504  22.812  0.00  0.00    +0.144 HD
ATOM     26  C   UNL     1       8.111  -3.472  23.032  0.00  0.00    +0.147 A 
ATOM     27  N   UNL     1       9.401  -3.409  23.520  0.00  0.00    -0.231 NA
ATOM     28  C   UNL     1       9.646  -2.122  23.667  0.00  0.00    +0.203 A 
ENDBRANCH  15  17
BRANCH  14  29
ATOM     29  O   UNL     1       8.518   1.020  25.673  0.00  0.00    -0.385 OA
ATOM     30  H   UNL     1       7.576   0.870  25.441  0.00  0.00    +0.210 HD
ENDBRANCH  14  29
BRANCH  13  31
ATOM     31  O   UNL     1      11.287   1.884  23.799  0.00  0.00    -0.386 OA
ATOM     32  H   UNL     1      11.634   2.718  23.435  0.00  0.00    +0.210 HD
ENDBRANCH  13  31
ENDBRANCH  11  12
ENDBRANCH  10  11
ENDBRANCH   6  10
ENDBRANCH   5   6
ENDBRANCH   1   5
BRANCH   1  33
ATOM     33  O   UNL     1       3.805   1.870  25.428  0.00  0.00    -0.284 OA
BRANCH  33  34
ATOM     34  C   UNL     1       3.755   1.954  26.860  0.00  0.00    +0.206 C 
BRANCH  34  35
ATOM     35  C   UNL     1       2.952   0.827  27.551  0.00  0.00    +0.172 C 
BRANCH  35  36
ATOM     36  O   UNL     1       1.860   0.407  26.723  0.00  0.00    -0.387 OA
ATOM     37  H   UNL     1       1.694  -0.532  26.932  0.00  0.00    +0.210 HD
ENDBRANCH  35  36
BRANCH  35  38
ATOM     38  C   UNL     1       3.844  -0.400  27.913  0.00  0.00    +0.175 C 
BRANCH  38  39
ATOM     39  O   UNL     1       5.199  -0.149  27.523  0.00  0.00    -0.387 OA
ATOM     40  H   UNL     1       5.379  -0.611  26.685  0.00  0.00    +0.210 HD
ENDBRANCH  38  39
BRANCH  38  41
ATOM     41  C   UNL     1       3.311  -1.696  27.250  0.00  0.00    +0.165 C 
BRANCH  41  42
ATOM     42  O   UNL     1       3.266  -2.807  28.152  0.00  0.00    -0.387 OA
ATOM     43  H   UNL     1       3.078  -2.430  29.034  0.00  0.00    +0.210 HD
ENDBRANCH  41  42
BRANCH  41  44
ATOM     44  C   UNL     1       3.927  -2.094  25.900  0.00  0.00    +0.158 C 
BRANCH  44  51
ATOM     45  C   UNL     1       2.027  -8.594  24.676  0.00  0.00    +0.044 C 
ATOM     46  C   UNL     1       2.617  -7.212  24.752  0.00  0.00    -0.045 A 
ATOM     47  C   UNL     1       1.913  -6.029  24.490  0.00  0.00    -0.045 A 
ATOM     48  C   UNL     1       0.460  -6.077  24.088  0.00  0.00    +0.044 C 
ATOM     49  C   UNL     1       2.552  -4.763  24.686  0.00  0.00    +0.031 A 
ATOM     50  C   UNL     1       3.850  -4.632  25.209  0.00  0.00    +0.069 A 
ATOM     51  N   UNL     1       4.517  -3.424  25.518  0.00  0.00    -0.320 N 
ATOM     52  C   UNL     1       5.885  -3.530  25.899  0.00  0.00    +0.170 A 
ATOM     53  C   UNL     1       6.539  -4.885  25.992  0.00  0.00    +0.171 A 
ATOM     54  N   UNL     1       5.879  -5.970  25.763  0.00  0.00    -0.237 NA
ATOM     55  C   UNL     1       7.974  -4.992  26.418  0.00  0.00    +0.282 A 
ATOM     56  O   UNL     1       8.573  -6.048  26.460  0.00  0.00    -0.265 OA
ATOM     57  N   UNL     1       8.525  -3.791  26.737  0.00  0.00    -0.272 N 
ATOM     58  H   UNL     1       9.490  -3.788  27.026  0.00  0.00    +0.174 HD
ATOM     59  C   UNL     1       7.910  -2.581  26.637  0.00  0.00    +0.351 A 
ATOM     60  O   UNL     1       8.561  -1.581  26.921  0.00  0.00    -0.245 OA
ATOM     61  N   UNL     1       6.607  -2.496  26.231  0.00  0.00    -0.173 NA
ATOM     62  C   UNL     1       4.544  -5.861  25.374  0.00  0.00    +0.089 A 
ATOM     63  C   UNL     1       3.937  -7.101  25.158  0.00  0.00    +0.033 A 
ENDBRANCH  44  51
ENDBRANCH  41  44
ENDBRANCH  38  41
ENDBRANCH  35  38
ENDBRANCH  34  35
ENDBRANCH  33  34
ENDBRANCH   1  33
TORSDOF 20
ENDMDL
MODEL 3
REMARK VINA RESULT:      -6.5      2.940      6.208
REMARK  Name = 
REMARK  22 active torsions:
REMARK  status: ('A' for Active; 'I' for Inactive)
REMARK    1  A    between atoms: C_1  and  C_2
REMARK    2  A    between atoms: C_7  and  C_8
REMARK    3  A    between atoms: N_9  and  C_10
REMARK    4  A    between atoms: C_10  and  C_11
REMARK    5  A    between atoms: C_11  and  O_13
REMARK    6  A    between atoms: C_11  and  C_14
REMARK    7  A    between atoms: C_14  and  O_16
REMARK    8  A    between atoms: C_14  and  C_17
REMARK    9  A    between atoms: C_17  and  O_19
REMARK   10  A    between atoms: C_17  and  C_20
REMARK   11  A    between atoms: C_20  and  O_21
REMARK   12  A    between atoms: O_21  and  P_22
REMARK   13  A    between atoms: P_22  and  O_23
REMARK   14  A    between atoms: P_22  and  O_25
REMARK   15  A    between atoms: O_25  and  P_26
REMARK   16  A    between atoms: P_26  and  O_27
REMARK   17  A    between atoms: P_26  and  O_29
REMARK   18  A    between atoms: O_29  and  C_30
REMARK   19  A    between atoms: C_30  and  C_31
REMARK   20  A    between atoms: C_34  and  N_42
REMARK   21  A    between atoms: C_36  and  O_38
REMARK   22  A    between atoms: C_39  and  O_41
REMARK                            x       y       z     vdW  Elec       q    Type
REMARK                         _______ _______ _______ _____ _____    ______ ____
ROOT
ATOM      1  P   UNL     1       5.541  -6.195  27.488  0.00  0.00    +0.483 P 
ATOM      2  O   UNL     1       5.710  -7.515  28.230  0.00  0.00    -0.227 OA
ENDROOT
BRANCH   1   3
ATOM      3  O   UNL     1       3.894  -6.652  27.221  0.00  0.00    -0.302 OA
ATOM      4  H   UNL     1       3.625  -6.050  26.490  0.00  0.00    +0.222 HD
ENDBRANCH   1   3
BRANCH   1   5
ATOM      5  O   UNL     1       7.188  -5.738  27.755  0.00  0.00    -0.186 OA
BRANCH   5   6
ATOM      6  P   UNL     1       7.739  -4.769  26.431  0.00  0.00    +0.483 P 
ATOM      7  O   UNL     1       9.164  -4.793  26.984  0.00  0.00    -0.227 OA
BRANCH   6   8
ATOM      8  O   UNL     1       7.016  -3.462  27.097  0.00  0.00    -0.302 OA
ATOM      9  H   UNL     1       7.203  -3.279  28.029  0.00  0.00    +0.222 HD
ENDBRANCH   6   8
BRANCH   6  10
ATOM     10  O   UNL     1       8.289  -3.800  25.108  0.00  0.00    -0.284 OA
BRANCH  10  11
ATOM     11  C   UNL     1       8.623  -2.463  25.434  0.00  0.00    +0.206 C 
BRANCH  11  12
ATOM     12  C   UNL     1       9.457  -1.840  24.303  0.00  0.00    +0.178 C 
ATOM     13  C   UNL     1       8.721  -1.786  22.963  0.00  0.00    +0.178 C 
ATOM     14  C   UNL     1       8.194  -0.357  22.843  0.00  0.00    +0.195 C 
ATOM     15  C   UNL     1       8.692   0.336  24.119  0.00  0.00    +0.253 C 
ATOM     16  O   UNL     1       9.785  -0.469  24.613  0.00  0.00    -0.346 OA
BRANCH  15  17
ATOM     17  N   UNL     1       9.148   1.690  23.870  0.00  0.00    -0.286 N 
ATOM     18  C   UNL     1       8.312   2.761  23.693  0.00  0.00    +0.167 A 
ATOM     19  N   UNL     1       6.966   2.758  23.697  0.00  0.00    -0.216 NA
ATOM     20  C   UNL     1       6.492   4.006  23.489  0.00  0.00    +0.225 A 
ATOM     21  N   UNL     1       7.187   5.141  23.262  0.00  0.00    -0.219 NA
ATOM     22  C   UNL     1       8.539   5.083  23.271  0.00  0.00    +0.147 A 
ATOM     23  N   UNL     1       9.251   6.251  23.038  0.00  0.00    -0.341 N 
ATOM     24  H   UNL     1      10.203   6.088  22.732  0.00  0.00    +0.144 HD
ATOM     25  H   UNL     1       8.705   6.941  22.541  0.00  0.00    +0.144 HD
ATOM     26  C   UNL     1       9.154   3.840  23.489  0.00  0.00    +0.147 A 
ATOM     27  N   UNL     1      10.476   3.441  23.524  0.00  0.00    -0.231 NA
ATOM     28  C   UNL     1      10.433   2.148  23.781  0.00  0.00    +0.203 A 
ENDBRANCH  15  17
BRANCH  14  29
ATOM     29  O   UNL     1       6.770  -0.344  22.723  0.00  0.00    -0.385 OA
ATOM     30  H   UNL     1       6.454   0.434  23.231  0.00  0.00    +0.210 HD
ENDBRANCH  14  29
BRANCH  13  31
ATOM     31  O   UNL     1       9.655  -2.054  21.902  0.00  0.00    -0.386 OA
ATOM     32  H   UNL     1      10.406  -1.440  21.989  0.00  0.00    +0.210 HD
ENDBRANCH  13  31
ENDBRANCH  11  12
ENDBRANCH  10  11
ENDBRANCH   6  10
ENDBRANCH   5   6
ENDBRANCH   1   5
BRANCH   1  33
ATOM     33  O   UNL     1       4.969  -5.047  28.506  0.00  0.00    -0.284 OA
BRANCH  33  34
ATOM     34  C   UNL     1       4.493  -5.395  29.815  0.00  0.00    +0.206 C 
BRANCH  34  35
ATOM     35  C   UNL     1       3.557  -4.350  30.466  0.00  0.00    +0.172 C 
BRANCH  35  36
ATOM     36  O   UNL     1       4.175  -3.058  30.477  0.00  0.00    -0.387 OA
ATOM     37  H   UNL     1       4.451  -2.885  31.398  0.00  0.00    +0.210 HD
ENDBRANCH  35  36
BRANCH  35  38
ATOM     38  C   UNL     1       2.172  -4.268  29.751  0.00  0.00    +0.175 C 
BRANCH  38  39
ATOM     39  O   UNL     1       2.134  -5.191  28.657  0.00  0.00    -0.387 OA
ATOM     40  H   UNL     1       2.372  -4.723  27.838  0.00  0.00    +0.210 HD
ENDBRANCH  38  39
BRANCH  38  41
ATOM     41  C   UNL     1       1.876  -2.825  29.266  0.00  0.00    +0.165 C 
BRANCH  41  42
ATOM     42  O   UNL     1       0.602  -2.341  29.700  0.00  0.00    -0.387 OA
ATOM     43  H   UNL     1       0.789  -1.665  30.381  0.00  0.00    +0.210 HD
ENDBRANCH  41  42
BRANCH  41  44
ATOM     44  C   UNL     1       2.113  -2.527  27.777  0.00  0.00    +0.158 C 
BRANCH  44  51
ATOM     45  C   UNL     1       6.657   2.592  27.075  0.00  0.00    +0.044 C 
ATOM     46  C   UNL     1       5.874   1.317  27.228  0.00  0.00    -0.045 A 
ATOM     47  C   UNL     1       5.078   0.996  28.336  0.00  0.00    -0.045 A 
ATOM     48  C   UNL     1       4.965   1.952  29.497  0.00  0.00    +0.044 C 
ATOM     49  C   UNL     1       4.302  -0.206  28.330  0.00  0.00    +0.031 A 
ATOM     50  C   UNL     1       4.230  -1.067  27.222  0.00  0.00    +0.069 A 
ATOM     51  N   UNL     1       3.420  -2.220  27.100  0.00  0.00    -0.320 N 
ATOM     52  C   UNL     1       3.624  -3.024  25.943  0.00  0.00    +0.170 A 
ATOM     53  C   UNL     1       4.635  -2.609  24.905  0.00  0.00    +0.171 A 
ATOM     54  N   UNL     1       5.311  -1.516  25.021  0.00  0.00    -0.237 NA
ATOM     55  C   UNL     1       4.827  -3.447  23.674  0.00  0.00    +0.282 A 
ATOM     56  O   UNL     1       5.663  -3.195  22.829  0.00  0.00    -0.265 OA
ATOM     57  N   UNL     1       3.982  -4.509  23.617  0.00  0.00    -0.272 N 
ATOM     58  H   UNL     1       4.060  -5.118  22.819  0.00  0.00    +0.174 HD
ATOM     59  C   UNL     1       3.081  -4.862  24.575  0.00  0.00    +0.351 A 
ATOM     60  O   UNL     1       2.421  -5.879  24.393  0.00  0.00    -0.245 OA
ATOM     61  N   UNL     1       2.927  -4.100  25.699  0.00  0.00    -0.173 NA
ATOM     62  C   UNL     1       5.121  -0.740  26.164  0.00  0.00    +0.089 A 
ATOM     63  C   UNL     1       5.904   0.418  26.174  0.00  0.00    +0.033 A 
ENDBRANCH  44  51
ENDBRANCH  41  44
ENDBRANCH  38  41
ENDBRANCH  35  38
ENDBRANCH  34  35
ENDBRANCH  33  34
ENDBRANCH   1  33
TORSDOF 20
ENDMDL
MODEL 4
REMARK VINA RESULT:      -6.3      3.352      7.414
REMARK  Name = 
REMARK  22 active torsions:
REMARK  status: ('A' for Active; 'I' for Inactive)
REMARK    1  A    between atoms: C_1  and  C_2
REMARK    2  A    between atoms: C_7  and  C_8
REMARK    3  A    between atoms: N_9  and  C_10
REMARK    4  A    between atoms: C_10  and  C_11
REMARK    5  A    between atoms: C_11  and  O_13
REMARK    6  A    between atoms: C_11  and  C_14
REMARK    7  A    between atoms: C_14  and  O_16
REMARK    8  A    between atoms: C_14  and  C_17
REMARK    9  A    between atoms: C_17  and  O_19
REMARK   10  A    between atoms: C_17  and  C_20
REMARK   11  A    between atoms: C_20  and  O_21
REMARK   12  A    between atoms: O_21  and  P_22
REMARK   13  A    between atoms: P_22  and  O_23
REMARK   14  A    between atoms: P_22  and  O_25
REMARK   15  A    between atoms: O_25  and  P_26
REMARK   16  A    between atoms: P_26  and  O_27
REMARK   17  A    between atoms: P_26  and  O_29
REMARK   18  A    between atoms: O_29  and  C_30
REMARK   19  A    between atoms: C_30  and  C_31
REMARK   20  A    between atoms: C_34  and  N_42
REMARK   21  A    between atoms: C_36  and  O_38
REMARK   22  A    between atoms: C_39  and  O_41
REMARK                            x       y       z     vdW  Elec       q    Type
REMARK                         _______ _______ _______ _____ _____    ______ ____
ROOT
ATOM      1  P   UNL     1       7.659  -4.854  26.006  0.00  0.00    +0.483 P 
ATOM      2  O   UNL     1       8.370  -3.795  26.840  0.00  0.00    -0.227 OA
ENDROOT
BRANCH   1   3
ATOM      3  O   UNL     1       8.081  -5.990  27.240  0.00  0.00    -0.302 OA
ATOM      4  H   UNL     1       8.275  -5.404  28.007  0.00  0.00    +0.222 HD
ENDBRANCH   1   3
BRANCH   1   5
ATOM      5  O   UNL     1       7.237  -3.718  24.771  0.00  0.00    -0.186 OA
BRANCH   5   6
ATOM      6  P   UNL     1       8.502  -2.548  24.607  0.00  0.00    +0.483 P 
ATOM      7  O   UNL     1       7.855  -2.002  23.334  0.00  0.00    -0.227 OA
BRANCH   6   8
ATOM      8  O   UNL     1       9.523  -3.732  24.127  0.00  0.00    -0.302 OA
ATOM      9  H   UNL     1      10.424  -3.469  23.886  0.00  0.00    +0.222 HD
ENDBRANCH   6   8
BRANCH   6  10
ATOM     10  O   UNL     1       9.766  -1.380  24.443  0.00  0.00    -0.284 OA
BRANCH  10  11
ATOM     11  C   UNL     1      10.014  -0.936  23.122  0.00  0.00    +0.206 C 
BRANCH  11  12
ATOM     12  C   UNL     1      10.323   0.570  23.123  0.00  0.00    +0.178 C 
ATOM     13  C   UNL     1       9.617   1.337  22.003  0.00  0.00    +0.178 C 
ATOM     14  C   UNL     1       8.393   1.978  22.655  0.00  0.00    +0.195 C 
ATOM     15  C   UNL     1       8.491   1.561  24.129  0.00  0.00    +0.253 C 
ATOM     16  O   UNL     1       9.866   1.179  24.349  0.00  0.00    -0.346 OA
BRANCH  15  17
ATOM     17  N   UNL     1       8.124   2.635  25.032  0.00  0.00    -0.286 N 
ATOM     18  C   UNL     1       8.613   3.912  24.945  0.00  0.00    +0.167 A 
ATOM     19  N   UNL     1       9.503   4.388  24.056  0.00  0.00    -0.216 NA
ATOM     20  C   UNL     1       9.744   5.698  24.286  0.00  0.00    +0.225 A 
ATOM     21  N   UNL     1       9.242   6.485  25.261  0.00  0.00    -0.219 NA
ATOM     22  C   UNL     1       8.349   5.950  26.126  0.00  0.00    +0.147 A 
ATOM     23  N   UNL     1       7.834   6.762  27.127  0.00  0.00    -0.341 N 
ATOM     24  H   UNL     1       7.454   6.242  27.911  0.00  0.00    +0.144 HD
ATOM     25  H   UNL     1       8.433   7.551  27.328  0.00  0.00    +0.144 HD
ATOM     26  C   UNL     1       8.007   4.596  25.984  0.00  0.00    +0.147 A 
ATOM     27  N   UNL     1       7.177   3.758  26.702  0.00  0.00    -0.231 NA
ATOM     28  C   UNL     1       7.253   2.595  26.085  0.00  0.00    +0.203 A 
ENDBRANCH  15  17
BRANCH  14  29
ATOM     29  O   UNL     1       7.188   1.533  22.030  0.00  0.00    -0.385 OA
ATOM     30  H   UNL     1       6.907   0.723  22.509  0.00  0.00    +0.210 HD
ENDBRANCH  14  29
BRANCH  13  31
ATOM     31  O   UNL     1      10.498   2.359  21.505  0.00  0.00    -0.386 OA
ATOM     32  H   UNL     1      10.452   2.361  20.532  0.00  0.00    +0.210 HD
ENDBRANCH  13  31
ENDBRANCH  11  12
ENDBRANCH  10  11
ENDBRANCH   6  10
ENDBRANCH   5   6
ENDBRANCH   1   5
BRANCH   1  33
ATOM     33  O   UNL     1       6.108  -5.015  26.505  0.00  0.00    -0.284 OA
BRANCH  33  34
ATOM     34  C   UNL     1       5.535  -6.314  26.718  0.00  0.00    +0.206 C 
BRANCH  34  35
ATOM     35  C   UNL     1       4.950  -6.544  28.131  0.00  0.00    +0.172 C 
BRANCH  35  36
ATOM     36  O   UNL     1       5.483  -7.743  28.707  0.00  0.00    -0.387 OA
ATOM     37  H   UNL     1       5.471  -8.422  28.005  0.00  0.00    +0.210 HD
ENDBRANCH  35  36
BRANCH  35  38
ATOM     38  C   UNL     1       5.212  -5.337  29.085  0.00  0.00    +0.175 C 
BRANCH  38  39
ATOM     39  O   UNL     1       6.295  -5.642  29.970  0.00  0.00    -0.387 OA
ATOM     40  H   UNL     1       6.529  -4.842  30.472  0.00  0.00    +0.210 HD
ENDBRANCH  38  39
BRANCH  38  41
ATOM     41  C   UNL     1       3.935  -4.966  29.883  0.00  0.00    +0.165 C 
BRANCH  41  42
ATOM     42  O   UNL     1       3.193  -6.112  30.312  0.00  0.00    -0.387 OA
ATOM     43  H   UNL     1       2.256  -5.833  30.335  0.00  0.00    +0.210 HD
ENDBRANCH  41  42
BRANCH  41  44
ATOM     44  C   UNL     1       3.015  -3.898  29.272  0.00  0.00    +0.158 C 
BRANCH  44  51
ATOM     45  C   UNL     1       2.016  -6.364  22.926  0.00  0.00    +0.044 C 
ATOM     46  C   UNL     1       2.107  -5.613  24.226  0.00  0.00    -0.045 A 
ATOM     47  C   UNL     1       1.524  -6.029  25.430  0.00  0.00    -0.045 A 
ATOM     48  C   UNL     1       0.725  -7.308  25.491  0.00  0.00    +0.044 C 
ATOM     49  C   UNL     1       1.755  -5.282  26.628  0.00  0.00    +0.031 A 
ATOM     50  C   UNL     1       2.615  -4.171  26.685  0.00  0.00    +0.069 A 
ATOM     51  N   UNL     1       2.970  -3.437  27.841  0.00  0.00    -0.320 N 
ATOM     52  C   UNL     1       3.740  -2.257  27.636  0.00  0.00    +0.170 A 
ATOM     53  C   UNL     1       4.168  -1.868  26.243  0.00  0.00    +0.171 A 
ATOM     54  N   UNL     1       3.878  -2.599  25.220  0.00  0.00    -0.237 NA
ATOM     55  C   UNL     1       5.001  -0.637  26.036  0.00  0.00    +0.282 A 
ATOM     56  O   UNL     1       5.331  -0.242  24.935  0.00  0.00    -0.265 OA
ATOM     57  N   UNL     1       5.331  -0.017  27.199  0.00  0.00    -0.272 N 
ATOM     58  H   UNL     1       5.886   0.821  27.134  0.00  0.00    +0.174 HD
ATOM     59  C   UNL     1       4.925  -0.389  28.444  0.00  0.00    +0.351 A 
ATOM     60  O   UNL     1       5.273   0.306  29.392  0.00  0.00    -0.245 OA
ATOM     61  N   UNL     1       4.152  -1.503  28.617  0.00  0.00    -0.173 NA
ATOM     62  C   UNL     1       3.109  -3.745  25.423  0.00  0.00    +0.089 A 
ATOM     63  C   UNL     1       2.864  -4.453  24.243  0.00  0.00    +0.033 A 
ENDBRANCH  44  51
ENDBRANCH  41  44
ENDBRANCH  38  41
ENDBRANCH  35  38
ENDBRANCH  34  35
ENDBRANCH  33  34
ENDBRANCH   1  33
TORSDOF 20
ENDMDL
MODEL 5
REMARK VINA RESULT:      -6.3      3.155      7.884
REMARK  Name = 
REMARK  22 active torsions:
REMARK  status: ('A' for Active; 'I' for Inactive)
REMARK    1  A    between atoms: C_1  and  C_2
REMARK    2  A    between atoms: C_7  and  C_8
REMARK    3  A    between atoms: N_9  and  C_10
REMARK    4  A    between atoms: C_10  and  C_11
REMARK    5  A    between atoms: C_11  and  O_13
REMARK    6  A    between atoms: C_11  and  C_14
REMARK    7  A    between atoms: C_14  and  O_16
REMARK    8  A    between atoms: C_14  and  C_17
REMARK    9  A    between atoms: C_17  and  O_19
REMARK   10  A    between atoms: C_17  and  C_20
REMARK   11  A    between atoms: C_20  and  O_21
REMARK   12  A    between atoms: O_21  and  P_22
REMARK   13  A    between atoms: P_22  and  O_23
REMARK   14  A    between atoms: P_22  and  O_25
REMARK   15  A    between atoms: O_25  and  P_26
REMARK   16  A    between atoms: P_26  and  O_27
REMARK   17  A    between atoms: P_26  and  O_29
REMARK   18  A    between atoms: O_29  and  C_30
REMARK   19  A    between atoms: C_30  and  C_31
REMARK   20  A    between atoms: C_34  and  N_42
REMARK   21  A    between atoms: C_36  and  O_38
REMARK   22  A    between atoms: C_39  and  O_41
REMARK                            x       y       z     vdW  Elec       q    Type
REMARK                         _______ _______ _______ _____ _____    ______ ____
ROOT
ATOM      1  P   UNL     1       8.459  -4.298  24.427  0.00  0.00    +0.483 P 
ATOM      2  O   UNL     1       9.948  -4.615  24.500  0.00  0.00    -0.227 OA
ENDROOT
BRANCH   1   3
ATOM      3  O   UNL     1       8.319  -5.613  23.311  0.00  0.00    -0.302 OA
ATOM      4  H   UNL     1       8.299  -5.150  22.443  0.00  0.00    +0.222 HD
ENDBRANCH   1   3
BRANCH   1   5
ATOM      5  O   UNL     1       8.599  -2.982  25.542  0.00  0.00    -0.186 OA
BRANCH   5   6
ATOM      6  P   UNL     1       9.582  -1.740  24.846  0.00  0.00    +0.483 P 
ATOM      7  O   UNL     1       8.856  -0.679  25.674  0.00  0.00    -0.227 OA
BRANCH   6   8
ATOM      8  O   UNL     1       8.748  -1.874  23.446  0.00  0.00    -0.302 OA
ATOM      9  H   UNL     1       8.432  -2.756  23.202  0.00  0.00    +0.222 HD
ENDBRANCH   6   8
BRANCH   6  10
ATOM     10  O   UNL     1      10.565  -0.498  24.151  0.00  0.00    -0.284 OA
BRANCH  10  11
ATOM     11  C   UNL     1      10.566   0.735  24.848  0.00  0.00    +0.206 C 
BRANCH  11  12
ATOM     12  C   UNL     1      10.387   1.897  23.858  0.00  0.00    +0.178 C 
ATOM     13  C   UNL     1       9.889   1.453  22.481  0.00  0.00    +0.178 C 
ATOM     14  C   UNL     1       8.386   1.729  22.481  0.00  0.00    +0.195 C 
ATOM     15  C   UNL     1       8.119   2.349  23.860  0.00  0.00    +0.253 C 
ATOM     16  O   UNL     1       9.394   2.826  24.341  0.00  0.00    -0.346 OA
BRANCH  15  17
ATOM     17  N   UNL     1       7.171   3.446  23.798  0.00  0.00    -0.286 N 
ATOM     18  C   UNL     1       6.420   3.872  24.860  0.00  0.00    +0.167 A 
ATOM     19  N   UNL     1       6.403   3.366  26.106  0.00  0.00    -0.216 NA
ATOM     20  C   UNL     1       5.533   4.050  26.881  0.00  0.00    +0.225 A 
ATOM     21  N   UNL     1       4.729   5.078  26.535  0.00  0.00    -0.219 NA
ATOM     22  C   UNL     1       4.790   5.546  25.266  0.00  0.00    +0.147 A 
ATOM     23  N   UNL     1       3.964   6.603  24.913  0.00  0.00    -0.341 N 
ATOM     24  H   UNL     1       3.813   6.680  23.913  0.00  0.00    +0.144 HD
ATOM     25  H   UNL     1       3.159   6.681  25.520  0.00  0.00    +0.144 HD
ATOM     26  C   UNL     1       5.668   4.924  24.365  0.00  0.00    +0.147 A 
ATOM     27  N   UNL     1       5.939   5.129  23.026  0.00  0.00    -0.231 NA
ATOM     28  C   UNL     1       6.866   4.240  22.728  0.00  0.00    +0.203 A 
ENDBRANCH  15  17
BRANCH  14  29
ATOM     29  O   UNL     1       7.645   0.528  22.259  0.00  0.00    -0.385 OA
ATOM     30  H   UNL     1       7.114   0.373  23.069  0.00  0.00    +0.210 HD
ENDBRANCH  14  29
BRANCH  13  31
ATOM     31  O   UNL     1      10.532   2.249  21.469  0.00  0.00    -0.386 OA
ATOM     32  H   UNL     1      10.978   2.999  21.902  0.00  0.00    +0.210 HD
ENDBRANCH  13  31
ENDBRANCH  11  12
ENDBRANCH  10  11
ENDBRANCH   6  10
ENDBRANCH   5   6
ENDBRANCH   1   5
BRANCH   1  33
ATOM     33  O   UNL     1       7.633  -5.225  25.493  0.00  0.00    -0.284 OA
BRANCH  33  34
ATOM     34  C   UNL     1       6.864  -4.628  26.548  0.00  0.00    +0.206 C 
BRANCH  34  35
ATOM     35  C   UNL     1       6.191  -5.631  27.513  0.00  0.00    +0.172 C 
BRANCH  35  36
ATOM     36  O   UNL     1       7.179  -6.320  28.291  0.00  0.00    -0.387 OA
ATOM     37  H   UNL     1       8.046  -5.948  28.038  0.00  0.00    +0.210 HD
ENDBRANCH  35  36
BRANCH  35  38
ATOM     38  C   UNL     1       5.158  -4.943  28.459  0.00  0.00    +0.175 C 
BRANCH  38  39
ATOM     39  O   UNL     1       4.003  -5.777  28.606  0.00  0.00    -0.387 OA
ATOM     40  H   UNL     1       3.333  -5.509  27.953  0.00  0.00    +0.210 HD
ENDBRANCH  38  39
BRANCH  38  41
ATOM     41  C   UNL     1       4.762  -3.541  27.930  0.00  0.00    +0.165 C 
BRANCH  41  42
ATOM     42  O   UNL     1       4.761  -2.539  28.952  0.00  0.00    -0.387 OA
ATOM     43  H   UNL     1       5.502  -1.937  28.739  0.00  0.00    +0.210 HD
ENDBRANCH  41  42
BRANCH  41  44
ATOM     44  C   UNL     1       3.499  -3.454  27.059  0.00  0.00    +0.158 C 
BRANCH  44  51
ATOM     45  C   UNL     1       1.500  -9.028  23.554  0.00  0.00    +0.044 C 
ATOM     46  C   UNL     1       1.821  -7.675  24.127  0.00  0.00    -0.045 A 
ATOM     47  C   UNL     1       1.350  -7.197  25.357  0.00  0.00    -0.045 A 
ATOM     48  C   UNL     1       0.443  -8.048  26.211  0.00  0.00    +0.044 C 
ATOM     49  C   UNL     1       1.798  -5.929  25.847  0.00  0.00    +0.031 A 
ATOM     50  C   UNL     1       2.764  -5.150  25.186  0.00  0.00    +0.069 A 
ATOM     51  N   UNL     1       3.326  -3.936  25.645  0.00  0.00    -0.320 N 
ATOM     52  C   UNL     1       4.178  -3.245  24.738  0.00  0.00    +0.170 A 
ATOM     53  C   UNL     1       4.470  -3.832  23.380  0.00  0.00    +0.171 A 
ATOM     54  N   UNL     1       3.988  -4.974  23.022  0.00  0.00    -0.237 NA
ATOM     55  C   UNL     1       5.390  -3.111  22.438  0.00  0.00    +0.282 A 
ATOM     56  O   UNL     1       5.621  -3.505  21.312  0.00  0.00    -0.265 OA
ATOM     57  N   UNL     1       5.918  -1.979  22.973  0.00  0.00    -0.272 N 
ATOM     58  H   UNL     1       6.541  -1.442  22.392  0.00  0.00    +0.174 HD
ATOM     59  C   UNL     1       5.631  -1.470  24.202  0.00  0.00    +0.351 A 
ATOM     60  O   UNL     1       6.158  -0.410  24.521  0.00  0.00    -0.245 OA
ATOM     61  N   UNL     1       4.779  -2.128  25.044  0.00  0.00    -0.173 NA
ATOM     62  C   UNL     1       3.140  -5.640  23.907  0.00  0.00    +0.089 A 
ATOM     63  C   UNL     1       2.685  -6.864  23.408  0.00  0.00    +0.033 A 
ENDBRANCH  44  51
ENDBRANCH  41  44
ENDBRANCH  38  41
ENDBRANCH  35  38
ENDBRANCH  34  35
ENDBRANCH  33  34
ENDBRANCH   1  33
TORSDOF 20
ENDMDL
MODEL 6
REMARK VINA RESULT:      -6.1      3.839      8.611
REMARK  Name = 
REMARK  22 active torsions:
REMARK  status: ('A' for Active; 'I' for Inactive)
REMARK    1  A    between atoms: C_1  and  C_2
REMARK    2  A    between atoms: C_7  and  C_8
REMARK    3  A    between atoms: N_9  and  C_10
REMARK    4  A    between atoms: C_10  and  C_11
REMARK    5  A    between atoms: C_11  and  O_13
REMARK    6  A    between atoms: C_11  and  C_14
REMARK    7  A    between atoms: C_14  and  O_16
REMARK    8  A    between atoms: C_14  and  C_17
REMARK    9  A    between atoms: C_17  and  O_19
REMARK   10  A    between atoms: C_17  and  C_20
REMARK   11  A    between atoms: C_20  and  O_21
REMARK   12  A    between atoms: O_21  and  P_22
REMARK   13  A    between atoms: P_22  and  O_23
REMARK   14  A    between atoms: P_22  and  O_25
REMARK   15  A    between atoms: O_25  and  P_26
REMARK   16  A    between atoms: P_26  and  O_27
REMARK   17  A    between atoms: P_26  and  O_29
REMARK   18  A    between atoms: O_29  and  C_30
REMARK   19  A    between atoms: C_30  and  C_31
REMARK   20  A    between atoms: C_34  and  N_42
REMARK   21  A    between atoms: C_36  and  O_38
REMARK   22  A    between atoms: C_39  and  O_41
REMARK                            x       y       z     vdW  Elec       q    Type
REMARK                         _______ _______ _______ _____ _____    ______ ____
ROOT
ATOM      1  P   UNL     1       3.120   3.350  24.676  0.00  0.00    +0.483 P 
ATOM      2  O   UNL     1       3.622   2.969  23.288  0.00  0.00    -0.227 OA
ENDROOT
BRANCH   1   3
ATOM      3  O   UNL     1       1.540   2.893  24.138  0.00  0.00    -0.302 OA
ATOM      4  H   UNL     1       1.005   2.987  24.959  0.00  0.00    +0.222 HD
ENDBRANCH   1   3
BRANCH   1   5
ATOM      5  O   UNL     1       4.700   3.807  25.213  0.00  0.00    -0.186 OA
BRANCH   5   6
ATOM      6  P   UNL     1       5.818   3.670  23.900  0.00  0.00    +0.483 P 
ATOM      7  O   UNL     1       6.992   3.890  24.854  0.00  0.00    -0.227 OA
BRANCH   6   8
ATOM      8  O   UNL     1       5.373   5.153  23.376  0.00  0.00    -0.302 OA
ATOM      9  H   UNL     1       4.876   5.200  22.546  0.00  0.00    +0.222 HD
ENDBRANCH   6   8
BRANCH   6  10
ATOM     10  O   UNL     1       6.935   3.533  22.587  0.00  0.00    -0.284 OA
BRANCH  10  11
ATOM     11  C   UNL     1       6.867   2.322  21.856  0.00  0.00    +0.206 C 
BRANCH  11  12
ATOM     12  C   UNL     1       8.275   1.731  21.685  0.00  0.00    +0.178 C 
ATOM     13  C   UNL     1       9.307   2.331  22.641  0.00  0.00    +0.178 C 
ATOM     14  C   UNL     1       9.441   1.325  23.783  0.00  0.00    +0.195 C 
ATOM     15  C   UNL     1       8.492   0.184  23.391  0.00  0.00    +0.253 C 
ATOM     16  O   UNL     1       8.268   0.317  21.970  0.00  0.00    -0.346 OA
BRANCH  15  17
ATOM     17  N   UNL     1       9.048  -1.123  23.686  0.00  0.00    -0.286 N 
ATOM     18  C   UNL     1       8.633  -1.918  24.721  0.00  0.00    +0.167 A 
ATOM     19  N   UNL     1       7.684  -1.643  25.634  0.00  0.00    -0.216 NA
ATOM     20  C   UNL     1       7.554  -2.671  26.501  0.00  0.00    +0.225 A 
ATOM     21  N   UNL     1       8.252  -3.825  26.546  0.00  0.00    -0.219 NA
ATOM     22  C   UNL     1       9.194  -4.047  25.600  0.00  0.00    +0.147 A 
ATOM     23  N   UNL     1       9.910  -5.234  25.648  0.00  0.00    -0.341 N 
ATOM     24  H   UNL     1      10.791  -5.194  25.146  0.00  0.00    +0.144 HD
ATOM     25  H   UNL     1       9.910  -5.646  26.571  0.00  0.00    +0.144 HD
ATOM     26  C   UNL     1       9.417  -3.055  24.632  0.00  0.00    +0.147 A 
ATOM     27  N   UNL     1      10.303  -2.955  23.578  0.00  0.00    -0.231 NA
ATOM     28  C   UNL     1      10.034  -1.793  23.017  0.00  0.00    +0.203 A 
ENDBRANCH  15  17
BRANCH  14  29
ATOM     29  O   UNL     1       9.104   1.924  25.035  0.00  0.00    -0.385 OA
ATOM     30  H   UNL     1       8.498   1.300  25.490  0.00  0.00    +0.210 HD
ENDBRANCH  14  29
BRANCH  13  31
ATOM     31  O   UNL     1      10.565   2.462  21.954  0.00  0.00    -0.386 OA
ATOM     32  H   UNL     1      11.279   2.479  22.616  0.00  0.00    +0.210 HD
ENDBRANCH  13  31
ENDBRANCH  11  12
ENDBRANCH  10  11
ENDBRANCH   6  10
ENDBRANCH   5   6
ENDBRANCH   1   5
BRANCH   1  33
ATOM     33  O   UNL     1       3.081   2.029  25.642  0.00  0.00    -0.284 OA
BRANCH  33  34
ATOM     34  C   UNL     1       3.988   1.897  26.747  0.00  0.00    +0.206 C 
BRANCH  34  35
ATOM     35  C   UNL     1       3.747   0.661  27.644  0.00  0.00    +0.172 C 
BRANCH  35  36
ATOM     36  O   UNL     1       2.344   0.405  27.781  0.00  0.00    -0.387 OA
ATOM     37  H   UNL     1       2.155  -0.407  27.271  0.00  0.00    +0.210 HD
ENDBRANCH  35  36
BRANCH  35  38
ATOM     38  C   UNL     1       4.468  -0.613  27.103  0.00  0.00    +0.175 C 
BRANCH  38  39
ATOM     39  O   UNL     1       4.676  -0.492  25.692  0.00  0.00    -0.387 OA
ATOM     40  H   UNL     1       3.970   0.061  25.313  0.00  0.00    +0.210 HD
ENDBRANCH  38  39
BRANCH  38  41
ATOM     41  C   UNL     1       3.661  -1.896  27.433  0.00  0.00    +0.165 C 
BRANCH  41  42
ATOM     42  O   UNL     1       4.336  -2.758  28.354  0.00  0.00    -0.387 OA
ATOM     43  H   UNL     1       4.781  -2.171  28.996  0.00  0.00    +0.210 HD
ENDBRANCH  41  42
BRANCH  41  44
ATOM     44  C   UNL     1       3.085  -2.683  26.246  0.00  0.00    +0.158 C 
BRANCH  44  51
ATOM     45  C   UNL     1       6.086  -5.827  20.911  0.00  0.00    +0.044 C 
ATOM     46  C   UNL     1       5.554  -5.320  22.223  0.00  0.00    -0.045 A 
ATOM     47  C   UNL     1       5.816  -4.050  22.753  0.00  0.00    -0.045 A 
ATOM     48  C   UNL     1       6.699  -3.079  22.009  0.00  0.00    +0.044 C 
ATOM     49  C   UNL     1       5.178  -3.640  23.966  0.00  0.00    +0.031 A 
ATOM     50  C   UNL     1       4.222  -4.425  24.634  0.00  0.00    +0.069 A 
ATOM     51  N   UNL     1       3.480  -4.058  25.780  0.00  0.00    -0.320 N 
ATOM     52  C   UNL     1       2.676  -5.073  26.372  0.00  0.00    +0.170 A 
ATOM     53  C   UNL     1       2.617  -6.446  25.752  0.00  0.00    +0.171 A 
ATOM     54  N   UNL     1       3.260  -6.724  24.668  0.00  0.00    -0.237 NA
ATOM     55  C   UNL     1       1.748  -7.504  26.365  0.00  0.00    +0.282 A 
ATOM     56  O   UNL     1       1.699  -8.644  25.944  0.00  0.00    -0.265 OA
ATOM     57  N   UNL     1       1.039  -7.057  27.434  0.00  0.00    -0.272 N 
ATOM     58  H   UNL     1       0.438  -7.717  27.899  0.00  0.00    +0.174 HD
ATOM     59  C   UNL     1       1.117  -5.810  27.976  0.00  0.00    +0.351 A 
ATOM     60  O   UNL     1       0.443  -5.575  28.973  0.00  0.00    -0.245 OA
ATOM     61  N   UNL     1       1.926  -4.860  27.418  0.00  0.00    -0.173 NA
ATOM     62  C   UNL     1       4.060  -5.732  24.101  0.00  0.00    +0.089 A 
ATOM     63  C   UNL     1       4.702  -6.152  22.932  0.00  0.00    +0.033 A 
ENDBRANCH  44  51
ENDBRANCH  41  44
ENDBRANCH  38  41
ENDBRANCH  35  38
ENDBRANCH  34  35
ENDBRANCH  33  34
ENDBRANCH   1  33
TORSDOF 20
ENDMDL
MODEL 7
REMARK VINA RESULT:      -6.0      3.330      5.873
REMARK  Name = 
REMARK  22 active torsions:
REMARK  status: ('A' for Active; 'I' for Inactive)
REMARK    1  A    between atoms: C_1  and  C_2
REMARK    2  A    between atoms: C_7  and  C_8
REMARK    3  A    between atoms: N_9  and  C_10
REMARK    4  A    between atoms: C_10  and  C_11
REMARK    5  A    between atoms: C_11  and  O_13
REMARK    6  A    between atoms: C_11  and  C_14
REMARK    7  A    between atoms: C_14  and  O_16
REMARK    8  A    between atoms: C_14  and  C_17
REMARK    9  A    between atoms: C_17  and  O_19
REMARK   10  A    between atoms: C_17  and  C_20
REMARK   11  A    between atoms: C_20  and  O_21
REMARK   12  A    between atoms: O_21  and  P_22
REMARK   13  A    between atoms: P_22  and  O_23
REMARK   14  A    between atoms: P_22  and  O_25
REMARK   15  A    between atoms: O_25  and  P_26
REMARK   16  A    between atoms: P_26  and  O_27
REMARK   17  A    between atoms: P_26  and  O_29
REMARK   18  A    between atoms: O_29  and  C_30
REMARK   19  A    between atoms: C_30  and  C_31
REMARK   20  A    between atoms: C_34  and  N_42
REMARK   21  A    between atoms: C_36  and  O_38
REMARK   22  A    between atoms: C_39  and  O_41
REMARK                            x       y       z     vdW  Elec       q    Type
REMARK                         _______ _______ _______ _____ _____    ______ ____
ROOT
ATOM      1  P   UNL     1       1.481  -5.036  26.347  0.00  0.00    +0.483 P 
ATOM      2  O   UNL     1       2.864  -5.453  26.835  0.00  0.00    -0.227 OA
ENDROOT
BRANCH   1   3
ATOM      3  O   UNL     1       0.837  -5.880  27.714  0.00  0.00    -0.302 OA
ATOM      4  H   UNL     1       1.065  -5.277  28.458  0.00  0.00    +0.222 HD
ENDBRANCH   1   3
BRANCH   1   5
ATOM      5  O   UNL     1       2.125  -4.193  24.980  0.00  0.00    -0.186 OA
BRANCH   5   6
ATOM      6  P   UNL     1       3.509  -5.041  24.380  0.00  0.00    +0.483 P 
ATOM      7  O   UNL     1       4.267  -3.723  24.218  0.00  0.00    -0.227 OA
BRANCH   6   8
ATOM      8  O   UNL     1       2.729  -5.294  22.964  0.00  0.00    -0.302 OA
ATOM      9  H   UNL     1       2.864  -4.641  22.262  0.00  0.00    +0.222 HD
ENDBRANCH   6   8
BRANCH   6  10
ATOM     10  O   UNL     1       4.891  -5.888  23.779  0.00  0.00    -0.284 OA
BRANCH  10  11
ATOM     11  C   UNL     1       6.140  -5.436  24.269  0.00  0.00    +0.206 C 
BRANCH  11  12
ATOM     12  C   UNL     1       7.128  -5.259  23.106  0.00  0.00    +0.178 C 
ATOM     13  C   UNL     1       6.447  -4.976  21.765  0.00  0.00    +0.178 C 
ATOM     14  C   UNL     1       6.540  -3.464  21.569  0.00  0.00    +0.195 C 
ATOM     15  C   UNL     1       7.304  -2.971  22.806  0.00  0.00    +0.253 C 
ATOM     16  O   UNL     1       7.990  -4.125  23.341  0.00  0.00    -0.346 OA
BRANCH  15  17
ATOM     17  N   UNL     1       8.262  -1.931  22.485  0.00  0.00    -0.286 N 
ATOM     18  C   UNL     1       7.942  -0.605  22.356  0.00  0.00    +0.167 A 
ATOM     19  N   UNL     1       6.726  -0.042  22.479  0.00  0.00    -0.216 NA
ATOM     20  C   UNL     1       6.804   1.292  22.282  0.00  0.00    +0.225 A 
ATOM     21  N   UNL     1       7.888   2.033  21.967  0.00  0.00    -0.219 NA
ATOM     22  C   UNL     1       9.085   1.411  21.858  0.00  0.00    +0.147 A 
ATOM     23  N   UNL     1      10.197   2.175  21.535  0.00  0.00    -0.341 N 
ATOM     24  H   UNL     1      10.961   1.630  21.149  0.00  0.00    +0.144 HD
ATOM     25  H   UNL     1       9.950   3.038  21.070  0.00  0.00    +0.144 HD
ATOM     26  C   UNL     1       9.137   0.022  22.052  0.00  0.00    +0.147 A 
ATOM     27  N   UNL     1      10.166  -0.897  21.980  0.00  0.00    -0.231 NA
ATOM     28  C   UNL     1       9.607  -2.055  22.272  0.00  0.00    +0.203 A 
ENDBRANCH  15  17
BRANCH  14  29
ATOM     29  O   UNL     1       5.240  -2.882  21.451  0.00  0.00    -0.385 OA
ATOM     30  H   UNL     1       4.737  -3.448  20.826  0.00  0.00    +0.210 HD
ENDBRANCH  14  29
BRANCH  13  31
ATOM     31  O   UNL     1       7.169  -5.651  20.719  0.00  0.00    -0.386 OA
ATOM     32  H   UNL     1       6.567  -6.284  20.287  0.00  0.00    +0.210 HD
ENDBRANCH  13  31
ENDBRANCH  11  12
ENDBRANCH  10  11
ENDBRANCH   6  10
ENDBRANCH   5   6
ENDBRANCH   1   5
BRANCH   1  33
ATOM     33  O   UNL     1       1.017  -3.652  27.089  0.00  0.00    -0.284 OA
BRANCH  33  34
ATOM     34  C   UNL     1       1.102  -3.517  28.516  0.00  0.00    +0.206 C 
BRANCH  34  35
ATOM     35  C   UNL     1       1.261  -2.066  29.024  0.00  0.00    +0.172 C 
BRANCH  35  36
ATOM     36  O   UNL     1       0.599  -1.898  30.284  0.00  0.00    -0.387 OA
ATOM     37  H   UNL     1       0.738  -0.970  30.554  0.00  0.00    +0.210 HD
ENDBRANCH  35  36
BRANCH  35  38
ATOM     38  C   UNL     1       2.758  -1.643  29.152  0.00  0.00    +0.175 C 
BRANCH  38  39
ATOM     39  O   UNL     1       2.880  -0.563  30.085  0.00  0.00    -0.387 OA
ATOM     40  H   UNL     1       3.000  -0.929  30.980  0.00  0.00    +0.210 HD
ENDBRANCH  38  39
BRANCH  38  41
ATOM     41  C   UNL     1       3.350  -1.250  27.774  0.00  0.00    +0.165 C 
BRANCH  41  42
ATOM     42  O   UNL     1       2.347  -0.895  26.817  0.00  0.00    -0.387 OA
ATOM     43  H   UNL     1       2.573  -1.378  25.998  0.00  0.00    +0.210 HD
ENDBRANCH  41  42
BRANCH  41  44
ATOM     44  C   UNL     1       4.394  -2.199  27.166  0.00  0.00    +0.158 C 
BRANCH  44  51
ATOM     45  C   UNL     1       9.103   2.306  24.956  0.00  0.00    +0.044 C 
ATOM     46  C   UNL     1       8.239   1.283  25.639  0.00  0.00    -0.045 A 
ATOM     47  C   UNL     1       6.957   1.532  26.148  0.00  0.00    -0.045 A 
ATOM     48  C   UNL     1       6.349   2.909  26.045  0.00  0.00    +0.044 C 
ATOM     49  C   UNL     1       6.187   0.457  26.695  0.00  0.00    +0.031 A 
ATOM     50  C   UNL     1       6.619  -0.880  26.683  0.00  0.00    +0.069 A 
ATOM     51  N   UNL     1       5.886  -2.008  27.116  0.00  0.00    -0.320 N 
ATOM     52  C   UNL     1       6.583  -3.249  27.149  0.00  0.00    +0.170 A 
ATOM     53  C   UNL     1       8.020  -3.319  26.699  0.00  0.00    +0.171 A 
ATOM     54  N   UNL     1       8.637  -2.278  26.250  0.00  0.00    -0.237 NA
ATOM     55  C   UNL     1       8.743  -4.634  26.712  0.00  0.00    +0.282 A 
ATOM     56  O   UNL     1       9.916  -4.746  26.414  0.00  0.00    -0.265 OA
ATOM     57  N   UNL     1       7.954  -5.670  27.100  0.00  0.00    -0.272 N 
ATOM     58  H   UNL     1       8.376  -6.583  27.137  0.00  0.00    +0.174 HD
ATOM     59  C   UNL     1       6.658  -5.576  27.507  0.00  0.00    +0.351 A 
ATOM     60  O   UNL     1       6.095  -6.602  27.871  0.00  0.00    -0.245 OA
ATOM     61  N   UNL     1       6.016  -4.369  27.506  0.00  0.00    -0.173 NA
ATOM     62  C   UNL     1       7.956  -1.061  26.235  0.00  0.00    +0.089 A 
ATOM     63  C   UNL     1       8.726  -0.012  25.726  0.00  0.00    +0.033 A 
ENDBRANCH  44  51
ENDBRANCH  41  44
ENDBRANCH  38  41
ENDBRANCH  35  38
ENDBRANCH  34  35
ENDBRANCH  33  34
ENDBRANCH   1  33
TORSDOF 20
ENDMDL
MODEL 8
REMARK VINA RESULT:      -6.0      2.358      4.011
REMARK  Name = 
REMARK  22 active torsions:
REMARK  status: ('A' for Active; 'I' for Inactive)
REMARK    1  A    between atoms: C_1  and  C_2
REMARK    2  A    between atoms: C_7  and  C_8
REMARK    3  A    between atoms: N_9  and  C_10
REMARK    4  A    between atoms: C_10  and  C_11
REMARK    5  A    between atoms: C_11  and  O_13
REMARK    6  A    between atoms: C_11  and  C_14
REMARK    7  A    between atoms: C_14  and  O_16
REMARK    8  A    between atoms: C_14  and  C_17
REMARK    9  A    between atoms: C_17  and  O_19
REMARK   10  A    between atoms: C_17  and  C_20
REMARK   11  A    between atoms: C_20  and  O_21
REMARK   12  A    between atoms: O_21  and  P_22
REMARK   13  A    between atoms: P_22  and  O_23
REMARK   14  A    between atoms: P_22  and  O_25
REMARK   15  A    between atoms: O_25  and  P_26
REMARK   16  A    between atoms: P_26  and  O_27
REMARK   17  A    between atoms: P_26  and  O_29
REMARK   18  A    between atoms: O_29  and  C_30
REMARK   19  A    between atoms: C_30  and  C_31
REMARK   20  A    between atoms: C_34  and  N_42
REMARK   21  A    between atoms: C_36  and  O_38
REMARK   22  A    between atoms: C_39  and  O_41
REMARK                            x       y       z     vdW  Elec       q    Type
REMARK                         _______ _______ _______ _____ _____    ______ ____
ROOT
ATOM      1  P   UNL     1       1.660  -5.689  26.395  0.00  0.00    +0.483 P 
ATOM      2  O   UNL     1       2.676  -6.763  26.763  0.00  0.00    -0.227 OA
ENDROOT
BRANCH   1   3
ATOM      3  O   UNL     1       1.277  -5.593  28.080  0.00  0.00    -0.302 OA
ATOM      4  H   UNL     1       0.573  -4.904  28.095  0.00  0.00    +0.222 HD
ENDBRANCH   1   3
BRANCH   1   5
ATOM      5  O   UNL     1       2.043  -5.785  24.710  0.00  0.00    -0.186 OA
BRANCH   5   6
ATOM      6  P   UNL     1       3.732  -6.106  24.521  0.00  0.00    +0.483 P 
ATOM      7  O   UNL     1       3.768  -5.257  23.249  0.00  0.00    -0.227 OA
BRANCH   6   8
ATOM      8  O   UNL     1       3.382  -7.629  24.040  0.00  0.00    -0.302 OA
ATOM      9  H   UNL     1       3.804  -7.946  23.228  0.00  0.00    +0.222 HD
ENDBRANCH   6   8
BRANCH   6  10
ATOM     10  O   UNL     1       5.421  -6.426  24.330  0.00  0.00    -0.284 OA
BRANCH  10  11
ATOM     11  C   UNL     1       6.280  -5.333  24.598  0.00  0.00    +0.206 C 
BRANCH  11  12
ATOM     12  C   UNL     1       7.322  -5.196  23.476  0.00  0.00    +0.178 C 
ATOM     13  C   UNL     1       6.702  -5.055  22.084  0.00  0.00    +0.178 C 
ATOM     14  C   UNL     1       6.735  -3.559  21.772  0.00  0.00    +0.195 C 
ATOM     15  C   UNL     1       7.405  -2.933  23.003  0.00  0.00    +0.253 C 
ATOM     16  O   UNL     1       8.114  -4.004  23.664  0.00  0.00    -0.346 OA
BRANCH  15  17
ATOM     17  N   UNL     1       8.329  -1.872  22.648  0.00  0.00    -0.286 N 
ATOM     18  C   UNL     1       7.965  -0.563  22.476  0.00  0.00    +0.167 A 
ATOM     19  N   UNL     1       6.731  -0.036  22.580  0.00  0.00    -0.216 NA
ATOM     20  C   UNL     1       6.766   1.293  22.340  0.00  0.00    +0.225 A 
ATOM     21  N   UNL     1       7.825   2.058  22.002  0.00  0.00    -0.219 NA
ATOM     22  C   UNL     1       9.042   1.473  21.914  0.00  0.00    +0.147 A 
ATOM     23  N   UNL     1      10.129   2.261  21.567  0.00  0.00    -0.341 N 
ATOM     24  H   UNL     1      10.911   1.730  21.200  0.00  0.00    +0.144 HD
ATOM     25  H   UNL     1       9.854   3.101  21.075  0.00  0.00    +0.144 HD
ATOM     26  C   UNL     1       9.140   0.093  22.153  0.00  0.00    +0.147 A 
ATOM     27  N   UNL     1      10.198  -0.793  22.111  0.00  0.00    -0.231 NA
ATOM     28  C   UNL     1       9.677  -1.959  22.440  0.00  0.00    +0.203 A 
ENDBRANCH  15  17
BRANCH  14  29
ATOM     29  O   UNL     1       5.417  -3.057  21.540  0.00  0.00    -0.385 OA
ATOM     30  H   UNL     1       4.822  -3.836  21.506  0.00  0.00    +0.210 HD
ENDBRANCH  14  29
BRANCH  13  31
ATOM     31  O   UNL     1       7.513  -5.770  21.135  0.00  0.00    -0.386 OA
ATOM     32  H   UNL     1       8.160  -5.151  20.752  0.00  0.00    +0.210 HD
ENDBRANCH  13  31
ENDBRANCH  11  12
ENDBRANCH  10  11
ENDBRANCH   6  10
ENDBRANCH   5   6
ENDBRANCH   1   5
BRANCH   1  33
ATOM     33  O   UNL     1       2.331  -4.203  26.549  0.00  0.00    -0.284 OA
BRANCH  33  34
ATOM     34  C   UNL     1       3.479  -3.997  27.387  0.00  0.00    +0.206 C 
BRANCH  34  35
ATOM     35  C   UNL     1       3.609  -2.572  27.974  0.00  0.00    +0.172 C 
BRANCH  35  36
ATOM     36  O   UNL     1       4.906  -2.384  28.554  0.00  0.00    -0.387 OA
ATOM     37  H   UNL     1       5.553  -2.759  27.926  0.00  0.00    +0.210 HD
ENDBRANCH  35  36
BRANCH  35  38
ATOM     38  C   UNL     1       3.340  -1.465  26.908  0.00  0.00    +0.175 C 
BRANCH  38  39
ATOM     39  O   UNL     1       3.909  -1.852  25.652  0.00  0.00    -0.387 OA
ATOM     40  H   UNL     1       4.641  -2.472  25.813  0.00  0.00    +0.210 HD
ENDBRANCH  38  39
BRANCH  38  41
ATOM     41  C   UNL     1       3.901  -0.095  27.369  0.00  0.00    +0.165 C 
BRANCH  41  42
ATOM     42  O   UNL     1       3.009   0.609  28.239  0.00  0.00    -0.387 OA
ATOM     43  H   UNL     1       3.103   1.555  28.013  0.00  0.00    +0.210 HD
ENDBRANCH  41  42
BRANCH  41  44
ATOM     44  C   UNL     1       4.468   0.829  26.280  0.00  0.00    +0.158 C 
BRANCH  44  51
ATOM     45  C   UNL     1       7.524   6.676  24.321  0.00  0.00    +0.044 C 
ATOM     46  C   UNL     1       7.027   5.402  24.948  0.00  0.00    -0.045 A 
ATOM     47  C   UNL     1       5.739   5.216  25.468  0.00  0.00    -0.045 A 
ATOM     48  C   UNL     1       4.735   6.341  25.437  0.00  0.00    +0.044 C 
ATOM     49  C   UNL     1       5.347   3.930  25.955  0.00  0.00    +0.031 A 
ATOM     50  C   UNL     1       6.170   2.794  25.872  0.00  0.00    +0.069 A 
ATOM     51  N   UNL     1       5.827   1.473  26.242  0.00  0.00    -0.320 N 
ATOM     52  C   UNL     1       6.874   0.508  26.210  0.00  0.00    +0.170 A 
ATOM     53  C   UNL     1       8.255   0.909  25.758  0.00  0.00    +0.171 A 
ATOM     54  N   UNL     1       8.514   2.111  25.367  0.00  0.00    -0.237 NA
ATOM     55  C   UNL     1       9.348  -0.118  25.702  0.00  0.00    +0.282 A 
ATOM     56  O   UNL     1      10.493   0.154  25.399  0.00  0.00    -0.265 OA
ATOM     57  N   UNL     1       8.923  -1.365  26.032  0.00  0.00    -0.272 N 
ATOM     58  H   UNL     1       9.607  -2.104  26.021  0.00  0.00    +0.174 HD
ATOM     59  C   UNL     1       7.668  -1.697  26.442  0.00  0.00    +0.351 A 
ATOM     60  O   UNL     1       7.455  -2.864  26.749  0.00  0.00    -0.245 OA
ATOM     61  N   UNL     1       6.685  -0.748  26.506  0.00  0.00    -0.173 NA
ATOM     62  C   UNL     1       7.491   3.057  25.416  0.00  0.00    +0.089 A 
ATOM     63  C   UNL     1       7.892   4.318  24.966  0.00  0.00    +0.033 A 
ENDBRANCH  44  51
ENDBRANCH  41  44
ENDBRANCH  38  41
ENDBRANCH  35  38
ENDBRANCH  34  35
ENDBRANCH  33  34
ENDBRANCH   1  33
TORSDOF 20
ENDMDL
MODEL 9
REMARK VINA RESULT:      -5.9      4.384     10.107
REMARK  Name = 
REMARK  22 active torsions:
REMARK  status: ('A' for Active; 'I' for Inactive)
REMARK    1  A    between atoms: C_1  and  C_2
REMARK    2  A    between atoms: C_7  and  C_8
REMARK    3  A    between atoms: N_9  and  C_10
REMARK    4  A    between atoms: C_10  and  C_11
REMARK    5  A    between atoms: C_11  and  O_13
REMARK    6  A    between atoms: C_11  and  C_14
REMARK    7  A    between atoms: C_14  and  O_16
REMARK    8  A    between atoms: C_14  and  C_17
REMARK    9  A    between atoms: C_17  and  O_19
REMARK   10  A    between atoms: C_17  and  C_20
REMARK   11  A    between atoms: C_20  and  O_21
REMARK   12  A    between atoms: O_21  and  P_22
REMARK   13  A    between atoms: P_22  and  O_23
REMARK   14  A    between atoms: P_22  and  O_25
REMARK   15  A    between atoms: O_25  and  P_26
REMARK   16  A    between atoms: P_26  and  O_27
REMARK   17  A    between atoms: P_26  and  O_29
REMARK   18  A    between atoms: O_29  and  C_30
REMARK   19  A    between atoms: C_30  and  C_31
REMARK   20  A    between atoms: C_34  and  N_42
REMARK   21  A    between atoms: C_36  and  O_38
REMARK   22  A    between atoms: C_39  and  O_41
REMARK                            x       y       z     vdW  Elec       q    Type
REMARK                         _______ _______ _______ _____ _____    ______ ____
ROOT
ATOM      1  P   UNL     1       9.799  -1.142  22.243  0.00  0.00    +0.483 P 
ATOM      2  O   UNL     1      10.200  -0.195  23.367  0.00  0.00    -0.227 OA
ENDROOT
BRANCH   1   3
ATOM      3  O   UNL     1      10.450  -2.425  23.205  0.00  0.00    -0.302 OA
ATOM      4  H   UNL     1       9.644  -2.800  23.627  0.00  0.00    +0.222 HD
ENDBRANCH   1   3
BRANCH   1   5
ATOM      5  O   UNL     1       9.149   0.140  21.281  0.00  0.00    -0.186 OA
BRANCH   5   6
ATOM      6  P   UNL     1       8.981   1.562  22.252  0.00  0.00    +0.483 P 
ATOM      7  O   UNL     1       7.742   1.978  21.459  0.00  0.00    -0.227 OA
BRANCH   6   8
ATOM      8  O   UNL     1      10.259   2.230  21.482  0.00  0.00    -0.302 OA
ATOM      9  H   UNL     1      10.729   1.676  20.842  0.00  0.00    +0.222 HD
ENDBRANCH   6   8
BRANCH   6  10
ATOM     10  O   UNL     1       8.813   2.983  23.223  0.00  0.00    -0.284 OA
BRANCH  10  11
ATOM     11  C   UNL     1       9.051   2.804  24.607  0.00  0.00    +0.206 C 
BRANCH  11  12
ATOM     12  C   UNL     1       7.844   3.302  25.417  0.00  0.00    +0.178 C 
ATOM     13  C   UNL     1       6.564   3.423  24.588  0.00  0.00    +0.178 C 
ATOM     14  C   UNL     1       5.759   2.161  24.891  0.00  0.00    +0.195 C 
ATOM     15  C   UNL     1       6.621   1.401  25.908  0.00  0.00    +0.253 C 
ATOM     16  O   UNL     1       7.526   2.373  26.475  0.00  0.00    -0.346 OA
BRANCH  15  17
ATOM     17  N   UNL     1       5.827   0.791  26.958  0.00  0.00    -0.286 N 
ATOM     18  C   UNL     1       5.045  -0.319  26.784  0.00  0.00    +0.167 A 
ATOM     19  N   UNL     1       4.857  -1.016  25.648  0.00  0.00    -0.216 NA
ATOM     20  C   UNL     1       4.014  -2.051  25.866  0.00  0.00    +0.225 A 
ATOM     21  N   UNL     1       3.379  -2.391  27.008  0.00  0.00    -0.219 NA
ATOM     22  C   UNL     1       3.609  -1.652  28.118  0.00  0.00    +0.147 A 
ATOM     23  N   UNL     1       2.955  -2.004  29.290  0.00  0.00    -0.341 N 
ATOM     24  H   UNL     1       2.904  -1.248  29.965  0.00  0.00    +0.144 HD
ATOM     25  H   UNL     1       2.117  -2.542  29.117  0.00  0.00    +0.144 HD
ATOM     26  C   UNL     1       4.477  -0.553  28.024  0.00  0.00    +0.147 A 
ATOM     27  N   UNL     1       4.887   0.399  28.936  0.00  0.00    -0.231 NA
ATOM     28  C   UNL     1       5.718   1.174  28.266  0.00  0.00    +0.203 A 
ENDBRANCH  15  17
BRANCH  14  29
ATOM     29  O   UNL     1       5.514   1.411  23.699  0.00  0.00    -0.385 OA
ATOM     30  H   UNL     1       4.573   1.133  23.731  0.00  0.00    +0.210 HD
ENDBRANCH  14  29
BRANCH  13  31
ATOM     31  O   UNL     1       5.832   4.585  25.020  0.00  0.00    -0.386 OA
ATOM     32  H   UNL     1       6.439   5.347  25.028  0.00  0.00    +0.210 HD
ENDBRANCH  13  31
ENDBRANCH  11  12
ENDBRANCH  10  11
ENDBRANCH   6  10
ENDBRANCH   5   6
ENDBRANCH   1   5
BRANCH   1  33
ATOM     33  O   UNL     1       8.321  -1.779  22.545  0.00  0.00    -0.284 OA
BRANCH  33  34
ATOM     34  C   UNL     1       8.178  -2.955  23.357  0.00  0.00    +0.206 C 
BRANCH  34  35
ATOM     35  C   UNL     1       7.827  -4.245  22.580  0.00  0.00    +0.172 C 
BRANCH  35  36
ATOM     36  O   UNL     1       7.953  -5.393  23.428  0.00  0.00    -0.387 OA
ATOM     37  H   UNL     1       7.169  -5.951  23.264  0.00  0.00    +0.210 HD
ENDBRANCH  35  36
BRANCH  35  38
ATOM     38  C   UNL     1       6.393  -4.195  21.966  0.00  0.00    +0.175 C 
BRANCH  38  39
ATOM     39  O   UNL     1       5.612  -3.199  22.635  0.00  0.00    -0.387 OA
ATOM     40  H   UNL     1       4.682  -3.288  22.362  0.00  0.00    +0.210 HD
ENDBRANCH  38  39
BRANCH  38  41
ATOM     41  C   UNL     1       5.702  -5.581  22.044  0.00  0.00    +0.165 C 
BRANCH  41  42
ATOM     42  O   UNL     1       5.877  -6.360  20.856  0.00  0.00    -0.387 OA
ATOM     43  H   UNL     1       6.842  -6.479  20.752  0.00  0.00    +0.210 HD
ENDBRANCH  41  42
BRANCH  41  44
ATOM     44  C   UNL     1       4.242  -5.608  22.522  0.00  0.00    +0.158 C 
BRANCH  44  51
ATOM     45  C   UNL     1       6.263  -6.355  29.057  0.00  0.00    +0.044 C 
ATOM     46  C   UNL     1       5.589  -6.128  27.732  0.00  0.00    -0.045 A 
ATOM     47  C   UNL     1       5.959  -5.143  26.806  0.00  0.00    -0.045 A 
ATOM     48  C   UNL     1       7.101  -4.204  27.106  0.00  0.00    +0.044 C 
ATOM     49  C   UNL     1       5.306  -5.080  25.534  0.00  0.00    +0.031 A 
ATOM     50  C   UNL     1       4.344  -6.016  25.119  0.00  0.00    +0.069 A 
ATOM     51  N   UNL     1       3.721  -6.081  23.851  0.00  0.00    -0.320 N 
ATOM     52  C   UNL     1       2.666  -7.025  23.705  0.00  0.00    +0.170 A 
ATOM     53  C   UNL     1       2.290  -7.920  24.859  0.00  0.00    +0.171 A 
ATOM     54  N   UNL     1       2.925  -7.876  25.982  0.00  0.00    -0.237 NA
ATOM     55  C   UNL     1       1.194  -8.932  24.692  0.00  0.00    +0.282 A 
ATOM     56  O   UNL     1       0.809  -9.643  25.598  0.00  0.00    -0.265 OA
ATOM     57  N   UNL     1       0.680  -8.955  23.434  0.00  0.00    -0.272 N 
ATOM     58  H   UNL     1      -0.065  -9.608  23.252  0.00  0.00    +0.174 HD
ATOM     59  C   UNL     1       1.036  -8.129  22.412  0.00  0.00    +0.351 A 
ATOM     60  O   UNL     1       0.443  -8.248  21.346  0.00  0.00    -0.245 OA
ATOM     61  N   UNL     1       2.025  -7.201  22.583  0.00  0.00    -0.173 NA
ATOM     62  C   UNL     1       3.947  -6.937  26.126  0.00  0.00    +0.089 A 
ATOM     63  C   UNL     1       4.559  -6.987  27.381  0.00  0.00    +0.033 A 
ENDBRANCH  44  51
ENDBRANCH  41  44
ENDBRANCH  38  41
ENDBRANCH  35  38
ENDBRANCH  34  35
ENDBRANCH  33  34
ENDBRANCH   1  33
TORSDOF 20
ENDMDL
