MODEL 1
REMARK VINA RESULT:      -5.3      0.000      0.000
REMARK  Name = 
REMARK  6 active torsions:
REMARK  status: ('A' for Active; 'I' for Inactive)
REMARK    1  A    between atoms: N_1  and  C_2
REMARK    2  A    between atoms: N_6  and  C1*_7
REMARK    3  A    between atoms: C4*_10  and  C5*_12
REMARK    4  A    between atoms: C5*_12  and  O5*_13
REMARK    5  A    between atoms: C3*_14  and  O3*_16
REMARK    6  A    between atoms: C2*_17  and  O2*_19
REMARK                            x       y       z     vdW  Elec       q    Type
REMARK                         _______ _______ _______ _____ _____    ______ ____
ROOT
ATOM      1  C1* UNL     1       8.141  -4.933  23.972  0.00  0.00    +0.253 C 
ATOM      2  C2* UNL     1       7.246  -4.386  22.846  0.00  0.00    +0.195 C 
ATOM      3  C3* UNL     1       7.805  -2.998  22.529  0.00  0.00    +0.178 C 
ATOM      4  C4* UNL     1       8.876  -2.783  23.593  0.00  0.00    +0.177 C 
ATOM      5  O4* UNL     1       9.321  -4.089  23.987  0.00  0.00    -0.346 OA
ENDROOT
BRANCH   1   7
ATOM      6  C   UNL     1       8.043  -4.969  26.548  0.00  0.00    +0.118 A 
ATOM      7  N   UNL     1       7.498  -4.973  25.285  0.00  0.00    -0.290 N 
ATOM      8  C   UNL     1       6.137  -5.108  25.444  0.00  0.00    +0.202 A 
ATOM      9  N   UNL     1       5.786  -5.102  26.709  0.00  0.00    -0.242 NA
ATOM     10  C   UNL     1       6.962  -5.005  27.402  0.00  0.00    +0.154 A 
BRANCH   6  11
ATOM     11  N   UNL     1       9.367  -4.940  26.798  0.00  0.00    -0.343 N 
ATOM     12  H   UNL     1       9.775  -5.663  27.392  0.00  0.00    +0.144 HD
ATOM     13  H   UNL     1       9.849  -4.048  26.865  0.00  0.00    +0.144 HD
ENDBRANCH   6  11
ENDBRANCH   1   7
BRANCH   2  14
ATOM     14  O2* UNL     1       7.340  -5.234  21.685  0.00  0.00    -0.385 OA
ATOM     15  H2* UNL     1       7.315  -4.677  20.888  0.00  0.00    +0.210 HD
ENDBRANCH   2  14
BRANCH   3  16
ATOM     16  O3* UNL     1       6.792  -2.000  22.606  0.00  0.00    -0.386 OA
ATOM     17  H3* UNL     1       6.019  -2.346  22.119  0.00  0.00    +0.210 HD
ENDBRANCH   3  16
BRANCH   4  18
ATOM     18  C5* UNL     1      10.052  -1.953  23.093  0.00  0.00    +0.190 C 
BRANCH  18  19
ATOM     19  O5* UNL     1       9.931  -1.705  21.699  0.00  0.00    -0.392 OA
ATOM     20  H5* UNL     1      10.747  -1.250  21.415  0.00  0.00    +0.210 HD
ENDBRANCH  18  19
ENDBRANCH   4  18
TORSDOF 6
ENDMDL
MODEL 2
REMARK VINA RESULT:      -5.2      2.452      4.451
REMARK  Name = 
REMARK  6 active torsions:
REMARK  status: ('A' for Active; 'I' for Inactive)
REMARK    1  A    between atoms: N_1  and  C_2
REMARK    2  A    between atoms: N_6  and  C1*_7
REMARK    3  A    between atoms: C4*_10  and  C5*_12
REMARK    4  A    between atoms: C5*_12  and  O5*_13
REMARK    5  A    between atoms: C3*_14  and  O3*_16
REMARK    6  A    between atoms: C2*_17  and  O2*_19
REMARK                            x       y       z     vdW  Elec       q    Type
REMARK                         _______ _______ _______ _____ _____    ______ ____
ROOT
ATOM      1  C1* UNL     1       6.312  -4.291  24.879  0.00  0.00    +0.253 C 
ATOM      2  C2* UNL     1       5.859  -4.354  23.410  0.00  0.00    +0.195 C 
ATOM      3  C3* UNL     1       5.076  -5.662  23.288  0.00  0.00    +0.178 C 
ATOM      4  C4* UNL     1       5.266  -6.330  24.646  0.00  0.00    +0.177 C 
ATOM      5  O4* UNL     1       5.510  -5.273  25.585  0.00  0.00    -0.346 OA
ENDROOT
BRANCH   1   7
ATOM      6  C   UNL     1       8.406  -5.186  26.087  0.00  0.00    +0.118 A 
ATOM      7  N   UNL     1       7.741  -4.529  25.078  0.00  0.00    -0.290 N 
ATOM      8  C   UNL     1       8.705  -4.013  24.242  0.00  0.00    +0.202 A 
ATOM      9  N   UNL     1       9.915  -4.371  24.605  0.00  0.00    -0.242 NA
ATOM     10  C   UNL     1       9.739  -5.109  25.743  0.00  0.00    +0.154 A 
BRANCH   6  11
ATOM     11  N   UNL     1       7.798  -5.750  27.149  0.00  0.00    -0.343 N 
ATOM     12  H   UNL     1       8.370  -6.148  27.895  0.00  0.00    +0.144 HD
ATOM     13  H   UNL     1       6.910  -6.231  27.026  0.00  0.00    +0.144 HD
ENDBRANCH   6  11
ENDBRANCH   1   7
BRANCH   2  14
ATOM     14  O2* UNL     1       5.002  -3.235  23.110  0.00  0.00    -0.385 OA
ATOM     15  H2* UNL     1       5.515  -2.414  23.205  0.00  0.00    +0.210 HD
ENDBRANCH   2  14
BRANCH   3  16
ATOM     16  O3* UNL     1       5.586  -6.476  22.236  0.00  0.00    -0.386 OA
ATOM     17  H3* UNL     1       5.937  -5.868  21.556  0.00  0.00    +0.210 HD
ENDBRANCH   3  16
BRANCH   4  18
ATOM     18  C5* UNL     1       4.057  -7.151  25.078  0.00  0.00    +0.190 C 
BRANCH  18  19
ATOM     19  O5* UNL     1       3.537  -7.889  23.980  0.00  0.00    -0.392 OA
ATOM     20  H5* UNL     1       4.235  -7.923  23.299  0.00  0.00    +0.210 HD
ENDBRANCH  18  19
ENDBRANCH   4  18
TORSDOF 6
ENDMDL
MODEL 3
REMARK VINA RESULT:      -5.2      2.635      4.968
REMARK  Name = 
REMARK  6 active torsions:
REMARK  status: ('A' for Active; 'I' for Inactive)
REMARK    1  A    between atoms: N_1  and  C_2
REMARK    2  A    between atoms: N_6  and  C1*_7
REMARK    3  A    between atoms: C4*_10  and  C5*_12
REMARK    4  A    between atoms: C5*_12  and  O5*_13
REMARK    5  A    between atoms: C3*_14  and  O3*_16
REMARK    6  A    between atoms: C2*_17  and  O2*_19
REMARK                            x       y       z     vdW  Elec       q    Type
REMARK                         _______ _______ _______ _____ _____    ______ ____
ROOT
ATOM      1  C1* UNL     1       8.333  -4.823  24.035  0.00  0.00    +0.253 C 
ATOM      2  C2* UNL     1       8.877  -5.040  25.457  0.00  0.00    +0.195 C 
ATOM      3  C3* UNL     1       7.654  -5.387  26.307  0.00  0.00    +0.178 C 
ATOM      4  C4* UNL     1       6.480  -5.193  25.353  0.00  0.00    +0.177 C 
ATOM      5  O4* UNL     1       6.998  -5.393  24.030  0.00  0.00    -0.346 OA
ENDROOT
BRANCH   1   7
ATOM      6  C   UNL     1       7.539  -2.789  22.665  0.00  0.00    +0.118 A 
ATOM      7  N   UNL     1       8.317  -3.427  23.604  0.00  0.00    -0.290 N 
ATOM      8  C   UNL     1       9.216  -2.494  24.070  0.00  0.00    +0.202 A 
ATOM      9  N   UNL     1       9.001  -1.303  23.558  0.00  0.00    -0.242 NA
ATOM     10  C   UNL     1       7.954  -1.475  22.693  0.00  0.00    +0.154 A 
BRANCH   6  11
ATOM     11  N   UNL     1       6.599  -3.404  21.922  0.00  0.00    -0.343 N 
ATOM     12  H   UNL     1       6.075  -4.181  22.327  0.00  0.00    +0.144 HD
ATOM     13  H   UNL     1       6.726  -3.489  20.917  0.00  0.00    +0.144 HD
ENDBRANCH   6  11
ENDBRANCH   1   7
BRANCH   2  14
ATOM     14  O2* UNL     1       9.812  -6.138  25.466  0.00  0.00    -0.385 OA
ATOM     15  H2* UNL     1      10.645  -5.835  25.867  0.00  0.00    +0.210 HD
ENDBRANCH   2  14
BRANCH   3  16
ATOM     16  O3* UNL     1       7.547  -4.528  27.438  0.00  0.00    -0.386 OA
ATOM     17  H3* UNL     1       8.092  -3.740  27.245  0.00  0.00    +0.210 HD
ENDBRANCH   3  16
BRANCH   4  18
ATOM     18  C5* UNL     1       5.331  -6.158  25.621  0.00  0.00    +0.190 C 
BRANCH  18  19
ATOM     19  O5* UNL     1       5.509  -6.812  26.870  0.00  0.00    -0.392 OA
ATOM     20  H5* UNL     1       5.515  -7.772  26.694  0.00  0.00    +0.210 HD
ENDBRANCH  18  19
ENDBRANCH   4  18
TORSDOF 6
ENDMDL
MODEL 4
REMARK VINA RESULT:      -5.1      2.896      4.791
REMARK  Name = 
REMARK  6 active torsions:
REMARK  status: ('A' for Active; 'I' for Inactive)
REMARK    1  A    between atoms: N_1  and  C_2
REMARK    2  A    between atoms: N_6  and  C1*_7
REMARK    3  A    between atoms: C4*_10  and  C5*_12
REMARK    4  A    between atoms: C5*_12  and  O5*_13
REMARK    5  A    between atoms: C3*_14  and  O3*_16
REMARK    6  A    between atoms: C2*_17  and  O2*_19
REMARK                            x       y       z     vdW  Elec       q    Type
REMARK                         _______ _______ _______ _____ _____    ______ ____
ROOT
ATOM      1  C1* UNL     1       8.057  -2.268  24.317  0.00  0.00    +0.253 C 
ATOM      2  C2* UNL     1       8.515  -3.545  23.590  0.00  0.00    +0.195 C 
ATOM      3  C3* UNL     1       8.642  -4.605  24.684  0.00  0.00    +0.178 C 
ATOM      4  C4* UNL     1       8.402  -3.831  25.975  0.00  0.00    +0.177 C 
ATOM      5  O4* UNL     1       7.591  -2.700  25.621  0.00  0.00    -0.346 OA
ENDROOT
BRANCH   1   7
ATOM      6  C   UNL     1       9.363  -0.359  25.455  0.00  0.00    +0.118 A 
ATOM      7  N   UNL     1       9.090  -1.240  24.434  0.00  0.00    -0.290 N 
ATOM      8  C   UNL     1       9.960  -0.939  23.411  0.00  0.00    +0.202 A 
ATOM      9  N   UNL     1      10.810   0.004  23.748  0.00  0.00    -0.242 NA
ATOM     10  C   UNL     1      10.454   0.362  25.020  0.00  0.00    +0.154 A 
BRANCH   6  11
ATOM     11  N   UNL     1       8.654  -0.287  26.598  0.00  0.00    -0.343 N 
ATOM     12  H   UNL     1       7.920  -0.976  26.772  0.00  0.00    +0.144 HD
ATOM     13  H   UNL     1       8.456   0.619  27.014  0.00  0.00    +0.144 HD
ENDBRANCH   6  11
ENDBRANCH   1   7
BRANCH   2  14
ATOM     14  O2* UNL     1       7.523  -3.946  22.625  0.00  0.00    -0.385 OA
ATOM     15  H2* UNL     1       6.772  -4.347  23.096  0.00  0.00    +0.210 HD
ENDBRANCH   2  14
BRANCH   3  16
ATOM     16  O3* UNL     1       9.933  -5.208  24.676  0.00  0.00    -0.386 OA
ATOM     17  H3* UNL     1       9.902  -5.947  25.314  0.00  0.00    +0.210 HD
ENDBRANCH   3  16
BRANCH   4  18
ATOM     18  C5* UNL     1       7.709  -4.662  27.047  0.00  0.00    +0.190 C 
BRANCH  18  19
ATOM     19  O5* UNL     1       8.127  -6.019  26.975  0.00  0.00    -0.392 OA
ATOM     20  H5* UNL     1       8.655  -6.200  27.776  0.00  0.00    +0.210 HD
ENDBRANCH  18  19
ENDBRANCH   4  18
TORSDOF 6
ENDMDL
MODEL 5
REMARK VINA RESULT:      -5.0      3.578      5.579
REMARK  Name = 
REMARK  6 active torsions:
REMARK  status: ('A' for Active; 'I' for Inactive)
REMARK    1  A    between atoms: N_1  and  C_2
REMARK    2  A    between atoms: N_6  and  C1*_7
REMARK    3  A    between atoms: C4*_10  and  C5*_12
REMARK    4  A    between atoms: C5*_12  and  O5*_13
REMARK    5  A    between atoms: C3*_14  and  O3*_16
REMARK    6  A    between atoms: C2*_17  and  O2*_19
REMARK                            x       y       z     vdW  Elec       q    Type
REMARK                         _______ _______ _______ _____ _____    ______ ____
ROOT
ATOM      1  C1* UNL     1       9.662  -1.643  22.905  0.00  0.00    +0.253 C 
ATOM      2  C2* UNL     1       9.413  -2.413  24.213  0.00  0.00    +0.195 C 
ATOM      3  C3* UNL     1       7.909  -2.689  24.237  0.00  0.00    +0.178 C 
ATOM      4  C4* UNL     1       7.379  -1.928  23.026  0.00  0.00    +0.177 C 
ATOM      5  O4* UNL     1       8.470  -1.834  22.099  0.00  0.00    -0.346 OA
ENDROOT
BRANCH   1   7
ATOM      6  C   UNL     1       9.712   0.855  22.272  0.00  0.00    +0.118 A 
ATOM      7  N   UNL     1       9.957  -0.223  23.090  0.00  0.00    -0.290 N 
ATOM      8  C   UNL     1      10.653   0.257  24.176  0.00  0.00    +0.202 A 
ATOM      9  N   UNL     1      10.784   1.563  24.139  0.00  0.00    -0.242 NA
ATOM     10  C   UNL     1      10.193   1.945  22.965  0.00  0.00    +0.154 A 
BRANCH   6  11
ATOM     11  N   UNL     1       9.125   0.766  21.062  0.00  0.00    -0.343 N 
ATOM     12  H   UNL     1       8.774   1.615  20.617  0.00  0.00    +0.144 HD
ATOM     13  H   UNL     1       8.588  -0.063  20.822  0.00  0.00    +0.144 HD
ENDBRANCH   6  11
ENDBRANCH   1   7
BRANCH   2  14
ATOM     14  O2* UNL     1      10.143  -3.656  24.201  0.00  0.00    -0.385 OA
ATOM     15  H2* UNL     1      10.893  -3.572  23.587  0.00  0.00    +0.210 HD
ENDBRANCH   2  14
BRANCH   3  16
ATOM     16  O3* UNL     1       7.314  -2.220  25.443  0.00  0.00    -0.386 OA
ATOM     17  H3* UNL     1       7.659  -2.783  26.164  0.00  0.00    +0.210 HD
ENDBRANCH   3  16
BRANCH   4  18
ATOM     18  C5* UNL     1       6.186  -2.612  22.370  0.00  0.00    +0.190 C 
BRANCH  18  19
ATOM     19  O5* UNL     1       5.245  -3.025  23.352  0.00  0.00    -0.392 OA
ATOM     20  H5* UNL     1       5.361  -3.986  23.475  0.00  0.00    +0.210 HD
ENDBRANCH  18  19
ENDBRANCH   4  18
TORSDOF 6
ENDMDL
MODEL 6
REMARK VINA RESULT:      -4.9      2.579      4.116
REMARK  Name = 
REMARK  6 active torsions:
REMARK  status: ('A' for Active; 'I' for Inactive)
REMARK    1  A    between atoms: N_1  and  C_2
REMARK    2  A    between atoms: N_6  and  C1*_7
REMARK    3  A    between atoms: C4*_10  and  C5*_12
REMARK    4  A    between atoms: C5*_12  and  O5*_13
REMARK    5  A    between atoms: C3*_14  and  O3*_16
REMARK    6  A    between atoms: C2*_17  and  O2*_19
REMARK                            x       y       z     vdW  Elec       q    Type
REMARK                         _______ _______ _______ _____ _____    ______ ____
ROOT
ATOM      1  C1* UNL     1       8.795  -4.251  25.222  0.00  0.00    +0.253 C 
ATOM      2  C2* UNL     1       7.595  -4.860  25.968  0.00  0.00    +0.195 C 
ATOM      3  C3* UNL     1       6.655  -5.365  24.873  0.00  0.00    +0.178 C 
ATOM      4  C4* UNL     1       7.302  -4.875  23.582  0.00  0.00    +0.177 C 
ATOM      5  O4* UNL     1       8.703  -4.740  23.859  0.00  0.00    -0.346 OA
ENDROOT
BRANCH   1   7
ATOM      6  C   UNL     1       9.436  -1.894  24.399  0.00  0.00    +0.118 A 
ATOM      7  N   UNL     1       8.849  -2.791  25.262  0.00  0.00    -0.290 N 
ATOM      8  C   UNL     1       8.335  -2.055  26.305  0.00  0.00    +0.202 A 
ATOM      9  N   UNL     1       8.482  -0.763  26.117  0.00  0.00    -0.242 NA
ATOM     10  C   UNL     1       9.154  -0.653  24.930  0.00  0.00    +0.154 A 
BRANCH   6  11
ATOM     11  N   UNL     1      10.124  -2.248  23.297  0.00  0.00    -0.343 N 
ATOM     12  H   UNL     1      11.101  -2.530  23.391  0.00  0.00    +0.144 HD
ATOM     13  H   UNL     1       9.923  -1.796  22.409  0.00  0.00    +0.144 HD
ENDBRANCH   6  11
ENDBRANCH   1   7
BRANCH   2  14
ATOM     14  O2* UNL     1       8.033  -5.961  26.790  0.00  0.00    -0.385 OA
ATOM     15  H2* UNL     1       8.678  -5.629  27.438  0.00  0.00    +0.210 HD
ENDBRANCH   2  14
BRANCH   3  16
ATOM     16  O3* UNL     1       5.343  -4.832  25.029  0.00  0.00    -0.386 OA
ATOM     17  H3* UNL     1       4.920  -5.335  25.752  0.00  0.00    +0.210 HD
ENDBRANCH   3  16
BRANCH   4  18
ATOM     18  C5* UNL     1       7.084  -5.824  22.410  0.00  0.00    +0.190 C 
BRANCH  18  19
ATOM     19  O5* UNL     1       5.827  -6.478  22.524  0.00  0.00    -0.392 OA
ATOM     20  H5* UNL     1       5.785  -7.147  21.815  0.00  0.00    +0.210 HD
ENDBRANCH  18  19
ENDBRANCH   4  18
TORSDOF 6
ENDMDL
MODEL 7
REMARK VINA RESULT:      -4.9      3.018      4.578
REMARK  Name = 
REMARK  6 active torsions:
REMARK  status: ('A' for Active; 'I' for Inactive)
REMARK    1  A    between atoms: N_1  and  C_2
REMARK    2  A    between atoms: N_6  and  C1*_7
REMARK    3  A    between atoms: C4*_10  and  C5*_12
REMARK    4  A    between atoms: C5*_12  and  O5*_13
REMARK    5  A    between atoms: C3*_14  and  O3*_16
REMARK    6  A    between atoms: C2*_17  and  O2*_19
REMARK                            x       y       z     vdW  Elec       q    Type
REMARK                         _______ _______ _______ _____ _____    ______ ____
ROOT
ATOM      1  C1* UNL     1       7.670  -0.835  24.281  0.00  0.00    +0.253 C 
ATOM      2  C2* UNL     1       8.945  -0.306  24.959  0.00  0.00    +0.195 C 
ATOM      3  C3* UNL     1       9.591   0.622  23.930  0.00  0.00    +0.178 C 
ATOM      4  C4* UNL     1       8.731   0.442  22.683  0.00  0.00    +0.177 C 
ATOM      5  O4* UNL     1       7.434   0.036  23.144  0.00  0.00    -0.346 OA
ENDROOT
BRANCH   1   7
ATOM      6  C   UNL     1       6.921  -2.974  23.051  0.00  0.00    +0.118 A 
ATOM      7  N   UNL     1       7.744  -2.237  23.871  0.00  0.00    -0.290 N 
ATOM      8  C   UNL     1       8.696  -3.105  24.357  0.00  0.00    +0.202 A 
ATOM      9  N   UNL     1       8.579  -4.305  23.836  0.00  0.00    -0.242 NA
ATOM     10  C   UNL     1       7.487  -4.230  23.016  0.00  0.00    +0.154 A 
BRANCH   6  11
ATOM     11  N   UNL     1       5.814  -2.485  22.458  0.00  0.00    -0.343 N 
ATOM     12  H   UNL     1       5.794  -2.396  21.441  0.00  0.00    +0.144 HD
ATOM     13  H   UNL     1       5.257  -1.779  22.933  0.00  0.00    +0.144 HD
ENDBRANCH   6  11
ENDBRANCH   1   7
BRANCH   2  14
ATOM     14  O2* UNL     1       8.601   0.435  26.146  0.00  0.00    -0.385 OA
ATOM     15  H2* UNL     1       9.150   1.237  26.185  0.00  0.00    +0.210 HD
ENDBRANCH   2  14
BRANCH   3  16
ATOM     16  O3* UNL     1      10.945   0.259  23.680  0.00  0.00    -0.386 OA
ATOM     17  H3* UNL     1      10.938  -0.334  22.903  0.00  0.00    +0.210 HD
ENDBRANCH   3  16
BRANCH   4  18
ATOM     18  C5* UNL     1       8.620   1.711  21.848  0.00  0.00    +0.190 C 
BRANCH  18  19
ATOM     19  O5* UNL     1       9.912   2.191  21.495  0.00  0.00    -0.392 OA
ATOM     20  H5* UNL     1      10.499   2.022  22.256  0.00  0.00    +0.210 HD
ENDBRANCH  18  19
ENDBRANCH   4  18
TORSDOF 6
ENDMDL
MODEL 8
REMARK VINA RESULT:      -4.8      2.365      3.410
REMARK  Name = 
REMARK  6 active torsions:
REMARK  status: ('A' for Active; 'I' for Inactive)
REMARK    1  A    between atoms: N_1  and  C_2
REMARK    2  A    between atoms: N_6  and  C1*_7
REMARK    3  A    between atoms: C4*_10  and  C5*_12
REMARK    4  A    between atoms: C5*_12  and  O5*_13
REMARK    5  A    between atoms: C3*_14  and  O3*_16
REMARK    6  A    between atoms: C2*_17  and  O2*_19
REMARK                            x       y       z     vdW  Elec       q    Type
REMARK                         _______ _______ _______ _____ _____    ______ ____
ROOT
ATOM      1  C1* UNL     1       8.567  -2.823  23.034  0.00  0.00    +0.253 C 
ATOM      2  C2* UNL     1       8.739  -1.558  22.176  0.00  0.00    +0.195 C 
ATOM      3  C3* UNL     1       8.802  -0.402  23.174  0.00  0.00    +0.178 C 
ATOM      4  C4* UNL     1       8.508  -1.061  24.517  0.00  0.00    +0.177 C 
ATOM      5  O4* UNL     1       8.910  -2.433  24.389  0.00  0.00    -0.346 OA
ENDROOT
BRANCH   1   7
ATOM      6  C   UNL     1       6.659  -4.410  23.731  0.00  0.00    +0.118 A 
ATOM      7  N   UNL     1       7.232  -3.416  22.972  0.00  0.00    -0.290 N 
ATOM      8  C   UNL     1       6.311  -3.077  22.007  0.00  0.00    +0.202 A 
ATOM      9  N   UNL     1       5.178  -3.722  22.158  0.00  0.00    -0.242 NA
ATOM     10  C   UNL     1       5.380  -4.544  23.233  0.00  0.00    +0.154 A 
BRANCH   6  11
ATOM     11  N   UNL     1       7.294  -5.061  24.724  0.00  0.00    -0.343 N 
ATOM     12  H   UNL     1       7.814  -5.913  24.507  0.00  0.00    +0.144 HD
ATOM     13  H   UNL     1       6.898  -5.062  25.661  0.00  0.00    +0.144 HD
ENDBRANCH   6  11
ENDBRANCH   1   7
BRANCH   2  14
ATOM     14  O2* UNL     1       9.968  -1.633  21.427  0.00  0.00    -0.385 OA
ATOM     15  H2* UNL     1      10.715  -1.605  22.049  0.00  0.00    +0.210 HD
ENDBRANCH   2  14
BRANCH   3  16
ATOM     16  O3* UNL     1       7.837   0.601  22.868  0.00  0.00    -0.386 OA
ATOM     17  H3* UNL     1       8.018   1.355  23.463  0.00  0.00    +0.210 HD
ENDBRANCH   3  16
BRANCH   4  18
ATOM     18  C5* UNL     1       9.243  -0.401  25.677  0.00  0.00    +0.190 C 
BRANCH  18  19
ATOM     19  O5* UNL     1       9.709   0.889  25.303  0.00  0.00    -0.392 OA
ATOM     20  H5* UNL     1      10.386   0.762  24.612  0.00  0.00    +0.210 HD
ENDBRANCH  18  19
ENDBRANCH   4  18
TORSDOF 6
ENDMDL
MODEL 9
REMARK VINA RESULT:      -4.8      4.317      5.743
REMARK  Name = 
REMARK  6 active torsions:
REMARK  status: ('A' for Active; 'I' for Inactive)
REMARK    1  A    between atoms: N_1  and  C_2
REMARK    2  A    between atoms: N_6  and  C1*_7
REMARK    3  A    between atoms: C4*_10  and  C5*_12
REMARK    4  A    between atoms: C5*_12  and  O5*_13
REMARK    5  A    between atoms: C3*_14  and  O3*_16
REMARK    6  A    between atoms: C2*_17  and  O2*_19
REMARK                            x       y       z     vdW  Elec       q    Type
REMARK                         _______ _______ _______ _____ _____    ______ ____
ROOT
ATOM      1  C1* UNL     1       8.930   0.272  24.255  0.00  0.00    +0.253 C 
ATOM      2  C2* UNL     1      10.221   0.715  23.545  0.00  0.00    +0.195 C 
ATOM      3  C3* UNL     1       9.914   2.105  22.986  0.00  0.00    +0.178 C 
ATOM      4  C4* UNL     1       8.429   2.296  23.277  0.00  0.00    +0.177 C 
ATOM      5  O4* UNL     1       8.132   1.473  24.414  0.00  0.00    -0.346 OA
ENDROOT
BRANCH   1   7
ATOM      6  C   UNL     1       6.838  -1.046  23.524  0.00  0.00    +0.118 A 
ATOM      7  N   UNL     1       8.186  -0.773  23.553  0.00  0.00    -0.290 N 
ATOM      8  C   UNL     1       8.803  -1.761  22.819  0.00  0.00    +0.202 A 
ATOM      9  N   UNL     1       7.937  -2.577  22.265  0.00  0.00    -0.242 NA
ATOM     10  C   UNL     1       6.713  -2.134  22.688  0.00  0.00    +0.154 A 
BRANCH   6  11
ATOM     11  N   UNL     1       5.913  -0.344  24.207  0.00  0.00    -0.343 N 
ATOM     12  H   UNL     1       5.138   0.083  23.698  0.00  0.00    +0.144 HD
ATOM     13  H   UNL     1       6.186   0.183  25.033  0.00  0.00    +0.144 HD
ENDBRANCH   6  11
ENDBRANCH   1   7
BRANCH   2  14
ATOM     14  O2* UNL     1      11.304   0.791  24.492  0.00  0.00    -0.385 OA
ATOM     15  H2* UNL     1      10.951   1.088  25.348  0.00  0.00    +0.210 HD
ENDBRANCH   2  14
BRANCH   3  16
ATOM     16  O3* UNL     1      10.179   2.173  21.588  0.00  0.00    -0.386 OA
ATOM     17  H3* UNL     1      10.890   1.528  21.405  0.00  0.00    +0.210 HD
ENDBRANCH   3  16
BRANCH   4  18
ATOM     18  C5* UNL     1       8.062   3.747  23.565  0.00  0.00    +0.190 C 
BRANCH  18  19
ATOM     19  O5* UNL     1       8.906   4.630  22.838  0.00  0.00    -0.392 OA
ATOM     20  H5* UNL     1       9.744   4.700  23.332  0.00  0.00    +0.210 HD
ENDBRANCH  18  19
ENDBRANCH   4  18
TORSDOF 6
ENDMDL
