MODEL 1
REMARK VINA RESULT:      -6.5      0.000      0.000
REMARK  Name = 
REMARK  11 active torsions:
REMARK  status: ('A' for Active; 'I' for Inactive)
REMARK    1  A    between atoms: C_1  and  C_2
REMARK    2  A    between atoms: C_7  and  C_8
REMARK    3  A    between atoms: C_11  and  C_31
REMARK    4  A    between atoms: C_17  and  O_19
REMARK    5  A    between atoms: C_20  and  C_21
REMARK    6  A    between atoms: C_20  and  C_22
REMARK    7  A    between atoms: C_25  and  C_27
REMARK    8  A    between atoms: C_28  and  O_30
REMARK    9  A    between atoms: C_31  and  C_32
REMARK   10  A    between atoms: C_33  and  C_34
REMARK   11  A    between atoms: C_37  and  C_38
REMARK                            x       y       z     vdW  Elec       q    Type
REMARK                         _______ _______ _______ _____ _____    ______ ____
ROOT
ATOM      1  C   UNL     1       7.139  -2.882  26.263  0.00  0.00    +0.010 C 
ATOM      2  C   UNL     1       6.332  -2.510  25.022  0.00  0.00    +0.015 C 
ATOM      3  C   UNL     1       7.096  -1.702  23.892  0.00  0.00    +0.127 C 
ATOM      4  C   UNL     1       8.207  -0.624  24.252  0.00  0.00    +0.081 C 
ATOM      5  C   UNL     1       8.243  -0.234  25.722  0.00  0.00    +0.018 C 
ATOM      6  C   UNL     1       8.259   0.623  23.335  0.00  0.00    +0.147 C 
ATOM      7  O   UNL     1       7.347   0.827  22.523  0.00  0.00    -0.296 OA
ATOM      8  C   UNL     1       9.456   1.615  23.346  0.00  0.00    +0.050 C 
ATOM      9  C   UNL     1      10.621   1.295  24.301  0.00  0.00    +0.021 C 
ATOM     10  C   UNL     1      10.062   1.502  21.918  0.00  0.00    +0.021 C 
ATOM     11  C   UNL     1       8.875   3.070  23.584  0.00  0.00    +0.138 C 
ATOM     12  C   UNL     1       8.389   3.288  25.033  0.00  0.00    +0.152 C 
ATOM     13  C   UNL     1       7.264   4.277  25.262  0.00  0.00    +0.310 C 
ATOM     14  O   UNL     1       6.966   5.225  24.569  0.00  0.00    -0.251 OA
ATOM     15  O   UNL     1       6.750   4.041  26.524  0.00  0.00    -0.457 OA
ATOM     16  C   UNL     1       5.475   3.333  26.689  0.00  0.00    +0.206 C 
ATOM     17  C   UNL     1       5.711   2.140  27.697  0.00  0.00    +0.076 C 
ATOM     18  C   UNL     1       4.475   1.345  28.144  0.00  0.00    -0.024 C 
ATOM     19  C   UNL     1       4.422  -0.012  28.171  0.00  0.00    -0.076 C 
ATOM     20  C   UNL     1       4.416  -0.739  29.512  0.00  0.00    +0.039 C 
ATOM     21  C   UNL     1       3.576  -0.766  27.148  0.00  0.00    +0.030 C 
ATOM     22  C   UNL     1       4.238  -2.078  26.656  0.00  0.00    +0.005 C 
ATOM     23  C   UNL     1       4.944  -1.876  25.310  0.00  0.00    +0.006 C 
ENDROOT
BRANCH  16  24
ATOM     24  C   UNL     1       4.794   3.044  25.356  0.00  0.00    -0.030 C 
ATOM     25  C   UNL     1       3.927   3.932  24.815  0.00  0.00    +0.031 C 
ATOM     26  C   UNL     1       5.177   1.811  24.601  0.00  0.00    +0.043 C 
BRANCH  25  27
ATOM     27  C   UNL     1       3.244   3.783  23.567  0.00  0.00    +0.071 A 
ATOM     28  N   UNL     1       2.100   3.016  23.511  0.00  0.00    -0.245 NA
ATOM     29  C   UNL     1       1.650   2.972  22.277  0.00  0.00    +0.076 A 
ATOM     30  C   UNL     1       0.443   2.201  21.871  0.00  0.00    +0.073 C 
ATOM     31  S   UNL     1       2.549   3.887  21.134  0.00  0.00    -0.080 S 
ATOM     32  C   UNL     1       3.635   4.356  22.379  0.00  0.00    +0.074 A 
ENDBRANCH  25  27
ENDBRANCH  16  24
BRANCH   3  33
ATOM     33  O   UNL     1       6.083  -1.253  22.979  0.00  0.00    -0.391 OA
ATOM     34  H   UNL     1       6.413  -0.509  22.434  0.00  0.00    +0.210 HD
ENDBRANCH   3  33
BRANCH  11  35
ATOM     35  O   UNL     1       9.882   4.040  23.279  0.00  0.00    -0.390 OA
ATOM     36  H   UNL     1      10.269   3.854  22.407  0.00  0.00    +0.210 HD
ENDBRANCH  11  35
TORSDOF 4
ENDMDL
MODEL 2
REMARK VINA RESULT:      -6.4      3.215      6.483
REMARK  Name = 
REMARK  11 active torsions:
REMARK  status: ('A' for Active; 'I' for Inactive)
REMARK    1  A    between atoms: C_1  and  C_2
REMARK    2  A    between atoms: C_7  and  C_8
REMARK    3  A    between atoms: C_11  and  C_31
REMARK    4  A    between atoms: C_17  and  O_19
REMARK    5  A    between atoms: C_20  and  C_21
REMARK    6  A    between atoms: C_20  and  C_22
REMARK    7  A    between atoms: C_25  and  C_27
REMARK    8  A    between atoms: C_28  and  O_30
REMARK    9  A    between atoms: C_31  and  C_32
REMARK   10  A    between atoms: C_33  and  C_34
REMARK   11  A    between atoms: C_37  and  C_38
REMARK                            x       y       z     vdW  Elec       q    Type
REMARK                         _______ _______ _______ _____ _____    ______ ____
ROOT
ATOM      1  C   UNL     1       7.362  -1.908  25.782  0.00  0.00    +0.010 C 
ATOM      2  C   UNL     1       8.054  -0.799  26.570  0.00  0.00    +0.015 C 
ATOM      3  C   UNL     1       7.114   0.265  27.275  0.00  0.00    +0.127 C 
ATOM      4  C   UNL     1       5.751   0.738  26.607  0.00  0.00    +0.081 C 
ATOM      5  C   UNL     1       5.597   0.329  25.150  0.00  0.00    +0.018 C 
ATOM      6  C   UNL     1       5.378   2.227  26.819  0.00  0.00    +0.147 C 
ATOM      7  O   UNL     1       6.211   3.007  27.298  0.00  0.00    -0.296 OA
ATOM      8  C   UNL     1       3.959   2.781  26.508  0.00  0.00    +0.050 C 
ATOM      9  C   UNL     1       2.912   1.775  25.995  0.00  0.00    +0.021 C 
ATOM     10  C   UNL     1       3.421   3.256  27.888  0.00  0.00    +0.021 C 
ATOM     11  C   UNL     1       4.127   4.015  25.528  0.00  0.00    +0.138 C 
ATOM     12  C   UNL     1       4.522   3.591  24.098  0.00  0.00    +0.152 C 
ATOM     13  C   UNL     1       5.339   4.561  23.269  0.00  0.00    +0.310 C 
ATOM     14  O   UNL     1       5.380   5.768  23.379  0.00  0.00    -0.251 OA
ATOM     15  O   UNL     1       5.884   3.855  22.213  0.00  0.00    -0.457 OA
ATOM     16  C   UNL     1       7.300   3.469  22.225  0.00  0.00    +0.206 C 
ATOM     17  C   UNL     1       7.381   1.916  21.949  0.00  0.00    +0.076 C 
ATOM     18  C   UNL     1       8.780   1.309  21.764  0.00  0.00    -0.024 C 
ATOM     19  C   UNL     1       9.192   0.170  22.378  0.00  0.00    -0.076 C 
ATOM     20  C   UNL     1       9.378  -1.103  21.557  0.00  0.00    +0.039 C 
ATOM     21  C   UNL     1      10.221   0.237  23.504  0.00  0.00    +0.030 C 
ATOM     22  C   UNL     1       9.938  -0.770  24.649  0.00  0.00    +0.005 C 
ATOM     23  C   UNL     1       9.219  -0.094  25.822  0.00  0.00    +0.006 C 
ENDROOT
BRANCH  16  24
ATOM     24  C   UNL     1       8.048   4.042  23.424  0.00  0.00    -0.030 C 
ATOM     25  C   UNL     1       8.499   5.318  23.412  0.00  0.00    +0.031 C 
ATOM     26  C   UNL     1       8.184   3.207  24.657  0.00  0.00    +0.043 C 
BRANCH  25  27
ATOM     27  C   UNL     1       9.193   5.971  24.480  0.00  0.00    +0.071 A 
ATOM     28  N   UNL     1      10.550   6.192  24.367  0.00  0.00    -0.245 NA
ATOM     29  C   UNL     1      11.003   6.763  25.461  0.00  0.00    +0.076 A 
ATOM     30  C   UNL     1      12.435   7.108  25.673  0.00  0.00    +0.073 C 
ATOM     31  S   UNL     1       9.816   7.108  26.656  0.00  0.00    -0.080 S 
ATOM     32  C   UNL     1       8.612   6.418  25.644  0.00  0.00    +0.074 A 
ENDBRANCH  25  27
ENDBRANCH  16  24
BRANCH   3  33
ATOM     33  O   UNL     1       7.980   1.324  27.711  0.00  0.00    -0.391 OA
ATOM     34  H   UNL     1       7.788   2.151  27.222  0.00  0.00    +0.210 HD
ENDBRANCH   3  33
BRANCH  11  35
ATOM     35  O   UNL     1       2.901   4.751  25.475  0.00  0.00    -0.390 OA
ATOM     36  H   UNL     1       2.276   4.312  24.875  0.00  0.00    +0.210 HD
ENDBRANCH  11  35
TORSDOF 4
ENDMDL
MODEL 3
REMARK VINA RESULT:      -5.7      1.632      3.018
REMARK  Name = 
REMARK  11 active torsions:
REMARK  status: ('A' for Active; 'I' for Inactive)
REMARK    1  A    between atoms: C_1  and  C_2
REMARK    2  A    between atoms: C_7  and  C_8
REMARK    3  A    between atoms: C_11  and  C_31
REMARK    4  A    between atoms: C_17  and  O_19
REMARK    5  A    between atoms: C_20  and  C_21
REMARK    6  A    between atoms: C_20  and  C_22
REMARK    7  A    between atoms: C_25  and  C_27
REMARK    8  A    between atoms: C_28  and  O_30
REMARK    9  A    between atoms: C_31  and  C_32
REMARK   10  A    between atoms: C_33  and  C_34
REMARK   11  A    between atoms: C_37  and  C_38
REMARK                            x       y       z     vdW  Elec       q    Type
REMARK                         _______ _______ _______ _____ _____    ______ ____
ROOT
ATOM      1  C   UNL     1       9.790  -0.398  23.592  0.00  0.00    +0.010 C 
ATOM      2  C   UNL     1       8.818   0.096  22.522  0.00  0.00    +0.015 C 
ATOM      3  C   UNL     1       8.841   1.649  22.204  0.00  0.00    +0.127 C 
ATOM      4  C   UNL     1       9.105   2.724  23.345  0.00  0.00    +0.081 C 
ATOM      5  C   UNL     1       9.025   2.166  24.758  0.00  0.00    +0.018 C 
ATOM      6  C   UNL     1       8.315   4.051  23.217  0.00  0.00    +0.147 C 
ATOM      7  O   UNL     1       7.399   4.143  22.390  0.00  0.00    -0.296 OA
ATOM      8  C   UNL     1       8.670   5.314  24.051  0.00  0.00    +0.050 C 
ATOM      9  C   UNL     1       9.869   5.205  25.010  0.00  0.00    +0.021 C 
ATOM     10  C   UNL     1       9.095   6.369  22.990  0.00  0.00    +0.021 C 
ATOM     11  C   UNL     1       7.353   5.784  24.797  0.00  0.00    +0.138 C 
ATOM     12  C   UNL     1       6.961   4.848  25.960  0.00  0.00    +0.152 C 
ATOM     13  C   UNL     1       5.493   4.736  26.317  0.00  0.00    +0.310 C 
ATOM     14  O   UNL     1       4.625   5.561  26.127  0.00  0.00    -0.251 OA
ATOM     15  O   UNL     1       5.335   3.604  27.095  0.00  0.00    -0.457 OA
ATOM     16  C   UNL     1       4.764   2.379  26.523  0.00  0.00    +0.206 C 
ATOM     17  C   UNL     1       5.756   1.191  26.835  0.00  0.00    +0.076 C 
ATOM     18  C   UNL     1       5.293  -0.225  26.462  0.00  0.00    -0.024 C 
ATOM     19  C   UNL     1       6.070  -1.123  25.804  0.00  0.00    -0.076 C 
ATOM     20  C   UNL     1       6.620  -2.335  26.550  0.00  0.00    +0.039 C 
ATOM     21  C   UNL     1       5.764  -1.481  24.352  0.00  0.00    +0.030 C 
ATOM     22  C   UNL     1       7.037  -1.674  23.489  0.00  0.00    +0.005 C 
ATOM     23  C   UNL     1       7.360  -0.413  22.679  0.00  0.00    +0.006 C 
ENDROOT
BRANCH  16  24
ATOM     24  C   UNL     1       4.282   2.577  25.091  0.00  0.00    -0.030 C 
ATOM     25  C   UNL     1       3.089   3.165  24.836  0.00  0.00    +0.031 C 
ATOM     26  C   UNL     1       5.194   2.208  23.964  0.00  0.00    +0.043 C 
BRANCH  25  27
ATOM     27  C   UNL     1       2.541   3.422  23.540  0.00  0.00    +0.071 A 
ATOM     28  N   UNL     1       1.693   2.496  22.970  0.00  0.00    -0.245 NA
ATOM     29  C   UNL     1       1.333   2.897  21.771  0.00  0.00    +0.076 A 
ATOM     30  C   UNL     1       0.443   2.109  20.876  0.00  0.00    +0.073 C 
ATOM     31  S   UNL     1       1.954   4.427  21.290  0.00  0.00    -0.080 S 
ATOM     32  C   UNL     1       2.786   4.548  22.788  0.00  0.00    +0.074 A 
ENDBRANCH  25  27
ENDBRANCH  16  24
BRANCH   3  33
ATOM     33  O   UNL     1       7.687   1.898  21.387  0.00  0.00    -0.391 OA
ATOM     34  H   UNL     1       7.252   1.056  21.137  0.00  0.00    +0.210 HD
ENDBRANCH   3  33
BRANCH  11  35
ATOM     35  O   UNL     1       7.542   7.108  25.307  0.00  0.00    -0.390 OA
ATOM     36  H   UNL     1       7.625   7.083  26.274  0.00  0.00    +0.210 HD
ENDBRANCH  11  35
TORSDOF 4
ENDMDL
MODEL 4
REMARK VINA RESULT:      -5.5      2.225      3.205
REMARK  Name = 
REMARK  11 active torsions:
REMARK  status: ('A' for Active; 'I' for Inactive)
REMARK    1  A    between atoms: C_1  and  C_2
REMARK    2  A    between atoms: C_7  and  C_8
REMARK    3  A    between atoms: C_11  and  C_31
REMARK    4  A    between atoms: C_17  and  O_19
REMARK    5  A    between atoms: C_20  and  C_21
REMARK    6  A    between atoms: C_20  and  C_22
REMARK    7  A    between atoms: C_25  and  C_27
REMARK    8  A    between atoms: C_28  and  O_30
REMARK    9  A    between atoms: C_31  and  C_32
REMARK   10  A    between atoms: C_33  and  C_34
REMARK   11  A    between atoms: C_37  and  C_38
REMARK                            x       y       z     vdW  Elec       q    Type
REMARK                         _______ _______ _______ _____ _____    ______ ____
ROOT
ATOM      1  C   UNL     1       5.499  -5.834  24.087  0.00  0.00    +0.010 C 
ATOM      2  C   UNL     1       5.002  -4.703  23.190  0.00  0.00    +0.015 C 
ATOM      3  C   UNL     1       6.111  -3.803  22.500  0.00  0.00    +0.127 C 
ATOM      4  C   UNL     1       7.472  -3.452  23.242  0.00  0.00    +0.081 C 
ATOM      5  C   UNL     1       7.475  -3.784  24.727  0.00  0.00    +0.018 C 
ATOM      6  C   UNL     1       8.037  -2.034  22.979  0.00  0.00    +0.147 C 
ATOM      7  O   UNL     1       7.339  -1.193  22.396  0.00  0.00    -0.296 OA
ATOM      8  C   UNL     1       9.488  -1.631  23.365  0.00  0.00    +0.050 C 
ATOM      9  C   UNL     1      10.367  -2.719  24.009  0.00  0.00    +0.021 C 
ATOM     10  C   UNL     1      10.172  -1.310  22.006  0.00  0.00    +0.021 C 
ATOM     11  C   UNL     1       9.404  -0.326  24.261  0.00  0.00    +0.138 C 
ATOM     12  C   UNL     1       8.865  -0.611  25.678  0.00  0.00    +0.152 C 
ATOM     13  C   UNL     1       8.117   0.499  26.389  0.00  0.00    +0.310 C 
ATOM     14  O   UNL     1       8.229   1.693  26.211  0.00  0.00    -0.251 OA
ATOM     15  O   UNL     1       7.419  -0.070  27.438  0.00  0.00    -0.457 OA
ATOM     16  C   UNL     1       5.971  -0.287  27.340  0.00  0.00    +0.206 C 
ATOM     17  C   UNL     1       5.684  -1.800  27.694  0.00  0.00    +0.076 C 
ATOM     18  C   UNL     1       4.212  -2.226  27.805  0.00  0.00    -0.024 C 
ATOM     19  C   UNL     1       3.707  -3.345  27.225  0.00  0.00    -0.076 C 
ATOM     20  C   UNL     1       3.312  -4.534  28.098  0.00  0.00    +0.039 C 
ATOM     21  C   UNL     1       2.773  -3.230  26.023  0.00  0.00    +0.030 C 
ATOM     22  C   UNL     1       3.009  -4.333  24.959  0.00  0.00    +0.005 C 
ATOM     23  C   UNL     1       3.883  -3.821  23.809  0.00  0.00    +0.006 C 
ENDROOT
BRANCH  16  24
ATOM     24  C   UNL     1       5.382   0.293  26.060  0.00  0.00    -0.030 C 
ATOM     25  C   UNL     1       5.012   1.593  25.994  0.00  0.00    +0.031 C 
ATOM     26  C   UNL     1       5.315  -0.570  24.839  0.00  0.00    +0.043 C 
BRANCH  25  27
ATOM     27  C   UNL     1       4.468   2.254  24.848  0.00  0.00    +0.071 A 
ATOM     28  N   UNL     1       3.109   2.469  24.774  0.00  0.00    -0.245 NA
ATOM     29  C   UNL     1       2.808   3.049  23.633  0.00  0.00    +0.076 A 
ATOM     30  C   UNL     1       1.417   3.391  23.230  0.00  0.00    +0.073 C 
ATOM     31  S   UNL     1       4.146   3.408  22.617  0.00  0.00    -0.080 S 
ATOM     32  C   UNL     1       5.203   2.713  23.778  0.00  0.00    +0.074 A 
ENDBRANCH  25  27
ENDBRANCH  16  24
BRANCH   3  33
ATOM     33  O   UNL     1       5.412  -2.679  21.944  0.00  0.00    -0.391 OA
ATOM     34  H   UNL     1       5.827  -1.839  22.226  0.00  0.00    +0.210 HD
ENDBRANCH   3  33
BRANCH  11  35
ATOM     35  O   UNL     1      10.704   0.262  24.366  0.00  0.00    -0.390 OA
ATOM     36  H   UNL     1      11.376  -0.353  24.027  0.00  0.00    +0.210 HD
ENDBRANCH  11  35
TORSDOF 4
ENDMDL
MODEL 5
REMARK VINA RESULT:      -5.4      3.105      6.359
REMARK  Name = 
REMARK  11 active torsions:
REMARK  status: ('A' for Active; 'I' for Inactive)
REMARK    1  A    between atoms: C_1  and  C_2
REMARK    2  A    between atoms: C_7  and  C_8
REMARK    3  A    between atoms: C_11  and  C_31
REMARK    4  A    between atoms: C_17  and  O_19
REMARK    5  A    between atoms: C_20  and  C_21
REMARK    6  A    between atoms: C_20  and  C_22
REMARK    7  A    between atoms: C_25  and  C_27
REMARK    8  A    between atoms: C_28  and  O_30
REMARK    9  A    between atoms: C_31  and  C_32
REMARK   10  A    between atoms: C_33  and  C_34
REMARK   11  A    between atoms: C_37  and  C_38
REMARK                            x       y       z     vdW  Elec       q    Type
REMARK                         _______ _______ _______ _____ _____    ______ ____
ROOT
ATOM      1  C   UNL     1       8.335  -2.196  25.163  0.00  0.00    +0.010 C 
ATOM      2  C   UNL     1       8.861  -1.100  26.086  0.00  0.00    +0.015 C 
ATOM      3  C   UNL     1       7.834  -0.501  27.136  0.00  0.00    +0.127 C 
ATOM      4  C   UNL     1       6.295  -0.325  26.780  0.00  0.00    +0.081 C 
ATOM      5  C   UNL     1       5.975  -0.484  25.302  0.00  0.00    +0.018 C 
ATOM      6  C   UNL     1       5.605   0.927  27.376  0.00  0.00    +0.147 C 
ATOM      7  O   UNL     1       6.289   1.812  27.908  0.00  0.00    -0.296 OA
ATOM      8  C   UNL     1       4.059   1.098  27.391  0.00  0.00    +0.050 C 
ATOM      9  C   UNL     1       3.223  -0.054  26.803  0.00  0.00    +0.021 C 
ATOM     10  C   UNL     1       3.692   1.135  28.902  0.00  0.00    +0.021 C 
ATOM     11  C   UNL     1       3.721   2.487  26.708  0.00  0.00    +0.138 C 
ATOM     12  C   UNL     1       3.930   2.466  25.179  0.00  0.00    +0.152 C 
ATOM     13  C   UNL     1       4.302   3.767  24.496  0.00  0.00    +0.310 C 
ATOM     14  O   UNL     1       4.058   4.892  24.873  0.00  0.00    -0.251 OA
ATOM     15  O   UNL     1       4.797   3.455  23.243  0.00  0.00    -0.457 OA
ATOM     16  C   UNL     1       6.240   3.497  22.979  0.00  0.00    +0.206 C 
ATOM     17  C   UNL     1       6.657   2.112  22.345  0.00  0.00    +0.076 C 
ATOM     18  C   UNL     1       8.102   1.978  21.843  0.00  0.00    -0.024 C 
ATOM     19  C   UNL     1       8.899   0.913  22.117  0.00  0.00    -0.076 C 
ATOM     20  C   UNL     1       9.241  -0.079  21.009  0.00  0.00    +0.039 C 
ATOM     21  C   UNL     1      10.071   1.063  23.083  0.00  0.00    +0.030 C 
ATOM     22  C   UNL     1      10.276  -0.176  23.992  0.00  0.00    +0.005 C 
ATOM     23  C   UNL     1       9.646   0.035  25.374  0.00  0.00    +0.006 C 
ENDROOT
BRANCH  16  24
ATOM     24  C   UNL     1       7.033   4.029  24.168  0.00  0.00    -0.030 C 
ATOM     25  C   UNL     1       7.168   5.361  24.370  0.00  0.00    +0.031 C 
ATOM     26  C   UNL     1       7.572   3.058  25.169  0.00  0.00    +0.043 C 
BRANCH  25  27
ATOM     27  C   UNL     1       7.867   5.977  25.455  0.00  0.00    +0.071 A 
ATOM     28  N   UNL     1       9.220   6.215  25.337  0.00  0.00    -0.245 NA
ATOM     29  C   UNL     1       9.680   6.747  26.448  0.00  0.00    +0.076 A 
ATOM     30  C   UNL     1      11.110   7.097  26.658  0.00  0.00    +0.073 C 
ATOM     31  S   UNL     1       8.503   7.032  27.668  0.00  0.00    -0.080 S 
ATOM     32  C   UNL     1       7.294   6.372  26.642  0.00  0.00    +0.074 A 
ENDBRANCH  25  27
ENDBRANCH  16  24
BRANCH   3  33
ATOM     33  O   UNL     1       8.471   0.663  27.685  0.00  0.00    -0.391 OA
ATOM     34  H   UNL     1       8.879   1.202  26.976  0.00  0.00    +0.210 HD
ENDBRANCH   3  33
BRANCH  11  35
ATOM     35  O   UNL     1       2.361   2.836  26.988  0.00  0.00    -0.390 OA
ATOM     36  H   UNL     1       1.795   2.049  26.917  0.00  0.00    +0.210 HD
ENDBRANCH  11  35
TORSDOF 4
ENDMDL
MODEL 6
REMARK VINA RESULT:      -5.2      4.124      7.417
REMARK  Name = 
REMARK  11 active torsions:
REMARK  status: ('A' for Active; 'I' for Inactive)
REMARK    1  A    between atoms: C_1  and  C_2
REMARK    2  A    between atoms: C_7  and  C_8
REMARK    3  A    between atoms: C_11  and  C_31
REMARK    4  A    between atoms: C_17  and  O_19
REMARK    5  A    between atoms: C_20  and  C_21
REMARK    6  A    between atoms: C_20  and  C_22
REMARK    7  A    between atoms: C_25  and  C_27
REMARK    8  A    between atoms: C_28  and  O_30
REMARK    9  A    between atoms: C_31  and  C_32
REMARK   10  A    between atoms: C_33  and  C_34
REMARK   11  A    between atoms: C_37  and  C_38
REMARK                            x       y       z     vdW  Elec       q    Type
REMARK                         _______ _______ _______ _____ _____    ______ ____
ROOT
ATOM      1  C   UNL     1       9.064  -0.629  24.905  0.00  0.00    +0.010 C 
ATOM      2  C   UNL     1       7.753  -0.752  24.132  0.00  0.00    +0.015 C 
ATOM      3  C   UNL     1       6.483  -0.049  24.769  0.00  0.00    +0.127 C 
ATOM      4  C   UNL     1       6.270   0.008  26.344  0.00  0.00    +0.081 C 
ATOM      5  C   UNL     1       7.196  -0.908  27.130  0.00  0.00    +0.018 C 
ATOM      6  C   UNL     1       4.805  -0.116  26.830  0.00  0.00    +0.147 C 
ATOM      7  O   UNL     1       3.918  -0.446  26.032  0.00  0.00    -0.296 OA
ATOM      8  C   UNL     1       4.381   0.222  28.288  0.00  0.00    +0.050 C 
ATOM      9  C   UNL     1       5.485   0.715  29.241  0.00  0.00    +0.021 C 
ATOM     10  C   UNL     1       3.410   1.427  28.136  0.00  0.00    +0.021 C 
ATOM     11  C   UNL     1       3.611  -1.036  28.870  0.00  0.00    +0.138 C 
ATOM     12  C   UNL     1       4.552  -2.220  29.177  0.00  0.00    +0.152 C 
ATOM     13  C   UNL     1       3.982  -3.621  29.086  0.00  0.00    +0.310 C 
ATOM     14  O   UNL     1       2.825  -3.954  29.222  0.00  0.00    -0.251 OA
ATOM     15  O   UNL     1       5.045  -4.503  29.026  0.00  0.00    -0.457 OA
ATOM     16  C   UNL     1       5.426  -5.126  27.753  0.00  0.00    +0.206 C 
ATOM     17  C   UNL     1       6.970  -4.874  27.533  0.00  0.00    +0.076 C 
ATOM     18  C   UNL     1       7.629  -5.569  26.332  0.00  0.00    -0.024 C 
ATOM     19  C   UNL     1       8.460  -4.940  25.462  0.00  0.00    -0.076 C 
ATOM     20  C   UNL     1       9.953  -5.259  25.480  0.00  0.00    +0.039 C 
ATOM     21  C   UNL     1       7.994  -4.638  24.041  0.00  0.00    +0.030 C 
ATOM     22  C   UNL     1       8.489  -3.266  23.515  0.00  0.00    +0.005 C 
ATOM     23  C   UNL     1       7.406  -2.190  23.658  0.00  0.00    +0.006 C 
ENDROOT
BRANCH  16  24
ATOM     24  C   UNL     1       4.458  -4.784  26.626  0.00  0.00    -0.030 C 
ATOM     25  C   UNL     1       3.300  -5.468  26.476  0.00  0.00    +0.031 C 
ATOM     26  C   UNL     1       4.756  -3.609  25.749  0.00  0.00    +0.043 C 
BRANCH  25  27
ATOM     27  C   UNL     1       2.307  -5.227  25.474  0.00  0.00    +0.071 A 
ATOM     28  N   UNL     1       2.180  -6.111  24.424  0.00  0.00    -0.245 NA
ATOM     29  C   UNL     1       1.247  -5.693  23.597  0.00  0.00    +0.076 A 
ATOM     30  C   UNL     1       0.883  -6.407  22.344  0.00  0.00    +0.073 C 
ATOM     31  S   UNL     1       0.444  -4.248  24.067  0.00  0.00    -0.080 S 
ATOM     32  C   UNL     1       1.436  -4.162  25.465  0.00  0.00    +0.074 A 
ENDBRANCH  25  27
ENDBRANCH  16  24
BRANCH   3  33
ATOM     33  O   UNL     1       5.356  -0.522  24.018  0.00  0.00    -0.391 OA
ATOM     34  H   UNL     1       5.644  -1.131  23.307  0.00  0.00    +0.210 HD
ENDBRANCH   3  33
BRANCH  11  35
ATOM     35  O   UNL     1       2.926  -0.660  30.068  0.00  0.00    -0.390 OA
ATOM     36  H   UNL     1       2.087  -0.223  29.848  0.00  0.00    +0.210 HD
ENDBRANCH  11  35
TORSDOF 4
ENDMDL
MODEL 7
REMARK VINA RESULT:      -5.2      1.915      2.990
REMARK  Name = 
REMARK  11 active torsions:
REMARK  status: ('A' for Active; 'I' for Inactive)
REMARK    1  A    between atoms: C_1  and  C_2
REMARK    2  A    between atoms: C_7  and  C_8
REMARK    3  A    between atoms: C_11  and  C_31
REMARK    4  A    between atoms: C_17  and  O_19
REMARK    5  A    between atoms: C_20  and  C_21
REMARK    6  A    between atoms: C_20  and  C_22
REMARK    7  A    between atoms: C_25  and  C_27
REMARK    8  A    between atoms: C_28  and  O_30
REMARK    9  A    between atoms: C_31  and  C_32
REMARK   10  A    between atoms: C_33  and  C_34
REMARK   11  A    between atoms: C_37  and  C_38
REMARK                            x       y       z     vdW  Elec       q    Type
REMARK                         _______ _______ _______ _____ _____    ______ ____
ROOT
ATOM      1  C   UNL     1       5.786   0.175  28.105  0.00  0.00    +0.010 C 
ATOM      2  C   UNL     1       4.947   0.514  26.875  0.00  0.00    +0.015 C 
ATOM      3  C   UNL     1       5.655   0.354  25.466  0.00  0.00    +0.127 C 
ATOM      4  C   UNL     1       7.199   0.683  25.272  0.00  0.00    +0.081 C 
ATOM      5  C   UNL     1       7.827   1.430  26.439  0.00  0.00    +0.018 C 
ATOM      6  C   UNL     1       7.587   1.324  23.916  0.00  0.00    +0.147 C 
ATOM      7  O   UNL     1       6.700   1.728  23.152  0.00  0.00    -0.296 OA
ATOM      8  C   UNL     1       9.062   1.428  23.437  0.00  0.00    +0.050 C 
ATOM      9  C   UNL     1      10.141   0.839  24.364  0.00  0.00    +0.021 C 
ATOM     10  C   UNL     1       9.111   0.552  22.152  0.00  0.00    +0.021 C 
ATOM     11  C   UNL     1       9.348   2.945  23.080  0.00  0.00    +0.138 C 
ATOM     12  C   UNL     1       9.454   3.841  24.332  0.00  0.00    +0.152 C 
ATOM     13  C   UNL     1       9.061   5.299  24.197  0.00  0.00    +0.310 C 
ATOM     14  O   UNL     1       9.077   5.974  23.191  0.00  0.00    -0.251 OA
ATOM     15  O   UNL     1       8.873   5.802  25.471  0.00  0.00    -0.457 OA
ATOM     16  C   UNL     1       7.519   6.016  25.996  0.00  0.00    +0.206 C 
ATOM     17  C   UNL     1       7.422   5.287  27.394  0.00  0.00    +0.076 C 
ATOM     18  C   UNL     1       6.137   5.501  28.208  0.00  0.00    -0.024 C 
ATOM     19  C   UNL     1       5.447   4.494  28.803  0.00  0.00    -0.076 C 
ATOM     20  C   UNL     1       5.466   4.362  30.323  0.00  0.00    +0.039 C 
ATOM     21  C   UNL     1       4.094   4.058  28.244  0.00  0.00    +0.030 C 
ATOM     22  C   UNL     1       3.874   2.525  28.306  0.00  0.00    +0.005 C 
ATOM     23  C   UNL     1       4.181   1.862  26.957  0.00  0.00    +0.006 C 
ENDROOT
BRANCH  16  24
ATOM     24  C   UNL     1       6.442   5.748  24.951  0.00  0.00    -0.030 C 
ATOM     25  C   UNL     1       5.784   4.565  24.922  0.00  0.00    +0.031 C 
ATOM     26  C   UNL     1       6.046   6.852  24.022  0.00  0.00    +0.043 C 
BRANCH  25  27
ATOM     27  C   UNL     1       4.746   4.206  24.006  0.00  0.00    +0.071 A 
ATOM     28  N   UNL     1       3.476   3.967  24.487  0.00  0.00    -0.245 NA
ATOM     29  C   UNL     1       2.682   3.615  23.500  0.00  0.00    +0.076 A 
ATOM     30  C   UNL     1       1.250   3.258  23.687  0.00  0.00    +0.073 C 
ATOM     31  S   UNL     1       3.408   3.602  21.942  0.00  0.00    -0.080 S 
ATOM     32  C   UNL     1       4.901   4.078  22.645  0.00  0.00    +0.074 A 
ENDBRANCH  25  27
ENDBRANCH  16  24
BRANCH   3  33
ATOM     33  O   UNL     1       4.776   0.972  24.514  0.00  0.00    -0.391 OA
ATOM     34  H   UNL     1       4.872   0.555  23.633  0.00  0.00    +0.210 HD
ENDBRANCH   3  33
BRANCH  11  35
ATOM     35  O   UNL     1      10.566   3.037  22.335  0.00  0.00    -0.390 OA
ATOM     36  H   UNL     1      11.033   2.186  22.357  0.00  0.00    +0.210 HD
ENDBRANCH  11  35
TORSDOF 4
ENDMDL
MODEL 8
REMARK VINA RESULT:      -5.2      3.061      6.490
REMARK  Name = 
REMARK  11 active torsions:
REMARK  status: ('A' for Active; 'I' for Inactive)
REMARK    1  A    between atoms: C_1  and  C_2
REMARK    2  A    between atoms: C_7  and  C_8
REMARK    3  A    between atoms: C_11  and  C_31
REMARK    4  A    between atoms: C_17  and  O_19
REMARK    5  A    between atoms: C_20  and  C_21
REMARK    6  A    between atoms: C_20  and  C_22
REMARK    7  A    between atoms: C_25  and  C_27
REMARK    8  A    between atoms: C_28  and  O_30
REMARK    9  A    between atoms: C_31  and  C_32
REMARK   10  A    between atoms: C_33  and  C_34
REMARK   11  A    between atoms: C_37  and  C_38
REMARK                            x       y       z     vdW  Elec       q    Type
REMARK                         _______ _______ _______ _____ _____    ______ ____
ROOT
ATOM      1  C   UNL     1       7.511   4.273  22.573  0.00  0.00    +0.010 C 
ATOM      2  C   UNL     1       6.391   3.274  22.294  0.00  0.00    +0.015 C 
ATOM      3  C   UNL     1       5.076   3.417  23.168  0.00  0.00    +0.127 C 
ATOM      4  C   UNL     1       5.139   3.866  24.692  0.00  0.00    +0.081 C 
ATOM      5  C   UNL     1       6.537   3.842  25.291  0.00  0.00    +0.018 C 
ATOM      6  C   UNL     1       4.108   3.197  25.635  0.00  0.00    +0.147 C 
ATOM      7  O   UNL     1       3.443   2.233  25.234  0.00  0.00    -0.296 OA
ATOM      8  C   UNL     1       3.822   3.730  27.068  0.00  0.00    +0.050 C 
ATOM      9  C   UNL     1       4.597   4.984  27.514  0.00  0.00    +0.021 C 
ATOM     10  C   UNL     1       2.331   4.171  27.023  0.00  0.00    +0.021 C 
ATOM     11  C   UNL     1       4.010   2.524  28.078  0.00  0.00    +0.138 C 
ATOM     12  C   UNL     1       5.491   2.135  28.273  0.00  0.00    +0.152 C 
ATOM     13  C   UNL     1       5.806   0.694  28.619  0.00  0.00    +0.310 C 
ATOM     14  O   UNL     1       5.083  -0.105  29.173  0.00  0.00    -0.251 OA
ATOM     15  O   UNL     1       7.153   0.491  28.379  0.00  0.00    -0.457 OA
ATOM     16  C   UNL     1       7.597  -0.234  27.183  0.00  0.00    +0.206 C 
ATOM     17  C   UNL     1       8.664   0.663  26.441  0.00  0.00    +0.076 C 
ATOM     18  C   UNL     1       9.385   0.042  25.235  0.00  0.00    -0.024 C 
ATOM     19  C   UNL     1       9.553   0.680  24.048  0.00  0.00    -0.076 C 
ATOM     20  C   UNL     1      10.942   1.169  23.645  0.00  0.00    +0.039 C 
ATOM     21  C   UNL     1       8.765   0.233  22.820  0.00  0.00    +0.030 C 
ATOM     22  C   UNL     1       8.300   1.413  21.930  0.00  0.00    +0.005 C 
ATOM     23  C   UNL     1       6.842   1.790  22.218  0.00  0.00    +0.006 C 
ENDROOT
BRANCH  16  24
ATOM     24  C   UNL     1       6.431  -0.803  26.382  0.00  0.00    -0.030 C 
ATOM     25  C   UNL     1       5.910  -2.016  26.683  0.00  0.00    +0.031 C 
ATOM     26  C   UNL     1       5.799   0.045  25.324  0.00  0.00    +0.043 C 
BRANCH  25  27
ATOM     27  C   UNL     1       4.809  -2.643  26.020  0.00  0.00    +0.071 A 
ATOM     28  N   UNL     1       5.052  -3.480  24.952  0.00  0.00    -0.245 NA
ATOM     29  C   UNL     1       3.915  -3.921  24.460  0.00  0.00    +0.076 A 
ATOM     30  C   UNL     1       3.827  -4.823  23.281  0.00  0.00    +0.073 C 
ATOM     31  S   UNL     1       2.503  -3.392  25.286  0.00  0.00    -0.080 S 
ATOM     32  C   UNL     1       3.486  -2.486  26.365  0.00  0.00    +0.074 A 
ENDBRANCH  25  27
ENDBRANCH  16  24
BRANCH   3  33
ATOM     33  O   UNL     1       4.305   2.233  22.913  0.00  0.00    -0.391 OA
ATOM     34  H   UNL     1       4.461   1.908  22.002  0.00  0.00    +0.210 HD
ENDBRANCH   3  33
BRANCH  11  35
ATOM     35  O   UNL     1       3.448   2.874  29.346  0.00  0.00    -0.390 OA
ATOM     36  H   UNL     1       3.035   2.095  29.753  0.00  0.00    +0.210 HD
ENDBRANCH  11  35
TORSDOF 4
ENDMDL
MODEL 9
REMARK VINA RESULT:      -4.8      1.937      3.028
REMARK  Name = 
REMARK  11 active torsions:
REMARK  status: ('A' for Active; 'I' for Inactive)
REMARK    1  A    between atoms: C_1  and  C_2
REMARK    2  A    between atoms: C_7  and  C_8
REMARK    3  A    between atoms: C_11  and  C_31
REMARK    4  A    between atoms: C_17  and  O_19
REMARK    5  A    between atoms: C_20  and  C_21
REMARK    6  A    between atoms: C_20  and  C_22
REMARK    7  A    between atoms: C_25  and  C_27
REMARK    8  A    between atoms: C_28  and  O_30
REMARK    9  A    between atoms: C_31  and  C_32
REMARK   10  A    between atoms: C_33  and  C_34
REMARK   11  A    between atoms: C_37  and  C_38
REMARK                            x       y       z     vdW  Elec       q    Type
REMARK                         _______ _______ _______ _____ _____    ______ ____
ROOT
ATOM      1  C   UNL     1       6.309   0.738  28.958  0.00  0.00    +0.010 C 
ATOM      2  C   UNL     1       5.286   0.331  27.899  0.00  0.00    +0.015 C 
ATOM      3  C   UNL     1       5.860  -0.104  26.487  0.00  0.00    +0.127 C 
ATOM      4  C   UNL     1       7.150   0.589  25.867  0.00  0.00    +0.081 C 
ATOM      5  C   UNL     1       7.576   1.863  26.581  0.00  0.00    +0.018 C 
ATOM      6  C   UNL     1       7.141   0.778  24.330  0.00  0.00    +0.147 C 
ATOM      7  O   UNL     1       6.097   0.584  23.693  0.00  0.00    -0.296 OA
ATOM      8  C   UNL     1       8.421   1.148  23.529  0.00  0.00    +0.050 C 
ATOM      9  C   UNL     1       9.727   1.299  24.331  0.00  0.00    +0.021 C 
ATOM     10  C   UNL     1       8.658  -0.074  22.597  0.00  0.00    +0.021 C 
ATOM     11  C   UNL     1       8.097   2.440  22.671  0.00  0.00    +0.138 C 
ATOM     12  C   UNL     1       7.994   3.717  23.533  0.00  0.00    +0.152 C 
ATOM     13  C   UNL     1       7.085   4.828  23.048  0.00  0.00    +0.310 C 
ATOM     14  O   UNL     1       6.753   5.061  21.906  0.00  0.00    -0.251 OA
ATOM     15  O   UNL     1       6.854   5.677  24.115  0.00  0.00    -0.457 OA
ATOM     16  C   UNL     1       5.575   5.640  24.834  0.00  0.00    +0.206 C 
ATOM     17  C   UNL     1       5.890   5.477  26.373  0.00  0.00    +0.076 C 
ATOM     18  C   UNL     1       4.703   5.567  27.345  0.00  0.00    -0.024 C 
ATOM     19  C   UNL     1       4.490   4.686  28.356  0.00  0.00    -0.076 C 
ATOM     20  C   UNL     1       4.707   5.129  29.800  0.00  0.00    +0.039 C 
ATOM     21  C   UNL     1       3.341   3.684  28.269  0.00  0.00    +0.030 C 
ATOM     22  C   UNL     1       3.703   2.291  28.844  0.00  0.00    +0.005 C 
ATOM     23  C   UNL     1       4.094   1.312  27.731  0.00  0.00    +0.006 C 
ENDROOT
BRANCH  16  24
ATOM     24  C   UNL     1       4.571   4.694  24.186  0.00  0.00    -0.030 C 
ATOM     25  C   UNL     1       3.678   5.149  23.276  0.00  0.00    +0.031 C 
ATOM     26  C   UNL     1       4.656   3.231  24.490  0.00  0.00    +0.043 C 
BRANCH  25  27
ATOM     27  C   UNL     1       2.705   4.358  22.588  0.00  0.00    +0.071 A 
ATOM     28  N   UNL     1       2.849   4.137  21.235  0.00  0.00    -0.245 NA
ATOM     29  C   UNL     1       1.838   3.426  20.787  0.00  0.00    +0.076 A 
ATOM     30  C   UNL     1       1.678   3.040  19.359  0.00  0.00    +0.073 C 
ATOM     31  S   UNL     1       0.693   2.947  21.975  0.00  0.00    -0.080 S 
ATOM     32  C   UNL     1       1.605   3.774  23.173  0.00  0.00    +0.074 A 
ENDBRANCH  25  27
ENDBRANCH  16  24
BRANCH   3  33
ATOM     33  O   UNL     1       4.726  -0.177  25.609  0.00  0.00    -0.391 OA
ATOM     34  H   UNL     1       3.932  -0.482  26.095  0.00  0.00    +0.210 HD
ENDBRANCH   3  33
BRANCH  11  35
ATOM     35  O   UNL     1       9.118   2.624  21.685  0.00  0.00    -0.390 OA
ATOM     36  H   UNL     1       8.742   2.522  20.795  0.00  0.00    +0.210 HD
ENDBRANCH  11  35
TORSDOF 4
ENDMDL
