MODEL 1
REMARK VINA RESULT:      -7.4      0.000      0.000
REMARK  Name = 
REMARK  8 active torsions:
REMARK  status: ('A' for Active; 'I' for Inactive)
REMARK    1  A    between atoms: C_4  and  C_5
REMARK    2  A    between atoms: C_4  and  C_6
REMARK    3  A    between atoms: CA_7  and  C_25
REMARK    4  A    between atoms: CA_12  and  N_14
REMARK    5  A    between atoms: C_15  and  C_17
REMARK    6  A    between atoms: C_17  and  O_18
REMARK    7  A    between atoms: O_18  and  C_19
REMARK    8  A    between atoms: C_25  and  O_26
REMARK                            x       y       z     vdW  Elec       q    Type
REMARK                         _______ _______ _______ _____ _____    ______ ____
ROOT
ATOM      1  C   UNL     1       8.583  -1.572  25.111  0.00  0.00    +0.165 C 
ATOM      2  CA  UNL     1       9.028  -0.516  24.070  0.00  0.00    +0.190 C 
ATOM      3  C   UNL     1       9.835  -1.695  23.451  0.00  0.00    +0.240 C 
ATOM      4  O   UNL     1      10.389  -1.933  22.402  0.00  0.00    -0.273 OA
ATOM      5  N   UNL     1       9.547  -2.514  24.504  0.00  0.00    -0.271 N 
ATOM      6  CA  UNL     1       9.062  -3.886  24.273  0.00  0.00    +0.201 C 
ATOM      7  C   UNL     1       7.553  -3.786  23.934  0.00  0.00    +0.042 C 
ATOM      8  C   UNL     1       7.320  -3.473  22.442  0.00  0.00    +0.025 C 
ATOM      9  C   UNL     1       6.715  -5.023  24.273  0.00  0.00    +0.025 C 
ATOM     10  S   UNL     1       6.928  -2.328  24.892  0.00  0.00    -0.127 S 
ENDROOT
BRANCH   2  11
ATOM     11  N   UNL     1       7.964   0.077  23.226  0.00  0.00    -0.299 N 
ATOM     12  H   UNL     1       7.087  -0.416  23.081  0.00  0.00    +0.150 HD
ATOM     13  C   UNL     1       8.038   1.267  22.547  0.00  0.00    +0.251 C 
ATOM     14  O   UNL     1       7.085   1.630  21.861  0.00  0.00    -0.272 OA
BRANCH  13  15
ATOM     15  C   UNL     1       9.315   2.086  22.684  0.00  0.00    +0.324 C 
BRANCH  15  16
ATOM     16  O   UNL     1       9.097   3.082  23.676  0.00  0.00    -0.483 OA
BRANCH  16  17
ATOM     17  C   UNL     1      10.040   4.067  23.775  0.00  0.00    +0.121 A 
ATOM     18  C   UNL     1      11.305   3.721  23.288  0.00  0.00    +0.045 A 
ATOM     19  C   UNL     1      12.351   4.644  23.312  0.00  0.00    +0.004 A 
ATOM     20  C   UNL     1      12.138   5.925  23.818  0.00  0.00    +0.000 A 
ATOM     21  C   UNL     1      10.880   6.276  24.304  0.00  0.00    +0.004 A 
ATOM     22  C   UNL     1       9.833   5.349  24.287  0.00  0.00    +0.045 A 
ENDBRANCH  16  17
ENDBRANCH  15  16
ENDBRANCH  13  15
ENDBRANCH   2  11
BRANCH   6  23
ATOM     23  C   UNL     1       9.420  -4.708  25.525  0.00  0.00    +0.327 C 
ATOM     24  OXT UNL     1       9.136  -4.399  26.673  0.00  0.00    -0.249 OA
BRANCH  23  25
ATOM     25  O   UNL     1      10.022  -5.894  25.243  0.00  0.00    -0.479 OA
ATOM     26  H   UNL     1       9.539  -6.355  24.527  0.00  0.00    +0.295 HD
ENDBRANCH  23  25
ENDBRANCH   6  23
TORSDOF 6
ENDMDL
MODEL 2
REMARK VINA RESULT:      -7.0      2.266      7.857
REMARK  Name = 
REMARK  8 active torsions:
REMARK  status: ('A' for Active; 'I' for Inactive)
REMARK    1  A    between atoms: C_4  and  C_5
REMARK    2  A    between atoms: C_4  and  C_6
REMARK    3  A    between atoms: CA_7  and  C_25
REMARK    4  A    between atoms: CA_12  and  N_14
REMARK    5  A    between atoms: C_15  and  C_17
REMARK    6  A    between atoms: C_17  and  O_18
REMARK    7  A    between atoms: O_18  and  C_19
REMARK    8  A    between atoms: C_25  and  O_26
REMARK                            x       y       z     vdW  Elec       q    Type
REMARK                         _______ _______ _______ _____ _____    ______ ____
ROOT
ATOM      1  C   UNL     1       7.692  -1.177  23.696  0.00  0.00    +0.165 C 
ATOM      2  CA  UNL     1       8.510  -2.492  23.702  0.00  0.00    +0.190 C 
ATOM      3  C   UNL     1       9.459  -1.722  22.737  0.00  0.00    +0.240 C 
ATOM      4  O   UNL     1      10.587  -1.849  22.318  0.00  0.00    -0.273 OA
ATOM      5  N   UNL     1       8.592  -0.672  22.639  0.00  0.00    -0.271 N 
ATOM      6  CA  UNL     1       9.074   0.712  22.798  0.00  0.00    +0.201 C 
ATOM      7  C   UNL     1       9.222   0.973  24.317  0.00  0.00    +0.042 C 
ATOM      8  C   UNL     1      10.572   0.462  24.859  0.00  0.00    +0.025 C 
ATOM      9  C   UNL     1       9.082   2.435  24.755  0.00  0.00    +0.025 C 
ATOM     10  S   UNL     1       7.900  -0.047  25.123  0.00  0.00    -0.127 S 
ENDROOT
BRANCH   2  11
ATOM     11  N   UNL     1       9.083  -2.914  25.002  0.00  0.00    -0.299 N 
ATOM     12  H   UNL     1      10.054  -2.714  25.227  0.00  0.00    +0.150 HD
ATOM     13  C   UNL     1       8.431  -3.616  25.984  0.00  0.00    +0.251 C 
ATOM     14  O   UNL     1       9.037  -3.924  27.009  0.00  0.00    -0.272 OA
BRANCH  13  15
ATOM     15  C   UNL     1       6.971  -3.980  25.747  0.00  0.00    +0.324 C 
BRANCH  15  16
ATOM     16  O   UNL     1       6.918  -5.333  25.309  0.00  0.00    -0.483 OA
BRANCH  16  17
ATOM     17  C   UNL     1       6.658  -5.539  23.983  0.00  0.00    +0.121 A 
ATOM     18  C   UNL     1       5.301  -5.535  23.642  0.00  0.00    +0.045 A 
ATOM     19  C   UNL     1       4.902  -5.713  22.316  0.00  0.00    +0.004 A 
ATOM     20  C   UNL     1       5.859  -5.890  21.320  0.00  0.00    +0.000 A 
ATOM     21  C   UNL     1       7.212  -5.893  21.652  0.00  0.00    +0.004 A 
ATOM     22  C   UNL     1       7.612  -5.722  22.981  0.00  0.00    +0.045 A 
ENDBRANCH  16  17
ENDBRANCH  15  16
ENDBRANCH  13  15
ENDBRANCH   2  11
BRANCH   6  23
ATOM     23  C   UNL     1       8.082   1.622  22.048  0.00  0.00    +0.327 C 
ATOM     24  OXT UNL     1       6.865   1.536  22.111  0.00  0.00    -0.249 OA
BRANCH  23  25
ATOM     25  O   UNL     1       8.683   2.626  21.356  0.00  0.00    -0.479 OA
ATOM     26  H   UNL     1       9.164   2.262  20.584  0.00  0.00    +0.295 HD
ENDBRANCH  23  25
ENDBRANCH   6  23
TORSDOF 6
ENDMDL
MODEL 3
REMARK VINA RESULT:      -6.9      2.576      4.139
REMARK  Name = 
REMARK  8 active torsions:
REMARK  status: ('A' for Active; 'I' for Inactive)
REMARK    1  A    between atoms: C_4  and  C_5
REMARK    2  A    between atoms: C_4  and  C_6
REMARK    3  A    between atoms: CA_7  and  C_25
REMARK    4  A    between atoms: CA_12  and  N_14
REMARK    5  A    between atoms: C_15  and  C_17
REMARK    6  A    between atoms: C_17  and  O_18
REMARK    7  A    between atoms: O_18  and  C_19
REMARK    8  A    between atoms: C_25  and  O_26
REMARK                            x       y       z     vdW  Elec       q    Type
REMARK                         _______ _______ _______ _____ _____    ______ ____
ROOT
ATOM      1  C   UNL     1       6.944  -3.548  26.744  0.00  0.00    +0.165 C 
ATOM      2  CA  UNL     1       7.999  -3.292  25.639  0.00  0.00    +0.190 C 
ATOM      3  C   UNL     1       8.369  -4.788  25.864  0.00  0.00    +0.240 C 
ATOM      4  O   UNL     1       8.993  -5.642  25.277  0.00  0.00    -0.273 OA
ATOM      5  N   UNL     1       7.547  -4.882  26.951  0.00  0.00    -0.271 N 
ATOM      6  CA  UNL     1       6.608  -6.010  27.082  0.00  0.00    +0.201 C 
ATOM      7  C   UNL     1       5.387  -5.695  26.182  0.00  0.00    +0.042 C 
ATOM      8  C   UNL     1       5.636  -6.099  24.715  0.00  0.00    +0.025 C 
ATOM      9  C   UNL     1       4.065  -6.340  26.611  0.00  0.00    +0.025 C 
ATOM     10  S   UNL     1       5.218  -3.849  26.209  0.00  0.00    -0.127 S 
ENDROOT
BRANCH   2  11
ATOM     11  N   UNL     1       7.484  -2.929  24.298  0.00  0.00    -0.299 N 
ATOM     12  H   UNL     1       6.490  -2.996  24.093  0.00  0.00    +0.150 HD
ATOM     13  C   UNL     1       8.235  -2.523  23.224  0.00  0.00    +0.251 C 
ATOM     14  O   UNL     1       7.677  -2.275  22.157  0.00  0.00    -0.272 OA
BRANCH  13  15
ATOM     15  C   UNL     1       9.741  -2.398  23.418  0.00  0.00    +0.324 C 
BRANCH  15  16
ATOM     16  O   UNL     1      10.239  -1.499  22.433  0.00  0.00    -0.483 OA
BRANCH  16  17
ATOM     17  C   UNL     1      10.186  -0.167  22.736  0.00  0.00    +0.121 A 
ATOM     18  C   UNL     1      10.563   0.155  24.043  0.00  0.00    +0.045 A 
ATOM     19  C   UNL     1      10.571   1.483  24.473  0.00  0.00    +0.004 A 
ATOM     20  C   UNL     1      10.209   2.501  23.594  0.00  0.00    +0.000 A 
ATOM     21  C   UNL     1       9.834   2.187  22.289  0.00  0.00    +0.004 A 
ATOM     22  C   UNL     1       9.818   0.856  21.860  0.00  0.00    +0.045 A 
ENDBRANCH  16  17
ENDBRANCH  15  16
ENDBRANCH  13  15
ENDBRANCH   2  11
BRANCH   6  23
ATOM     23  C   UNL     1       6.315  -6.179  28.585  0.00  0.00    +0.327 C 
ATOM     24  OXT UNL     1       6.068  -5.267  29.359  0.00  0.00    -0.249 OA
BRANCH  23  25
ATOM     25  O   UNL     1       6.262  -7.477  28.985  0.00  0.00    -0.479 OA
ATOM     26  H   UNL     1       6.885  -8.018  28.458  0.00  0.00    +0.295 HD
ENDBRANCH  23  25
ENDBRANCH   6  23
TORSDOF 6
ENDMDL
MODEL 4
REMARK VINA RESULT:      -6.8      2.996      7.666
REMARK  Name = 
REMARK  8 active torsions:
REMARK  status: ('A' for Active; 'I' for Inactive)
REMARK    1  A    between atoms: C_4  and  C_5
REMARK    2  A    between atoms: C_4  and  C_6
REMARK    3  A    between atoms: CA_7  and  C_25
REMARK    4  A    between atoms: CA_12  and  N_14
REMARK    5  A    between atoms: C_15  and  C_17
REMARK    6  A    between atoms: C_17  and  O_18
REMARK    7  A    between atoms: O_18  and  C_19
REMARK    8  A    between atoms: C_25  and  O_26
REMARK                            x       y       z     vdW  Elec       q    Type
REMARK                         _______ _______ _______ _____ _____    ______ ____
ROOT
ATOM      1  C   UNL     1       8.418  -1.629  23.561  0.00  0.00    +0.165 C 
ATOM      2  CA  UNL     1       8.669  -2.036  25.035  0.00  0.00    +0.190 C 
ATOM      3  C   UNL     1       9.466  -0.700  25.103  0.00  0.00    +0.240 C 
ATOM      4  O   UNL     1       9.903   0.026  25.966  0.00  0.00    -0.273 OA
ATOM      5  N   UNL     1       9.357  -0.505  23.756  0.00  0.00    -0.271 N 
ATOM      6  CA  UNL     1       8.932   0.801  23.222  0.00  0.00    +0.201 C 
ATOM      7  C   UNL     1       7.391   0.871  23.360  0.00  0.00    +0.042 C 
ATOM      8  C   UNL     1       6.961   1.330  24.768  0.00  0.00    +0.025 C 
ATOM      9  C   UNL     1       6.676   1.777  22.351  0.00  0.00    +0.025 C 
ATOM     10  S   UNL     1       6.798  -0.874  23.159  0.00  0.00    -0.127 S 
ENDROOT
BRANCH   2  11
ATOM     11  N   UNL     1       7.477  -2.145  25.908  0.00  0.00    -0.299 N 
ATOM     12  H   UNL     1       6.905  -1.327  26.104  0.00  0.00    +0.150 HD
ATOM     13  C   UNL     1       7.046  -3.276  26.552  0.00  0.00    +0.251 C 
ATOM     14  O   UNL     1       6.049  -3.219  27.270  0.00  0.00    -0.272 OA
BRANCH  13  15
ATOM     15  C   UNL     1       7.837  -4.561  26.339  0.00  0.00    +0.324 C 
BRANCH  15  16
ATOM     16  O   UNL     1       6.949  -5.546  25.822  0.00  0.00    -0.483 OA
BRANCH  16  17
ATOM     17  C   UNL     1       6.688  -5.493  24.481  0.00  0.00    +0.121 A 
ATOM     18  C   UNL     1       5.346  -5.674  24.135  0.00  0.00    +0.045 A 
ATOM     19  C   UNL     1       4.943  -5.623  22.800  0.00  0.00    +0.004 A 
ATOM     20  C   UNL     1       5.882  -5.382  21.799  0.00  0.00    +0.000 A 
ATOM     21  C   UNL     1       7.222  -5.200  22.137  0.00  0.00    +0.004 A 
ATOM     22  C   UNL     1       7.626  -5.258  23.474  0.00  0.00    +0.045 A 
ENDBRANCH  16  17
ENDBRANCH  15  16
ENDBRANCH  13  15
ENDBRANCH   2  11
BRANCH   6  23
ATOM     23  C   UNL     1       9.488   0.904  21.789  0.00  0.00    +0.327 C 
ATOM     24  OXT UNL     1       9.370   0.047  20.926  0.00  0.00    -0.249 OA
BRANCH  23  25
ATOM     25  O   UNL     1      10.066   2.103  21.515  0.00  0.00    -0.479 OA
ATOM     26  H   UNL     1       9.489   2.833  21.820  0.00  0.00    +0.295 HD
ENDBRANCH  23  25
ENDBRANCH   6  23
TORSDOF 6
ENDMDL
MODEL 5
REMARK VINA RESULT:      -6.8      2.392      3.151
REMARK  Name = 
REMARK  8 active torsions:
REMARK  status: ('A' for Active; 'I' for Inactive)
REMARK    1  A    between atoms: C_4  and  C_5
REMARK    2  A    between atoms: C_4  and  C_6
REMARK    3  A    between atoms: CA_7  and  C_25
REMARK    4  A    between atoms: CA_12  and  N_14
REMARK    5  A    between atoms: C_15  and  C_17
REMARK    6  A    between atoms: C_17  and  O_18
REMARK    7  A    between atoms: O_18  and  C_19
REMARK    8  A    between atoms: C_25  and  O_26
REMARK                            x       y       z     vdW  Elec       q    Type
REMARK                         _______ _______ _______ _____ _____    ______ ____
ROOT
ATOM      1  C   UNL     1       7.992  -2.440  22.578  0.00  0.00    +0.165 C 
ATOM      2  CA  UNL     1       8.345  -0.973  22.925  0.00  0.00    +0.190 C 
ATOM      3  C   UNL     1       6.837  -0.862  23.294  0.00  0.00    +0.240 C 
ATOM      4  O   UNL     1       6.132  -0.097  23.912  0.00  0.00    -0.273 OA
ATOM      5  N   UNL     1       6.569  -2.105  22.796  0.00  0.00    -0.271 N 
ATOM      6  CA  UNL     1       5.783  -3.072  23.582  0.00  0.00    +0.201 C 
ATOM      7  C   UNL     1       6.739  -3.694  24.629  0.00  0.00    +0.042 C 
ATOM      8  C   UNL     1       6.869  -2.810  25.886  0.00  0.00    +0.025 C 
ATOM      9  C   UNL     1       6.373  -5.104  25.105  0.00  0.00    +0.025 C 
ATOM     10  S   UNL     1       8.406  -3.724  23.819  0.00  0.00    -0.127 S 
ENDROOT
BRANCH   2  11
ATOM     11  N   UNL     1       9.316  -0.764  24.024  0.00  0.00    -0.299 N 
ATOM     12  H   UNL     1       9.366  -1.420  24.800  0.00  0.00    +0.150 HD
ATOM     13  C   UNL     1      10.185   0.291  24.148  0.00  0.00    +0.251 C 
ATOM     14  O   UNL     1      10.923   0.353  25.129  0.00  0.00    -0.272 OA
BRANCH  13  15
ATOM     15  C   UNL     1      10.188   1.342  23.045  0.00  0.00    +0.324 C 
BRANCH  15  16
ATOM     16  O   UNL     1       9.394   2.441  23.480  0.00  0.00    -0.483 OA
BRANCH  16  17
ATOM     17  C   UNL     1      10.039   3.635  23.648  0.00  0.00    +0.121 A 
ATOM     18  C   UNL     1      11.387   3.633  23.273  0.00  0.00    +0.045 A 
ATOM     19  C   UNL     1      12.153   4.795  23.377  0.00  0.00    +0.004 A 
ATOM     20  C   UNL     1      11.574   5.971  23.848  0.00  0.00    +0.000 A 
ATOM     21  C   UNL     1      10.231   5.980  24.221  0.00  0.00    +0.004 A 
ATOM     22  C   UNL     1       9.465   4.814  24.125  0.00  0.00    +0.045 A 
ENDBRANCH  16  17
ENDBRANCH  15  16
ENDBRANCH  13  15
ENDBRANCH   2  11
BRANCH   6  23
ATOM     23  C   UNL     1       5.145  -4.053  22.580  0.00  0.00    +0.327 C 
ATOM     24  OXT UNL     1       5.696  -4.496  21.584  0.00  0.00    -0.249 OA
BRANCH  23  25
ATOM     25  O   UNL     1       3.908  -4.477  22.948  0.00  0.00    -0.479 OA
ATOM     26  H   UNL     1       3.932  -4.841  23.857  0.00  0.00    +0.295 HD
ENDBRANCH  23  25
ENDBRANCH   6  23
TORSDOF 6
ENDMDL
MODEL 6
REMARK VINA RESULT:      -6.8      2.077      3.331
REMARK  Name = 
REMARK  8 active torsions:
REMARK  status: ('A' for Active; 'I' for Inactive)
REMARK    1  A    between atoms: C_4  and  C_5
REMARK    2  A    between atoms: C_4  and  C_6
REMARK    3  A    between atoms: CA_7  and  C_25
REMARK    4  A    between atoms: CA_12  and  N_14
REMARK    5  A    between atoms: C_15  and  C_17
REMARK    6  A    between atoms: C_17  and  O_18
REMARK    7  A    between atoms: O_18  and  C_19
REMARK    8  A    between atoms: C_25  and  O_26
REMARK                            x       y       z     vdW  Elec       q    Type
REMARK                         _______ _______ _______ _____ _____    ______ ____
ROOT
ATOM      1  C   UNL     1       7.239  -3.220  24.973  0.00  0.00    +0.165 C 
ATOM      2  CA  UNL     1       8.765  -3.108  24.732  0.00  0.00    +0.190 C 
ATOM      3  C   UNL     1       8.764  -4.637  25.023  0.00  0.00    +0.240 C 
ATOM      4  O   UNL     1       9.519  -5.568  24.861  0.00  0.00    -0.273 OA
ATOM      5  N   UNL     1       7.452  -4.619  25.400  0.00  0.00    -0.271 N 
ATOM      6  CA  UNL     1       6.507  -5.615  24.865  0.00  0.00    +0.201 C 
ATOM      7  C   UNL     1       6.108  -5.151  23.442  0.00  0.00    +0.042 C 
ATOM      8  C   UNL     1       7.140  -5.592  22.384  0.00  0.00    +0.025 C 
ATOM      9  C   UNL     1       4.733  -5.617  22.954  0.00  0.00    +0.025 C 
ATOM     10  S   UNL     1       6.155  -3.298  23.498  0.00  0.00    -0.127 S 
ENDROOT
BRANCH   2  11
ATOM     11  N   UNL     1       9.196  -2.688  23.378  0.00  0.00    -0.299 N 
ATOM     12  H   UNL     1       9.053  -3.301  22.579  0.00  0.00    +0.150 HD
ATOM     13  C   UNL     1       9.835  -1.518  23.058  0.00  0.00    +0.251 C 
ATOM     14  O   UNL     1      10.160  -1.307  21.891  0.00  0.00    -0.272 OA
BRANCH  13  15
ATOM     15  C   UNL     1      10.109  -0.528  24.183  0.00  0.00    +0.324 C 
BRANCH  15  16
ATOM     16  O   UNL     1      10.768   0.604  23.625  0.00  0.00    -0.483 OA
BRANCH  16  17
ATOM     17  C   UNL     1      10.208   1.826  23.878  0.00  0.00    +0.121 A 
ATOM     18  C   UNL     1       9.073   1.795  24.694  0.00  0.00    +0.045 A 
ATOM     19  C   UNL     1       8.419   2.977  25.045  0.00  0.00    +0.004 A 
ATOM     20  C   UNL     1       8.901   4.201  24.586  0.00  0.00    +0.000 A 
ATOM     21  C   UNL     1      10.032   4.239  23.773  0.00  0.00    +0.004 A 
ATOM     22  C   UNL     1      10.683   3.054  23.415  0.00  0.00    +0.045 A 
ENDBRANCH  16  17
ENDBRANCH  15  16
ENDBRANCH  13  15
ENDBRANCH   2  11
BRANCH   6  23
ATOM     23  C   UNL     1       5.358  -5.737  25.884  0.00  0.00    +0.327 C 
ATOM     24  OXT UNL     1       4.683  -4.806  26.295  0.00  0.00    -0.249 OA
BRANCH  23  25
ATOM     25  O   UNL     1       5.079  -7.019  26.237  0.00  0.00    -0.479 OA
ATOM     26  H   UNL     1       4.916  -7.562  25.439  0.00  0.00    +0.295 HD
ENDBRANCH  23  25
ENDBRANCH   6  23
TORSDOF 6
ENDMDL
MODEL 7
REMARK VINA RESULT:      -6.7      2.282      8.455
REMARK  Name = 
REMARK  8 active torsions:
REMARK  status: ('A' for Active; 'I' for Inactive)
REMARK    1  A    between atoms: C_4  and  C_5
REMARK    2  A    between atoms: C_4  and  C_6
REMARK    3  A    between atoms: CA_7  and  C_25
REMARK    4  A    between atoms: CA_12  and  N_14
REMARK    5  A    between atoms: C_15  and  C_17
REMARK    6  A    between atoms: C_17  and  O_18
REMARK    7  A    between atoms: O_18  and  C_19
REMARK    8  A    between atoms: C_25  and  O_26
REMARK                            x       y       z     vdW  Elec       q    Type
REMARK                         _______ _______ _______ _____ _____    ______ ____
ROOT
ATOM      1  C   UNL     1       7.698  -1.309  23.594  0.00  0.00    +0.165 C 
ATOM      2  CA  UNL     1       8.526  -2.618  23.629  0.00  0.00    +0.190 C 
ATOM      3  C   UNL     1       9.532  -1.821  22.747  0.00  0.00    +0.240 C 
ATOM      4  O   UNL     1      10.686  -1.931  22.404  0.00  0.00    -0.273 OA
ATOM      5  N   UNL     1       8.664  -0.775  22.610  0.00  0.00    -0.271 N 
ATOM      6  CA  UNL     1       9.122   0.608  22.829  0.00  0.00    +0.201 C 
ATOM      7  C   UNL     1       9.163   0.840  24.360  0.00  0.00    +0.042 C 
ATOM      8  C   UNL     1      10.478   0.328  24.983  0.00  0.00    +0.025 C 
ATOM      9  C   UNL     1       8.981   2.291  24.816  0.00  0.00    +0.025 C 
ATOM     10  S   UNL     1       7.798  -0.206  25.054  0.00  0.00    -0.127 S 
ENDROOT
BRANCH   2  11
ATOM     11  N   UNL     1       9.012  -3.062  24.957  0.00  0.00    -0.299 N 
ATOM     12  H   UNL     1       9.641  -2.474  25.498  0.00  0.00    +0.150 HD
ATOM     13  C   UNL     1       8.727  -4.258  25.565  0.00  0.00    +0.251 C 
ATOM     14  O   UNL     1       9.220  -4.509  26.663  0.00  0.00    -0.272 OA
BRANCH  13  15
ATOM     15  C   UNL     1       7.800  -5.222  24.836  0.00  0.00    +0.324 C 
BRANCH  15  16
ATOM     16  O   UNL     1       6.707  -5.521  25.697  0.00  0.00    -0.483 OA
BRANCH  16  17
ATOM     17  C   UNL     1       5.550  -5.934  25.099  0.00  0.00    +0.121 A 
ATOM     18  C   UNL     1       4.735  -6.749  25.891  0.00  0.00    +0.045 A 
ATOM     19  C   UNL     1       3.515  -7.221  25.405  0.00  0.00    +0.004 A 
ATOM     20  C   UNL     1       3.096  -6.873  24.123  0.00  0.00    +0.000 A 
ATOM     21  C   UNL     1       3.903  -6.060  23.328  0.00  0.00    +0.004 A 
ATOM     22  C   UNL     1       5.128  -5.593  23.812  0.00  0.00    +0.045 A 
ENDBRANCH  16  17
ENDBRANCH  15  16
ENDBRANCH  13  15
ENDBRANCH   2  11
BRANCH   6  23
ATOM     23  C   UNL     1       8.176   1.526  22.032  0.00  0.00    +0.327 C 
ATOM     24  OXT UNL     1       6.956   1.452  22.037  0.00  0.00    -0.249 OA
BRANCH  23  25
ATOM     25  O   UNL     1       8.818   2.522  21.366  0.00  0.00    -0.479 OA
ATOM     26  H   UNL     1       8.893   2.298  20.416  0.00  0.00    +0.295 HD
ENDBRANCH  23  25
ENDBRANCH   6  23
TORSDOF 6
ENDMDL
MODEL 8
REMARK VINA RESULT:      -6.7      2.828      4.186
REMARK  Name = 
REMARK  8 active torsions:
REMARK  status: ('A' for Active; 'I' for Inactive)
REMARK    1  A    between atoms: C_4  and  C_5
REMARK    2  A    between atoms: C_4  and  C_6
REMARK    3  A    between atoms: CA_7  and  C_25
REMARK    4  A    between atoms: CA_12  and  N_14
REMARK    5  A    between atoms: C_15  and  C_17
REMARK    6  A    between atoms: C_17  and  O_18
REMARK    7  A    between atoms: O_18  and  C_19
REMARK    8  A    between atoms: C_25  and  O_26
REMARK                            x       y       z     vdW  Elec       q    Type
REMARK                         _______ _______ _______ _____ _____    ______ ____
ROOT
ATOM      1  C   UNL     1       6.303  -3.705  22.220  0.00  0.00    +0.165 C 
ATOM      2  CA  UNL     1       7.177  -2.427  22.169  0.00  0.00    +0.190 C 
ATOM      3  C   UNL     1       6.201  -1.906  23.265  0.00  0.00    +0.240 C 
ATOM      4  O   UNL     1       6.181  -1.010  24.077  0.00  0.00    -0.273 OA
ATOM      5  N   UNL     1       5.377  -2.985  23.119  0.00  0.00    -0.271 N 
ATOM      6  CA  UNL     1       4.903  -3.729  24.300  0.00  0.00    +0.201 C 
ATOM      7  C   UNL     1       6.055  -4.665  24.743  0.00  0.00    +0.042 C 
ATOM      8  C   UNL     1       7.076  -3.935  25.638  0.00  0.00    +0.025 C 
ATOM      9  C   UNL     1       5.627  -5.934  25.487  0.00  0.00    +0.025 C 
ATOM     10  S   UNL     1       6.943  -5.127  23.182  0.00  0.00    -0.127 S 
ENDROOT
BRANCH   2  11
ATOM     11  N   UNL     1       8.598  -2.577  22.559  0.00  0.00    -0.299 N 
ATOM     12  H   UNL     1       8.897  -3.369  23.123  0.00  0.00    +0.150 HD
ATOM     13  C   UNL     1       9.615  -1.704  22.265  0.00  0.00    +0.251 C 
ATOM     14  O   UNL     1      10.750  -1.939  22.675  0.00  0.00    -0.272 OA
BRANCH  13  15
ATOM     15  C   UNL     1       9.276  -0.473  21.433  0.00  0.00    +0.324 C 
BRANCH  15  16
ATOM     16  O   UNL     1      10.173   0.569  21.800  0.00  0.00    -0.483 OA
BRANCH  16  17
ATOM     17  C   UNL     1       9.615   1.707  22.311  0.00  0.00    +0.121 A 
ATOM     18  C   UNL     1       8.354   2.026  21.797  0.00  0.00    +0.045 A 
ATOM     19  C   UNL     1       7.667   3.153  22.250  0.00  0.00    +0.004 A 
ATOM     20  C   UNL     1       8.234   3.967  23.229  0.00  0.00    +0.000 A 
ATOM     21  C   UNL     1       9.490   3.654  23.746  0.00  0.00    +0.004 A 
ATOM     22  C   UNL     1      10.182   2.529  23.287  0.00  0.00    +0.045 A 
ENDBRANCH  16  17
ENDBRANCH  15  16
ENDBRANCH  13  15
ENDBRANCH   2  11
BRANCH   6  23
ATOM     23  C   UNL     1       3.586  -4.420  23.897  0.00  0.00    +0.327 C 
ATOM     24  OXT UNL     1       3.429  -5.103  22.896  0.00  0.00    -0.249 OA
BRANCH  23  25
ATOM     25  O   UNL     1       2.598  -4.283  24.820  0.00  0.00    -0.479 OA
ATOM     26  H   UNL     1       2.737  -3.470  25.346  0.00  0.00    +0.295 HD
ENDBRANCH  23  25
ENDBRANCH   6  23
TORSDOF 6
ENDMDL
MODEL 9
REMARK VINA RESULT:      -6.7      2.600      7.739
REMARK  Name = 
REMARK  8 active torsions:
REMARK  status: ('A' for Active; 'I' for Inactive)
REMARK    1  A    between atoms: C_4  and  C_5
REMARK    2  A    between atoms: C_4  and  C_6
REMARK    3  A    between atoms: CA_7  and  C_25
REMARK    4  A    between atoms: CA_12  and  N_14
REMARK    5  A    between atoms: C_15  and  C_17
REMARK    6  A    between atoms: C_17  and  O_18
REMARK    7  A    between atoms: O_18  and  C_19
REMARK    8  A    between atoms: C_25  and  O_26
REMARK                            x       y       z     vdW  Elec       q    Type
REMARK                         _______ _______ _______ _____ _____    ______ ____
ROOT
ATOM      1  C   UNL     1       8.408  -0.351  24.977  0.00  0.00    +0.165 C 
ATOM      2  CA  UNL     1       8.000  -1.844  24.920  0.00  0.00    +0.190 C 
ATOM      3  C   UNL     1       7.115  -1.395  23.720  0.00  0.00    +0.240 C 
ATOM      4  O   UNL     1       6.528  -1.928  22.808  0.00  0.00    -0.273 OA
ATOM      5  N   UNL     1       7.380  -0.075  23.951  0.00  0.00    -0.271 N 
ATOM      6  CA  UNL     1       7.783   0.810  22.844  0.00  0.00    +0.201 C 
ATOM      7  C   UNL     1       9.287   0.552  22.577  0.00  0.00    +0.042 C 
ATOM      8  C   UNL     1       9.506  -0.665  21.655  0.00  0.00    +0.025 C 
ATOM      9  C   UNL     1      10.062   1.725  21.968  0.00  0.00    +0.025 C 
ATOM     10  S   UNL     1      10.013   0.115  24.225  0.00  0.00    -0.127 S 
ENDROOT
BRANCH   2  11
ATOM     11  N   UNL     1       9.077  -2.817  24.626  0.00  0.00    -0.299 N 
ATOM     12  H   UNL     1       9.788  -2.605  23.930  0.00  0.00    +0.150 HD
ATOM     13  C   UNL     1       9.220  -4.061  25.186  0.00  0.00    +0.251 C 
ATOM     14  O   UNL     1      10.152  -4.780  24.830  0.00  0.00    -0.272 OA
BRANCH  13  15
ATOM     15  C   UNL     1       8.202  -4.489  26.236  0.00  0.00    +0.324 C 
BRANCH  15  16
ATOM     16  O   UNL     1       7.385  -5.507  25.669  0.00  0.00    -0.483 OA
BRANCH  16  17
ATOM     17  C   UNL     1       6.283  -5.094  24.973  0.00  0.00    +0.121 A 
ATOM     18  C   UNL     1       6.219  -5.543  23.651  0.00  0.00    +0.045 A 
ATOM     19  C   UNL     1       5.134  -5.208  22.839  0.00  0.00    +0.004 A 
ATOM     20  C   UNL     1       4.101  -4.425  23.348  0.00  0.00    +0.000 A 
ATOM     21  C   UNL     1       4.158  -3.975  24.665  0.00  0.00    +0.004 A 
ATOM     22  C   UNL     1       5.248  -4.304  25.477  0.00  0.00    +0.045 A 
ENDBRANCH  16  17
ENDBRANCH  15  16
ENDBRANCH  13  15
ENDBRANCH   2  11
BRANCH   6  23
ATOM     23  C   UNL     1       7.406   2.246  23.256  0.00  0.00    +0.327 C 
ATOM     24  OXT UNL     1       7.685   2.765  24.326  0.00  0.00    -0.249 OA
BRANCH  23  25
ATOM     25  O   UNL     1       6.793   2.950  22.269  0.00  0.00    -0.479 OA
ATOM     26  H   UNL     1       6.419   2.340  21.600  0.00  0.00    +0.295 HD
ENDBRANCH  23  25
ENDBRANCH   6  23
TORSDOF 6
ENDMDL
