MODEL 1
REMARK VINA RESULT:      -7.5      0.000      0.000
REMARK  Name = 
REMARK  8 active torsions:
REMARK  status: ('A' for Active; 'I' for Inactive)
REMARK    1  A    between atoms: C_2  and  C_3
REMARK    2  A    between atoms: C_2  and  N_11
REMARK    3  A    between atoms: C_2  and  C_25
REMARK    4  A    between atoms: C_3  and  C_4
REMARK    5  A    between atoms: C_7  and  O_8
REMARK    6  A    between atoms: C_17  and  C_20
REMARK    7  A    between atoms: C_20  and  O_21
REMARK    8  A    between atoms: C_25  and  O_26
REMARK                            x       y       z     vdW  Elec       q    Type
REMARK                         _______ _______ _______ _____ _____    ______ ____
ROOT
ATOM      1  N   UNL     1       8.461  -3.013  25.088  0.00  0.00    -0.220 N 
ATOM      2  C   UNL     1       9.435  -2.529  24.269  0.00  0.00    +0.255 C 
ATOM      3  O   UNL     1      10.315  -3.161  23.717  0.00  0.00    -0.270 OA
ATOM      4  C   UNL     1       9.343  -1.082  24.302  0.00  0.00    +0.050 A 
ATOM      5  C   UNL     1      10.032  -0.153  23.549  0.00  0.00    +0.028 A 
ATOM      6  C   UNL     1       9.745   1.192  23.797  0.00  0.00    +0.060 A 
ATOM      7  C   UNL     1       8.841   1.552  24.830  0.00  0.00    +0.016 A 
ATOM      8  C   UNL     1       8.168   0.575  25.585  0.00  0.00    +0.014 A 
ATOM      9  C   UNL     1       8.421  -0.746  25.278  0.00  0.00    +0.049 A 
ATOM     10  C   UNL     1       7.891  -2.004  25.821  0.00  0.00    +0.255 C 
ATOM     11  O   UNL     1       7.123  -2.069  26.760  0.00  0.00    -0.270 OA
ENDROOT
BRANCH   6  12
ATOM     12  C   UNL     1      10.410   2.268  23.024  0.00  0.00    +0.337 C 
ATOM     13  O   UNL     1      11.029   3.167  23.564  0.00  0.00    -0.245 OA
BRANCH  12  14
ATOM     14  O   UNL     1      10.249   2.182  21.688  0.00  0.00    -0.477 OA
ATOM     15  H   UNL     1      10.834   2.730  21.136  0.00  0.00    +0.295 HD
ENDBRANCH  12  14
ENDBRANCH   6  12
BRANCH   1  16
ATOM     16  C   UNL     1       8.277  -4.451  25.270  0.00  0.00    +0.197 C 
BRANCH  16  17
ATOM     17  C   UNL     1       8.663  -4.837  26.703  0.00  0.00    +0.326 C 
ATOM     18  O   UNL     1       7.873  -5.194  27.564  0.00  0.00    -0.249 OA
BRANCH  17  19
ATOM     19  O   UNL     1      10.005  -4.873  26.920  0.00  0.00    -0.479 OA
ATOM     20  H   UNL     1      10.405  -5.772  26.910  0.00  0.00    +0.295 HD
ENDBRANCH  17  19
ENDBRANCH  16  17
BRANCH  16  21
ATOM     21  C   UNL     1       6.897  -4.991  24.885  0.00  0.00    +0.069 C 
BRANCH  21  22
ATOM     22  C   UNL     1       6.456  -4.703  23.463  0.00  0.00    -0.045 A 
ATOM     23  C   UNL     1       6.656  -5.679  22.475  0.00  0.00    +0.007 A 
ATOM     24  C   UNL     1       6.381  -5.405  21.134  0.00  0.00    +0.045 A 
ATOM     25  C   UNL     1       5.898  -4.155  20.772  0.00  0.00    +0.117 A 
ATOM     26  C   UNL     1       5.663  -3.180  21.735  0.00  0.00    +0.045 A 
ATOM     27  C   UNL     1       5.940  -3.454  23.081  0.00  0.00    +0.007 A 
BRANCH  25  28
ATOM     28  O   UNL     1       5.679  -3.922  19.447  0.00  0.00    -0.507 OA
ATOM     29  H   UNL     1       5.716  -4.766  18.967  0.00  0.00    +0.292 HD
ENDBRANCH  25  28
ENDBRANCH  21  22
ENDBRANCH  16  21
ENDBRANCH   1  16
TORSDOF 8
ENDMDL
MODEL 2
REMARK VINA RESULT:      -7.3      2.609      6.545
REMARK  Name = 
REMARK  8 active torsions:
REMARK  status: ('A' for Active; 'I' for Inactive)
REMARK    1  A    between atoms: C_2  and  C_3
REMARK    2  A    between atoms: C_2  and  N_11
REMARK    3  A    between atoms: C_2  and  C_25
REMARK    4  A    between atoms: C_3  and  C_4
REMARK    5  A    between atoms: C_7  and  O_8
REMARK    6  A    between atoms: C_17  and  C_20
REMARK    7  A    between atoms: C_20  and  O_21
REMARK    8  A    between atoms: C_25  and  O_26
REMARK                            x       y       z     vdW  Elec       q    Type
REMARK                         _______ _______ _______ _____ _____    ______ ____
ROOT
ATOM      1  N   UNL     1       7.373  -3.708  24.690  0.00  0.00    -0.220 N 
ATOM      2  C   UNL     1       7.029  -4.795  23.946  0.00  0.00    +0.255 C 
ATOM      3  O   UNL     1       7.764  -5.486  23.267  0.00  0.00    -0.270 OA
ATOM      4  C   UNL     1       5.582  -4.890  23.968  0.00  0.00    +0.050 A 
ATOM      5  C   UNL     1       4.771  -5.886  23.463  0.00  0.00    +0.028 A 
ATOM      6  C   UNL     1       3.394  -5.714  23.622  0.00  0.00    +0.060 A 
ATOM      7  C   UNL     1       2.884  -4.526  24.208  0.00  0.00    +0.016 A 
ATOM      8  C   UNL     1       3.743  -3.527  24.698  0.00  0.00    +0.014 A 
ATOM      9  C   UNL     1       5.100  -3.751  24.587  0.00  0.00    +0.049 A 
ATOM     10  C   UNL     1       6.267  -2.962  25.006  0.00  0.00    +0.255 C 
ATOM     11  O   UNL     1       6.197  -1.855  25.504  0.00  0.00    -0.270 OA
ENDROOT
BRANCH   6  12
ATOM     12  C   UNL     1       2.438  -6.739  23.139  0.00  0.00    +0.337 C 
ATOM     13  O   UNL     1       1.454  -6.450  22.482  0.00  0.00    -0.245 OA
BRANCH  12  14
ATOM     14  O   UNL     1       2.731  -8.001  23.512  0.00  0.00    -0.477 OA
ATOM     15  H   UNL     1       3.431  -8.457  23.013  0.00  0.00    +0.295 HD
ENDBRANCH  12  14
ENDBRANCH   6  12
BRANCH   1  16
ATOM     16  C   UNL     1       8.773  -3.336  24.877  0.00  0.00    +0.197 C 
BRANCH  16  17
ATOM     17  C   UNL     1       9.466  -4.381  25.758  0.00  0.00    +0.326 C 
ATOM     18  O   UNL     1       9.203  -4.585  26.934  0.00  0.00    -0.249 OA
BRANCH  17  19
ATOM     19  O   UNL     1      10.338  -5.178  25.084  0.00  0.00    -0.479 OA
ATOM     20  H   UNL     1      10.484  -4.933  24.142  0.00  0.00    +0.295 HD
ENDBRANCH  17  19
ENDBRANCH  16  17
BRANCH  16  21
ATOM     21  C   UNL     1       9.557  -3.065  23.590  0.00  0.00    +0.069 C 
BRANCH  21  22
ATOM     22  C   UNL     1       9.617  -1.613  23.154  0.00  0.00    -0.045 A 
ATOM     23  C   UNL     1       9.254  -1.277  21.842  0.00  0.00    +0.007 A 
ATOM     24  C   UNL     1       9.416   0.025  21.367  0.00  0.00    +0.045 A 
ATOM     25  C   UNL     1       9.936   1.003  22.202  0.00  0.00    +0.117 A 
ATOM     26  C   UNL     1      10.275   0.704  23.517  0.00  0.00    +0.045 A 
ATOM     27  C   UNL     1      10.114  -0.603  23.994  0.00  0.00    +0.007 A 
BRANCH  25  28
ATOM     28  O   UNL     1      10.110   2.251  21.682  0.00  0.00    -0.507 OA
ATOM     29  H   UNL     1       9.282   2.538  21.264  0.00  0.00    +0.292 HD
ENDBRANCH  25  28
ENDBRANCH  21  22
ENDBRANCH  16  21
ENDBRANCH   1  16
TORSDOF 8
ENDMDL
MODEL 3
REMARK VINA RESULT:      -7.2      2.201      3.028
REMARK  Name = 
REMARK  8 active torsions:
REMARK  status: ('A' for Active; 'I' for Inactive)
REMARK    1  A    between atoms: C_2  and  C_3
REMARK    2  A    between atoms: C_2  and  N_11
REMARK    3  A    between atoms: C_2  and  C_25
REMARK    4  A    between atoms: C_3  and  C_4
REMARK    5  A    between atoms: C_7  and  O_8
REMARK    6  A    between atoms: C_17  and  C_20
REMARK    7  A    between atoms: C_20  and  O_21
REMARK    8  A    between atoms: C_25  and  O_26
REMARK                            x       y       z     vdW  Elec       q    Type
REMARK                         _______ _______ _______ _____ _____    ______ ____
ROOT
ATOM      1  N   UNL     1       8.518  -3.086  24.224  0.00  0.00    -0.220 N 
ATOM      2  C   UNL     1       8.841  -1.977  24.945  0.00  0.00    +0.255 C 
ATOM      3  O   UNL     1       8.793  -1.844  26.152  0.00  0.00    -0.270 OA
ATOM      4  C   UNL     1       9.100  -0.909  23.998  0.00  0.00    +0.050 A 
ATOM      5  C   UNL     1       9.577   0.364  24.237  0.00  0.00    +0.028 A 
ATOM      6  C   UNL     1       9.726   1.196  23.124  0.00  0.00    +0.060 A 
ATOM      7  C   UNL     1       9.325   0.750  21.838  0.00  0.00    +0.016 A 
ATOM      8  C   UNL     1       8.830  -0.551  21.638  0.00  0.00    +0.014 A 
ATOM      9  C   UNL     1       8.753  -1.375  22.742  0.00  0.00    +0.049 A 
ATOM     10  C   UNL     1       8.325  -2.771  22.903  0.00  0.00    +0.255 C 
ATOM     11  O   UNL     1       7.870  -3.451  22.004  0.00  0.00    -0.270 OA
ENDROOT
BRANCH   6  12
ATOM     12  C   UNL     1      10.256   2.573  23.269  0.00  0.00    +0.337 C 
ATOM     13  O   UNL     1      11.368   2.796  23.712  0.00  0.00    -0.245 OA
BRANCH  12  14
ATOM     14  O   UNL     1       9.400   3.546  22.899  0.00  0.00    -0.477 OA
ATOM     15  H   UNL     1       8.876   3.965  23.604  0.00  0.00    +0.295 HD
ENDBRANCH  12  14
ENDBRANCH   6  12
BRANCH   1  16
ATOM     16  C   UNL     1       8.206  -4.350  24.886  0.00  0.00    +0.197 C 
BRANCH  16  17
ATOM     17  C   UNL     1       9.430  -4.829  25.674  0.00  0.00    +0.326 C 
ATOM     18  O   UNL     1      10.501  -5.142  25.175  0.00  0.00    -0.249 OA
BRANCH  17  19
ATOM     19  O   UNL     1       9.276  -4.762  27.024  0.00  0.00    -0.479 OA
ATOM     20  H   UNL     1       9.886  -4.141  27.483  0.00  0.00    +0.295 HD
ENDBRANCH  17  19
ENDBRANCH  16  17
BRANCH  16  21
ATOM     21  C   UNL     1       6.940  -4.345  25.746  0.00  0.00    +0.069 C 
BRANCH  21  22
ATOM     22  C   UNL     1       5.816  -5.241  25.261  0.00  0.00    -0.045 A 
ATOM     23  C   UNL     1       5.239  -6.158  26.151  0.00  0.00    +0.007 A 
ATOM     24  C   UNL     1       4.293  -7.084  25.710  0.00  0.00    +0.045 A 
ATOM     25  C   UNL     1       3.912  -7.097  24.376  0.00  0.00    +0.117 A 
ATOM     26  C   UNL     1       4.446  -6.179  23.478  0.00  0.00    +0.045 A 
ATOM     27  C   UNL     1       5.396  -5.250  23.920  0.00  0.00    +0.007 A 
BRANCH  25  28
ATOM     28  O   UNL     1       3.012  -8.044  23.984  0.00  0.00    -0.507 OA
ATOM     29  H   UNL     1       2.617  -8.450  24.773  0.00  0.00    +0.292 HD
ENDBRANCH  25  28
ENDBRANCH  21  22
ENDBRANCH  16  21
ENDBRANCH   1  16
TORSDOF 8
ENDMDL
MODEL 4
REMARK VINA RESULT:      -7.2      2.589      6.531
REMARK  Name = 
REMARK  8 active torsions:
REMARK  status: ('A' for Active; 'I' for Inactive)
REMARK    1  A    between atoms: C_2  and  C_3
REMARK    2  A    between atoms: C_2  and  N_11
REMARK    3  A    between atoms: C_2  and  C_25
REMARK    4  A    between atoms: C_3  and  C_4
REMARK    5  A    between atoms: C_7  and  O_8
REMARK    6  A    between atoms: C_17  and  C_20
REMARK    7  A    between atoms: C_20  and  O_21
REMARK    8  A    between atoms: C_25  and  O_26
REMARK                            x       y       z     vdW  Elec       q    Type
REMARK                         _______ _______ _______ _____ _____    ______ ____
ROOT
ATOM      1  N   UNL     1       7.563  -3.907  24.417  0.00  0.00    -0.220 N 
ATOM      2  C   UNL     1       6.427  -3.484  25.037  0.00  0.00    +0.255 C 
ATOM      3  O   UNL     1       6.345  -2.784  26.027  0.00  0.00    -0.270 OA
ATOM      4  C   UNL     1       5.314  -4.160  24.399  0.00  0.00    +0.050 A 
ATOM      5  C   UNL     1       3.960  -3.974  24.593  0.00  0.00    +0.028 A 
ATOM      6  C   UNL     1       3.101  -4.777  23.838  0.00  0.00    +0.060 A 
ATOM      7  C   UNL     1       3.628  -5.779  22.982  0.00  0.00    +0.016 A 
ATOM      8  C   UNL     1       5.015  -5.948  22.822  0.00  0.00    +0.014 A 
ATOM      9  C   UNL     1       5.840  -5.099  23.529  0.00  0.00    +0.049 A 
ATOM     10  C   UNL     1       7.303  -4.966  23.586  0.00  0.00    +0.255 C 
ATOM     11  O   UNL     1       8.076  -5.703  23.006  0.00  0.00    -0.270 OA
ENDROOT
BRANCH   6  12
ATOM     12  C   UNL     1       1.630  -4.636  23.952  0.00  0.00    +0.337 C 
ATOM     13  O   UNL     1       1.100  -4.149  24.934  0.00  0.00    -0.245 OA
BRANCH  12  14
ATOM     14  O   UNL     1       0.937  -5.115  22.900  0.00  0.00    -0.477 OA
ATOM     15  H   UNL     1       0.646  -6.043  22.948  0.00  0.00    +0.295 HD
ENDBRANCH  12  14
ENDBRANCH   6  12
BRANCH   1  16
ATOM     16  C   UNL     1       8.873  -3.402  24.822  0.00  0.00    +0.197 C 
BRANCH  16  17
ATOM     17  C   UNL     1       9.520  -4.388  25.801  0.00  0.00    +0.326 C 
ATOM     18  O   UNL     1       9.220  -4.497  26.980  0.00  0.00    -0.249 OA
BRANCH  17  19
ATOM     19  O   UNL     1      10.396  -5.248  25.216  0.00  0.00    -0.479 OA
ATOM     20  H   UNL     1      10.812  -5.899  25.826  0.00  0.00    +0.295 HD
ENDBRANCH  17  19
ENDBRANCH  16  17
BRANCH  16  21
ATOM     21  C   UNL     1       9.817  -3.034  23.674  0.00  0.00    +0.069 C 
BRANCH  21  22
ATOM     22  C   UNL     1       9.748  -1.592  23.207  0.00  0.00    -0.045 A 
ATOM     23  C   UNL     1       9.361  -1.319  21.887  0.00  0.00    +0.007 A 
ATOM     24  C   UNL     1       9.407  -0.019  21.384  0.00  0.00    +0.045 A 
ATOM     25  C   UNL     1       9.835   1.020  22.199  0.00  0.00    +0.117 A 
ATOM     26  C   UNL     1      10.196   0.782  23.520  0.00  0.00    +0.045 A 
ATOM     27  C   UNL     1      10.151  -0.524  24.026  0.00  0.00    +0.007 A 
BRANCH  25  28
ATOM     28  O   UNL     1       9.898   2.268  21.651  0.00  0.00    -0.507 OA
ATOM     29  H   UNL     1      10.574   2.785  22.120  0.00  0.00    +0.292 HD
ENDBRANCH  25  28
ENDBRANCH  21  22
ENDBRANCH  16  21
ENDBRANCH   1  16
TORSDOF 8
ENDMDL
MODEL 5
REMARK VINA RESULT:      -7.2      2.401      2.774
REMARK  Name = 
REMARK  8 active torsions:
REMARK  status: ('A' for Active; 'I' for Inactive)
REMARK    1  A    between atoms: C_2  and  C_3
REMARK    2  A    between atoms: C_2  and  N_11
REMARK    3  A    between atoms: C_2  and  C_25
REMARK    4  A    between atoms: C_3  and  C_4
REMARK    5  A    between atoms: C_7  and  O_8
REMARK    6  A    between atoms: C_17  and  C_20
REMARK    7  A    between atoms: C_20  and  O_21
REMARK    8  A    between atoms: C_25  and  O_26
REMARK                            x       y       z     vdW  Elec       q    Type
REMARK                         _______ _______ _______ _____ _____    ______ ____
ROOT
ATOM      1  N   UNL     1       7.785  -3.196  24.662  0.00  0.00    -0.220 N 
ATOM      2  C   UNL     1       7.842  -2.645  23.419  0.00  0.00    +0.255 C 
ATOM      3  O   UNL     1       7.687  -3.210  22.354  0.00  0.00    -0.270 OA
ATOM      4  C   UNL     1       8.293  -1.275  23.577  0.00  0.00    +0.050 A 
ATOM      5  C   UNL     1       8.393  -0.280  22.626  0.00  0.00    +0.028 A 
ATOM      6  C   UNL     1       8.869   0.959  23.062  0.00  0.00    +0.060 A 
ATOM      7  C   UNL     1       9.294   1.130  24.406  0.00  0.00    +0.016 A 
ATOM      8  C   UNL     1       9.189   0.086  25.342  0.00  0.00    +0.014 A 
ATOM      9  C   UNL     1       8.655  -1.107  24.902  0.00  0.00    +0.049 A 
ATOM     10  C   UNL     1       8.373  -2.375  25.590  0.00  0.00    +0.255 C 
ATOM     11  O   UNL     1       8.659  -2.597  26.750  0.00  0.00    -0.270 OA
ENDROOT
BRANCH   6  12
ATOM     12  C   UNL     1       8.988   2.101  22.125  0.00  0.00    +0.337 C 
ATOM     13  O   UNL     1       8.054   2.845  21.888  0.00  0.00    -0.245 OA
BRANCH  12  14
ATOM     14  O   UNL     1      10.198   2.227  21.543  0.00  0.00    -0.477 OA
ATOM     15  H   UNL     1      10.255   2.809  20.766  0.00  0.00    +0.295 HD
ENDBRANCH  12  14
ENDBRANCH   6  12
BRANCH   1  16
ATOM     16  C   UNL     1       7.354  -4.579  24.853  0.00  0.00    +0.197 C 
BRANCH  16  17
ATOM     17  C   UNL     1       8.535  -5.417  25.353  0.00  0.00    +0.326 C 
ATOM     18  O   UNL     1       9.548  -5.648  24.710  0.00  0.00    -0.249 OA
BRANCH  17  19
ATOM     19  O   UNL     1       8.427  -5.798  26.655  0.00  0.00    -0.479 OA
ATOM     20  H   UNL     1       8.691  -5.115  27.312  0.00  0.00    +0.295 HD
ENDBRANCH  17  19
ENDBRANCH  16  17
BRANCH  16  21
ATOM     21  C   UNL     1       6.111  -4.764  25.728  0.00  0.00    +0.069 C 
BRANCH  21  22
ATOM     22  C   UNL     1       4.977  -5.549  25.096  0.00  0.00    -0.045 A 
ATOM     23  C   UNL     1       4.524  -6.719  25.722  0.00  0.00    +0.007 A 
ATOM     24  C   UNL     1       3.573  -7.535  25.108  0.00  0.00    +0.045 A 
ATOM     25  C   UNL     1       3.062  -7.183  23.866  0.00  0.00    +0.117 A 
ATOM     26  C   UNL     1       3.472  -6.013  23.238  0.00  0.00    +0.045 A 
ATOM     27  C   UNL     1       4.428  -5.194  23.853  0.00  0.00    +0.007 A 
BRANCH  25  28
ATOM     28  O   UNL     1       2.162  -8.030  23.290  0.00  0.00    -0.507 OA
ATOM     29  H   UNL     1       2.188  -8.883  23.754  0.00  0.00    +0.292 HD
ENDBRANCH  25  28
ENDBRANCH  21  22
ENDBRANCH  16  21
ENDBRANCH   1  16
TORSDOF 8
ENDMDL
MODEL 6
REMARK VINA RESULT:      -7.0      2.179      4.311
REMARK  Name = 
REMARK  8 active torsions:
REMARK  status: ('A' for Active; 'I' for Inactive)
REMARK    1  A    between atoms: C_2  and  C_3
REMARK    2  A    between atoms: C_2  and  N_11
REMARK    3  A    between atoms: C_2  and  C_25
REMARK    4  A    between atoms: C_3  and  C_4
REMARK    5  A    between atoms: C_7  and  O_8
REMARK    6  A    between atoms: C_17  and  C_20
REMARK    7  A    between atoms: C_20  and  O_21
REMARK    8  A    between atoms: C_25  and  O_26
REMARK                            x       y       z     vdW  Elec       q    Type
REMARK                         _______ _______ _______ _____ _____    ______ ____
ROOT
ATOM      1  N   UNL     1       7.983  -2.427  24.243  0.00  0.00    -0.220 N 
ATOM      2  C   UNL     1       7.305  -1.248  24.190  0.00  0.00    +0.255 C 
ATOM      3  O   UNL     1       6.110  -1.092  24.026  0.00  0.00    -0.270 OA
ATOM      4  C   UNL     1       8.291  -0.184  24.195  0.00  0.00    +0.050 A 
ATOM      5  C   UNL     1       8.094   1.179  24.272  0.00  0.00    +0.028 A 
ATOM      6  C   UNL     1       9.238   1.980  24.251  0.00  0.00    +0.060 A 
ATOM      7  C   UNL     1      10.519   1.394  24.078  0.00  0.00    +0.016 A 
ATOM      8  C   UNL     1      10.677  -0.001  23.988  0.00  0.00    +0.014 A 
ATOM      9  C   UNL     1       9.537  -0.773  24.077  0.00  0.00    +0.049 A 
ATOM     10  C   UNL     1       9.327  -2.227  24.055  0.00  0.00    +0.255 C 
ATOM     11  O   UNL     1      10.212  -3.040  23.872  0.00  0.00    -0.270 OA
ENDROOT
BRANCH   6  12
ATOM     12  C   UNL     1       9.138   3.456  24.356  0.00  0.00    +0.337 C 
ATOM     13  O   UNL     1       8.489   4.000  25.232  0.00  0.00    -0.245 OA
BRANCH  12  14
ATOM     14  O   UNL     1       9.794   4.134  23.394  0.00  0.00    -0.477 OA
ATOM     15  H   UNL     1       9.258   4.505  22.671  0.00  0.00    +0.295 HD
ENDBRANCH  12  14
ENDBRANCH   6  12
BRANCH   1  16
ATOM     16  C   UNL     1       7.274  -3.703  24.262  0.00  0.00    +0.197 C 
BRANCH  16  17
ATOM     17  C   UNL     1       7.167  -4.249  22.834  0.00  0.00    +0.326 C 
ATOM     18  O   UNL     1       7.539  -5.359  22.483  0.00  0.00    -0.249 OA
BRANCH  17  19
ATOM     19  O   UNL     1       6.493  -3.431  21.982  0.00  0.00    -0.479 OA
ATOM     20  H   UNL     1       5.628  -3.777  21.668  0.00  0.00    +0.295 HD
ENDBRANCH  17  19
ENDBRANCH  16  17
BRANCH  16  21
ATOM     21  C   UNL     1       7.829  -4.749  25.233  0.00  0.00    +0.069 C 
BRANCH  21  22
ATOM     22  C   UNL     1       6.813  -5.381  26.165  0.00  0.00    -0.045 A 
ATOM     23  C   UNL     1       7.068  -5.397  27.545  0.00  0.00    +0.007 A 
ATOM     24  C   UNL     1       6.222  -6.078  28.420  0.00  0.00    +0.045 A 
ATOM     25  C   UNL     1       5.110  -6.744  27.923  0.00  0.00    +0.117 A 
ATOM     26  C   UNL     1       4.817  -6.719  26.564  0.00  0.00    +0.045 A 
ATOM     27  C   UNL     1       5.668  -6.036  25.685  0.00  0.00    +0.007 A 
BRANCH  25  28
ATOM     28  O   UNL     1       4.333  -7.427  28.812  0.00  0.00    -0.507 OA
ATOM     29  H   UNL     1       3.627  -7.886  28.328  0.00  0.00    +0.292 HD
ENDBRANCH  25  28
ENDBRANCH  21  22
ENDBRANCH  16  21
ENDBRANCH   1  16
TORSDOF 8
ENDMDL
MODEL 7
REMARK VINA RESULT:      -6.9      2.676      4.712
REMARK  Name = 
REMARK  8 active torsions:
REMARK  status: ('A' for Active; 'I' for Inactive)
REMARK    1  A    between atoms: C_2  and  C_3
REMARK    2  A    between atoms: C_2  and  N_11
REMARK    3  A    between atoms: C_2  and  C_25
REMARK    4  A    between atoms: C_3  and  C_4
REMARK    5  A    between atoms: C_7  and  O_8
REMARK    6  A    between atoms: C_17  and  C_20
REMARK    7  A    between atoms: C_20  and  O_21
REMARK    8  A    between atoms: C_25  and  O_26
REMARK                            x       y       z     vdW  Elec       q    Type
REMARK                         _______ _______ _______ _____ _____    ______ ____
ROOT
ATOM      1  N   UNL     1       8.892   0.301  23.773  0.00  0.00    -0.220 N 
ATOM      2  C   UNL     1       7.964   1.006  23.070  0.00  0.00    +0.255 C 
ATOM      3  O   UNL     1       7.092   0.562  22.349  0.00  0.00    -0.270 OA
ATOM      4  C   UNL     1       8.305   2.410  23.198  0.00  0.00    +0.050 A 
ATOM      5  C   UNL     1       7.600   3.516  22.766  0.00  0.00    +0.028 A 
ATOM      6  C   UNL     1       8.174   4.764  23.022  0.00  0.00    +0.060 A 
ATOM      7  C   UNL     1       9.454   4.853  23.628  0.00  0.00    +0.016 A 
ATOM      8  C   UNL     1      10.147   3.701  24.041  0.00  0.00    +0.014 A 
ATOM      9  C   UNL     1       9.531   2.484  23.836  0.00  0.00    +0.049 A 
ATOM     10  C   UNL     1       9.932   1.108  24.158  0.00  0.00    +0.255 C 
ATOM     11  O   UNL     1      11.004   0.809  24.645  0.00  0.00    -0.270 OA
ENDROOT
BRANCH   6  12
ATOM     12  C   UNL     1       7.485   6.015  22.624  0.00  0.00    +0.337 C 
ATOM     13  O   UNL     1       6.966   6.757  23.438  0.00  0.00    -0.245 OA
BRANCH  12  14
ATOM     14  O   UNL     1       7.456   6.242  21.295  0.00  0.00    -0.477 OA
ATOM     15  H   UNL     1       6.703   6.752  20.951  0.00  0.00    +0.295 HD
ENDBRANCH  12  14
ENDBRANCH   6  12
BRANCH   1  16
ATOM     16  C   UNL     1       8.828  -1.156  23.852  0.00  0.00    +0.197 C 
BRANCH  16  17
ATOM     17  C   UNL     1       9.804  -1.766  22.840  0.00  0.00    +0.326 C 
ATOM     18  O   UNL     1      10.650  -2.607  23.108  0.00  0.00    -0.249 OA
BRANCH  17  19
ATOM     19  O   UNL     1       9.574  -1.385  21.556  0.00  0.00    -0.479 OA
ATOM     20  H   UNL     1       8.840  -0.740  21.437  0.00  0.00    +0.295 HD
ENDBRANCH  17  19
ENDBRANCH  16  17
BRANCH  16  21
ATOM     21  C   UNL     1       9.014  -1.746  25.253  0.00  0.00    +0.069 C 
BRANCH  21  22
ATOM     22  C   UNL     1       8.288  -3.052  25.515  0.00  0.00    -0.045 A 
ATOM     23  C   UNL     1       7.074  -3.302  24.859  0.00  0.00    +0.007 A 
ATOM     24  C   UNL     1       6.315  -4.431  25.169  0.00  0.00    +0.045 A 
ATOM     25  C   UNL     1       6.767  -5.322  26.132  0.00  0.00    +0.117 A 
ATOM     26  C   UNL     1       7.982  -5.114  26.775  0.00  0.00    +0.045 A 
ATOM     27  C   UNL     1       8.744  -3.980  26.466  0.00  0.00    +0.007 A 
BRANCH  25  28
ATOM     28  O   UNL     1       5.973  -6.392  26.426  0.00  0.00    -0.507 OA
ATOM     29  H   UNL     1       5.059  -6.085  26.539  0.00  0.00    +0.292 HD
ENDBRANCH  25  28
ENDBRANCH  21  22
ENDBRANCH  16  21
ENDBRANCH   1  16
TORSDOF 8
ENDMDL
MODEL 8
REMARK VINA RESULT:      -6.9      2.370      3.659
REMARK  Name = 
REMARK  8 active torsions:
REMARK  status: ('A' for Active; 'I' for Inactive)
REMARK    1  A    between atoms: C_2  and  C_3
REMARK    2  A    between atoms: C_2  and  N_11
REMARK    3  A    between atoms: C_2  and  C_25
REMARK    4  A    between atoms: C_3  and  C_4
REMARK    5  A    between atoms: C_7  and  O_8
REMARK    6  A    between atoms: C_17  and  C_20
REMARK    7  A    between atoms: C_20  and  O_21
REMARK    8  A    between atoms: C_25  and  O_26
REMARK                            x       y       z     vdW  Elec       q    Type
REMARK                         _______ _______ _______ _____ _____    ______ ____
ROOT
ATOM      1  N   UNL     1       8.668   0.592  23.880  0.00  0.00    -0.220 N 
ATOM      2  C   UNL     1       9.996   0.837  23.710  0.00  0.00    +0.255 C 
ATOM      3  O   UNL     1      10.900   0.024  23.694  0.00  0.00    -0.270 OA
ATOM      4  C   UNL     1      10.172   2.277  23.718  0.00  0.00    +0.050 A 
ATOM      5  C   UNL     1      11.311   3.013  23.463  0.00  0.00    +0.028 A 
ATOM      6  C   UNL     1      11.193   4.402  23.547  0.00  0.00    +0.060 A 
ATOM      7  C   UNL     1       9.967   4.992  23.954  0.00  0.00    +0.016 A 
ATOM      8  C   UNL     1       8.832   4.207  24.219  0.00  0.00    +0.014 A 
ATOM      9  C   UNL     1       8.957   2.842  24.065  0.00  0.00    +0.049 A 
ATOM     10  C   UNL     1       7.998   1.739  24.222  0.00  0.00    +0.255 C 
ATOM     11  O   UNL     1       6.856   1.881  24.611  0.00  0.00    -0.270 OA
ENDROOT
BRANCH   6  12
ATOM     12  C   UNL     1      12.350   5.284  23.265  0.00  0.00    +0.337 C 
ATOM     13  O   UNL     1      12.858   5.354  22.160  0.00  0.00    -0.245 OA
BRANCH  12  14
ATOM     14  O   UNL     1      12.806   5.971  24.331  0.00  0.00    -0.477 OA
ATOM     15  H   UNL     1      12.205   6.629  24.722  0.00  0.00    +0.295 HD
ENDBRANCH  12  14
ENDBRANCH   6  12
BRANCH   1  16
ATOM     16  C   UNL     1       8.153  -0.774  23.909  0.00  0.00    +0.197 C 
BRANCH  16  17
ATOM     17  C   UNL     1       7.961  -1.216  25.364  0.00  0.00    +0.326 C 
ATOM     18  O   UNL     1       8.829  -1.724  26.058  0.00  0.00    -0.249 OA
BRANCH  17  19
ATOM     19  O   UNL     1       6.751  -0.879  25.886  0.00  0.00    -0.479 OA
ATOM     20  H   UNL     1       6.248  -1.623  26.288  0.00  0.00    +0.295 HD
ENDBRANCH  17  19
ENDBRANCH  16  17
BRANCH  16  21
ATOM     21  C   UNL     1       6.898  -1.021  23.067  0.00  0.00    +0.069 C 
BRANCH  21  22
ATOM     22  C   UNL     1       6.570  -2.476  22.794  0.00  0.00    -0.045 A 
ATOM     23  C   UNL     1       5.291  -2.959  23.107  0.00  0.00    +0.007 A 
ATOM     24  C   UNL     1       4.991  -4.317  22.989  0.00  0.00    +0.045 A 
ATOM     25  C   UNL     1       5.966  -5.202  22.551  0.00  0.00    +0.117 A 
ATOM     26  C   UNL     1       7.233  -4.745  22.205  0.00  0.00    +0.045 A 
ATOM     27  C   UNL     1       7.535  -3.382  22.324  0.00  0.00    +0.007 A 
BRANCH  25  28
ATOM     28  O   UNL     1       5.637  -6.524  22.486  0.00  0.00    -0.507 OA
ATOM     29  H   UNL     1       5.252  -6.712  21.615  0.00  0.00    +0.292 HD
ENDBRANCH  25  28
ENDBRANCH  21  22
ENDBRANCH  16  21
ENDBRANCH   1  16
TORSDOF 8
ENDMDL
MODEL 9
REMARK VINA RESULT:      -6.6      2.639      6.969
REMARK  Name = 
REMARK  8 active torsions:
REMARK  status: ('A' for Active; 'I' for Inactive)
REMARK    1  A    between atoms: C_2  and  C_3
REMARK    2  A    between atoms: C_2  and  N_11
REMARK    3  A    between atoms: C_2  and  C_25
REMARK    4  A    between atoms: C_3  and  C_4
REMARK    5  A    between atoms: C_7  and  O_8
REMARK    6  A    between atoms: C_17  and  C_20
REMARK    7  A    between atoms: C_20  and  O_21
REMARK    8  A    between atoms: C_25  and  O_26
REMARK                            x       y       z     vdW  Elec       q    Type
REMARK                         _______ _______ _______ _____ _____    ______ ____
ROOT
ATOM      1  N   UNL     1       6.967  -4.864  23.667  0.00  0.00    -0.220 N 
ATOM      2  C   UNL     1       5.701  -4.873  24.167  0.00  0.00    +0.255 C 
ATOM      3  O   UNL     1       4.687  -4.495  23.612  0.00  0.00    -0.270 OA
ATOM      4  C   UNL     1       5.792  -5.262  25.561  0.00  0.00    +0.050 A 
ATOM      5  C   UNL     1       4.775  -5.529  26.455  0.00  0.00    +0.028 A 
ATOM      6  C   UNL     1       5.156  -5.880  27.752  0.00  0.00    +0.060 A 
ATOM      7  C   UNL     1       6.527  -5.879  28.121  0.00  0.00    +0.016 A 
ATOM      8  C   UNL     1       7.534  -5.588  27.183  0.00  0.00    +0.014 A 
ATOM      9  C   UNL     1       7.135  -5.307  25.893  0.00  0.00    +0.049 A 
ATOM     10  C   UNL     1       7.891  -4.994  24.672  0.00  0.00    +0.255 C 
ATOM     11  O   UNL     1       9.098  -4.862  24.635  0.00  0.00    -0.270 OA
ENDROOT
BRANCH   6  12
ATOM     12  C   UNL     1       4.141  -6.213  28.781  0.00  0.00    +0.337 C 
ATOM     13  O   UNL     1       3.420  -5.367  29.276  0.00  0.00    -0.245 OA
BRANCH  12  14
ATOM     14  O   UNL     1       4.108  -7.512  29.137  0.00  0.00    -0.477 OA
ATOM     15  H   UNL     1       3.642  -8.122  28.538  0.00  0.00    +0.295 HD
ENDBRANCH  12  14
ENDBRANCH   6  12
BRANCH   1  16
ATOM     16  C   UNL     1       7.222  -4.518  22.271  0.00  0.00    +0.197 C 
BRANCH  16  17
ATOM     17  C   UNL     1       6.389  -5.425  21.360  0.00  0.00    +0.326 C 
ATOM     18  O   UNL     1       5.952  -5.101  20.266  0.00  0.00    -0.249 OA
BRANCH  17  19
ATOM     19  O   UNL     1       6.269  -6.701  21.815  0.00  0.00    -0.479 OA
ATOM     20  H   UNL     1       5.653  -6.818  22.573  0.00  0.00    +0.295 HD
ENDBRANCH  17  19
ENDBRANCH  16  17
BRANCH  16  21
ATOM     21  C   UNL     1       7.048  -3.038  21.919  0.00  0.00    +0.069 C 
BRANCH  21  22
ATOM     22  C   UNL     1       7.788  -2.061  22.812  0.00  0.00    -0.045 A 
ATOM     23  C   UNL     1       9.181  -1.951  22.698  0.00  0.00    +0.007 A 
ATOM     24  C   UNL     1       9.911  -1.159  23.586  0.00  0.00    +0.045 A 
ATOM     25  C   UNL     1       9.252  -0.467  24.592  0.00  0.00    +0.117 A 
ATOM     26  C   UNL     1       7.868  -0.535  24.709  0.00  0.00    +0.045 A 
ATOM     27  C   UNL     1       7.135  -1.330  23.819  0.00  0.00    +0.007 A 
BRANCH  25  28
ATOM     28  O   UNL     1      10.011   0.264  25.458  0.00  0.00    -0.507 OA
ATOM     29  H   UNL     1      10.949   0.137  25.241  0.00  0.00    +0.292 HD
ENDBRANCH  25  28
ENDBRANCH  21  22
ENDBRANCH  16  21
ENDBRANCH   1  16
TORSDOF 8
ENDMDL
