MODEL 1
REMARK VINA RESULT:      -6.6      0.000      0.000
REMARK  Name = 
REMARK  10 active torsions:
REMARK  status: ('A' for Active; 'I' for Inactive)
REMARK    1  A    between atoms: C_1  and  C_2
REMARK    2  A    between atoms: C_2  and  C_3
REMARK    3  A    between atoms: C_8  and  N_9
REMARK    4  A    between atoms: C_10  and  C_11
REMARK    5  A    between atoms: C_12  and  C_13
REMARK    6  A    between atoms: C_13  and  C_14
REMARK    7  A    between atoms: C_16  and  O_17
REMARK    8  A    between atoms: O_17  and  C_18
REMARK    9  A    between atoms: C_21  and  O_22
REMARK   10  A    between atoms: O_22  and  C_23
REMARK                            x       y       z     vdW  Elec       q    Type
REMARK                         _______ _______ _______ _____ _____    ______ ____
ROOT
ATOM      1  C   UNL     1       5.727  -5.497  23.966  0.00  0.00    +0.063 A 
ATOM      2  C   UNL     1       6.787  -5.174  24.808  0.00  0.00    +0.086 A 
ATOM      3  C   UNL     1       6.702  -5.750  26.077  0.00  0.00    +0.137 A 
ATOM      4  N   UNL     1       5.687  -6.533  26.486  0.00  0.00    -0.199 NA
ATOM      5  C   UNL     1       4.705  -6.750  25.616  0.00  0.00    +0.215 A 
ATOM      6  N   UNL     1       3.637  -7.529  26.008  0.00  0.00    -0.327 N 
ATOM      7  H   UNL     1       3.916  -8.159  26.745  0.00  0.00    +0.145 HD
ATOM      8  H   UNL     1       3.183  -7.926  25.196  0.00  0.00    +0.145 HD
ATOM      9  N   UNL     1       4.691  -6.283  24.374  0.00  0.00    -0.218 NA
ENDROOT
BRANCH   3  10
ATOM     10  N   UNL     1       7.721  -5.597  27.028  0.00  0.00    -0.342 N 
ATOM     11  H   UNL     1       7.354  -5.294  27.923  0.00  0.00    +0.144 HD
ATOM     12  H   UNL     1       8.204  -6.490  27.088  0.00  0.00    +0.144 HD
ENDBRANCH   3  10
BRANCH   1  14
ATOM     13  C   UNL     1       6.394  -5.971  21.587  0.00  0.00    +0.010 C 
ATOM     14  C   UNL     1       5.584  -5.079  22.526  0.00  0.00    +0.053 C 
ENDBRANCH   1  14
BRANCH   2  15
ATOM     15  C   UNL     1       7.897  -4.304  24.469  0.00  0.00    -0.061 C 
ATOM     16  C   UNL     1       8.882  -3.501  24.175  0.00  0.00    -0.092 C 
BRANCH  16  17
ATOM     17  C   UNL     1      10.030  -2.565  23.832  0.00  0.00    +0.128 C 
BRANCH  17  18
ATOM     18  C   UNL     1       9.691  -1.098  24.141  0.00  0.00    +0.009 A 
ATOM     19  C   UNL     1       8.999  -0.612  25.269  0.00  0.00    +0.124 A 
ATOM     20  C   UNL     1       8.910   0.779  25.490  0.00  0.00    +0.049 A 
ATOM     21  C   UNL     1       9.437   1.699  24.592  0.00  0.00    +0.049 A 
ATOM     22  C   UNL     1      10.035   1.255  23.428  0.00  0.00    +0.121 A 
ATOM     23  C   UNL     1      10.166  -0.127  23.209  0.00  0.00    +0.053 A 
BRANCH  19  24
ATOM     24  O   UNL     1       8.383  -1.261  26.298  0.00  0.00    -0.495 OA
ATOM     25  C   UNL     1       6.994  -1.149  26.509  0.00  0.00    +0.277 C 
ENDBRANCH  19  24
BRANCH  22  26
ATOM     26  O   UNL     1      10.468   2.265  22.618  0.00  0.00    -0.495 OA
ATOM     27  C   UNL     1      10.984   3.426  23.246  0.00  0.00    +0.277 C 
ENDBRANCH  22  26
ENDBRANCH  17  18
ENDBRANCH  16  17
ENDBRANCH   2  15
TORSDOF 7
ENDMDL
MODEL 2
REMARK VINA RESULT:      -6.5      2.142      3.037
REMARK  Name = 
REMARK  10 active torsions:
REMARK  status: ('A' for Active; 'I' for Inactive)
REMARK    1  A    between atoms: C_1  and  C_2
REMARK    2  A    between atoms: C_2  and  C_3
REMARK    3  A    between atoms: C_8  and  N_9
REMARK    4  A    between atoms: C_10  and  C_11
REMARK    5  A    between atoms: C_12  and  C_13
REMARK    6  A    between atoms: C_13  and  C_14
REMARK    7  A    between atoms: C_16  and  O_17
REMARK    8  A    between atoms: O_17  and  C_18
REMARK    9  A    between atoms: C_21  and  O_22
REMARK   10  A    between atoms: O_22  and  C_23
REMARK                            x       y       z     vdW  Elec       q    Type
REMARK                         _______ _______ _______ _____ _____    ______ ____
ROOT
ATOM      1  C   UNL     1       6.365  -3.539  25.511  0.00  0.00    +0.063 A 
ATOM      2  C   UNL     1       7.717  -3.435  25.826  0.00  0.00    +0.086 A 
ATOM      3  C   UNL     1       8.242  -4.566  26.454  0.00  0.00    +0.137 A 
ATOM      4  N   UNL     1       7.526  -5.663  26.761  0.00  0.00    -0.199 NA
ATOM      5  C   UNL     1       6.233  -5.645  26.449  0.00  0.00    +0.215 A 
ATOM      6  N   UNL     1       5.463  -6.744  26.768  0.00  0.00    -0.327 N 
ATOM      7  H   UNL     1       6.040  -7.569  26.828  0.00  0.00    +0.145 HD
ATOM      8  H   UNL     1       4.648  -6.780  26.169  0.00  0.00    +0.145 HD
ATOM      9  N   UNL     1       5.630  -4.643  25.824  0.00  0.00    -0.218 NA
ENDROOT
BRANCH   3  10
ATOM     10  N   UNL     1       9.604  -4.669  26.774  0.00  0.00    -0.342 N 
ATOM     11  H   UNL     1       9.742  -5.049  27.703  0.00  0.00    +0.144 HD
ATOM     12  H   UNL     1      10.033  -5.243  26.051  0.00  0.00    +0.144 HD
ENDBRANCH   3  10
BRANCH   1  14
ATOM     13  C   UNL     1       5.684  -2.648  23.259  0.00  0.00    +0.010 C 
ATOM     14  C   UNL     1       5.550  -2.509  24.774  0.00  0.00    +0.053 C 
ENDBRANCH   1  14
BRANCH   2  15
ATOM     15  C   UNL     1       8.555  -2.278  25.577  0.00  0.00    -0.061 C 
ATOM     16  C   UNL     1       9.287  -1.224  25.347  0.00  0.00    -0.092 C 
BRANCH  16  17
ATOM     17  C   UNL     1      10.140   0.006  25.080  0.00  0.00    +0.128 C 
BRANCH  17  18
ATOM     18  C   UNL     1       9.579   0.860  23.931  0.00  0.00    +0.009 A 
ATOM     19  C   UNL     1       9.512   0.502  22.570  0.00  0.00    +0.124 A 
ATOM     20  C   UNL     1       8.819   1.332  21.662  0.00  0.00    +0.049 A 
ATOM     21  C   UNL     1       8.244   2.532  22.057  0.00  0.00    +0.049 A 
ATOM     22  C   UNL     1       8.377   2.958  23.365  0.00  0.00    +0.121 A 
ATOM     23  C   UNL     1       9.032   2.129  24.292  0.00  0.00    +0.053 A 
BRANCH  19  24
ATOM     24  O   UNL     1       9.980  -0.589  21.899  0.00  0.00    -0.495 OA
ATOM     25  C   UNL     1       9.226  -1.776  21.812  0.00  0.00    +0.277 C 
ENDBRANCH  19  24
BRANCH  22  26
ATOM     26  O   UNL     1       7.803   4.173  23.605  0.00  0.00    -0.495 OA
ATOM     27  C   UNL     1       7.365   4.917  22.481  0.00  0.00    +0.277 C 
ENDBRANCH  22  26
ENDBRANCH  17  18
ENDBRANCH  16  17
ENDBRANCH   2  15
TORSDOF 7
ENDMDL
MODEL 3
REMARK VINA RESULT:      -6.5      2.234      3.182
REMARK  Name = 
REMARK  10 active torsions:
REMARK  status: ('A' for Active; 'I' for Inactive)
REMARK    1  A    between atoms: C_1  and  C_2
REMARK    2  A    between atoms: C_2  and  C_3
REMARK    3  A    between atoms: C_8  and  N_9
REMARK    4  A    between atoms: C_10  and  C_11
REMARK    5  A    between atoms: C_12  and  C_13
REMARK    6  A    between atoms: C_13  and  C_14
REMARK    7  A    between atoms: C_16  and  O_17
REMARK    8  A    between atoms: O_17  and  C_18
REMARK    9  A    between atoms: C_21  and  O_22
REMARK   10  A    between atoms: O_22  and  C_23
REMARK                            x       y       z     vdW  Elec       q    Type
REMARK                         _______ _______ _______ _____ _____    ______ ____
ROOT
ATOM      1  C   UNL     1       7.216  -4.346  23.439  0.00  0.00    +0.063 A 
ATOM      2  C   UNL     1       7.799  -3.187  23.944  0.00  0.00    +0.086 A 
ATOM      3  C   UNL     1       7.849  -3.137  25.339  0.00  0.00    +0.137 A 
ATOM      4  N   UNL     1       7.365  -4.096  26.148  0.00  0.00    -0.199 NA
ATOM      5  C   UNL     1       6.794  -5.146  25.564  0.00  0.00    +0.215 A 
ATOM      6  N   UNL     1       6.267  -6.139  26.362  0.00  0.00    -0.327 N 
ATOM      7  H   UNL     1       6.727  -6.147  27.260  0.00  0.00    +0.145 HD
ATOM      8  H   UNL     1       6.223  -7.009  25.847  0.00  0.00    +0.145 HD
ATOM      9  N   UNL     1       6.717  -5.319  24.251  0.00  0.00    -0.218 NA
ENDROOT
BRANCH   3  10
ATOM     10  N   UNL     1       8.471  -2.081  26.020  0.00  0.00    -0.342 N 
ATOM     11  H   UNL     1       9.420  -1.936  25.696  0.00  0.00    +0.144 HD
ATOM     12  H   UNL     1       7.886  -1.260  25.889  0.00  0.00    +0.144 HD
ENDBRANCH   3  10
BRANCH   1  14
ATOM     13  C   UNL     1       6.598  -6.138  21.786  0.00  0.00    +0.010 C 
ATOM     14  C   UNL     1       7.088  -4.705  21.982  0.00  0.00    +0.053 C 
ENDBRANCH   1  14
BRANCH   2  15
ATOM     15  C   UNL     1       8.305  -2.082  23.152  0.00  0.00    -0.061 C 
ATOM     16  C   UNL     1       8.738  -1.089  22.425  0.00  0.00    -0.092 C 
BRANCH  16  17
ATOM     17  C   UNL     1       9.241   0.068  21.578  0.00  0.00    +0.128 C 
BRANCH  17  18
ATOM     18  C   UNL     1       9.101   1.418  22.301  0.00  0.00    +0.009 A 
ATOM     19  C   UNL     1       9.941   1.923  23.313  0.00  0.00    +0.124 A 
ATOM     20  C   UNL     1       9.774   3.251  23.762  0.00  0.00    +0.049 A 
ATOM     21  C   UNL     1       8.761   4.067  23.277  0.00  0.00    +0.049 A 
ATOM     22  C   UNL     1       7.861   3.568  22.355  0.00  0.00    +0.121 A 
ATOM     23  C   UNL     1       8.033   2.261  21.869  0.00  0.00    +0.053 A 
BRANCH  19  24
ATOM     24  O   UNL     1      10.995   1.364  23.975  0.00  0.00    -0.495 OA
ATOM     25  C   UNL     1      10.801   0.385  24.969  0.00  0.00    +0.277 C 
ENDBRANCH  19  24
BRANCH  22  26
ATOM     26  O   UNL     1       6.893   4.461  21.998  0.00  0.00    -0.495 OA
ATOM     27  C   UNL     1       7.213   5.839  22.095  0.00  0.00    +0.277 C 
ENDBRANCH  22  26
ENDBRANCH  17  18
ENDBRANCH  16  17
ENDBRANCH   2  15
TORSDOF 7
ENDMDL
MODEL 4
REMARK VINA RESULT:      -6.5      2.135      2.890
REMARK  Name = 
REMARK  10 active torsions:
REMARK  status: ('A' for Active; 'I' for Inactive)
REMARK    1  A    between atoms: C_1  and  C_2
REMARK    2  A    between atoms: C_2  and  C_3
REMARK    3  A    between atoms: C_8  and  N_9
REMARK    4  A    between atoms: C_10  and  C_11
REMARK    5  A    between atoms: C_12  and  C_13
REMARK    6  A    between atoms: C_13  and  C_14
REMARK    7  A    between atoms: C_16  and  O_17
REMARK    8  A    between atoms: O_17  and  C_18
REMARK    9  A    between atoms: C_21  and  O_22
REMARK   10  A    between atoms: O_22  and  C_23
REMARK                            x       y       z     vdW  Elec       q    Type
REMARK                         _______ _______ _______ _____ _____    ______ ____
ROOT
ATOM      1  C   UNL     1       7.288  -4.323  23.484  0.00  0.00    +0.063 A 
ATOM      2  C   UNL     1       7.914  -3.162  23.930  0.00  0.00    +0.086 A 
ATOM      3  C   UNL     1       8.043  -3.083  25.318  0.00  0.00    +0.137 A 
ATOM      4  N   UNL     1       7.591  -4.017  26.175  0.00  0.00    -0.199 NA
ATOM      5  C   UNL     1       6.974  -5.071  25.646  0.00  0.00    +0.215 A 
ATOM      6  N   UNL     1       6.478  -6.038  26.495  0.00  0.00    -0.327 N 
ATOM      7  H   UNL     1       6.987  -6.033  27.366  0.00  0.00    +0.145 HD
ATOM      8  H   UNL     1       6.393  -6.918  26.003  0.00  0.00    +0.145 HD
ATOM      9  N   UNL     1       6.821  -5.270  24.344  0.00  0.00    -0.218 NA
ENDROOT
BRANCH   3  10
ATOM     10  N   UNL     1       8.717  -2.022  25.940  0.00  0.00    -0.342 N 
ATOM     11  H   UNL     1       8.703  -2.111  26.949  0.00  0.00    +0.144 HD
ATOM     12  H   UNL     1       9.662  -2.013  25.563  0.00  0.00    +0.144 HD
ENDBRANCH   3  10
BRANCH   1  14
ATOM     13  C   UNL     1       6.833  -6.211  21.886  0.00  0.00    +0.010 C 
ATOM     14  C   UNL     1       7.073  -4.711  22.045  0.00  0.00    +0.053 C 
ENDBRANCH   1  14
BRANCH   2  15
ATOM     15  C   UNL     1       8.391  -2.083  23.086  0.00  0.00    -0.061 C 
ATOM     16  C   UNL     1       8.824  -1.098  22.349  0.00  0.00    -0.092 C 
BRANCH  16  17
ATOM     17  C   UNL     1       9.330   0.049  21.490  0.00  0.00    +0.128 C 
BRANCH  17  18
ATOM     18  C   UNL     1       9.294   1.392  22.239  0.00  0.00    +0.009 A 
ATOM     19  C   UNL     1       8.171   1.988  22.847  0.00  0.00    +0.124 A 
ATOM     20  C   UNL     1       8.336   3.145  23.638  0.00  0.00    +0.049 A 
ATOM     21  C   UNL     1       9.572   3.759  23.792  0.00  0.00    +0.049 A 
ATOM     22  C   UNL     1      10.675   3.254  23.128  0.00  0.00    +0.121 A 
ATOM     23  C   UNL     1      10.538   2.081  22.366  0.00  0.00    +0.053 A 
BRANCH  19  24
ATOM     24  O   UNL     1       6.856   1.626  22.867  0.00  0.00    -0.495 OA
ATOM     25  C   UNL     1       6.261   1.086  24.024  0.00  0.00    +0.277 C 
ENDBRANCH  19  24
BRANCH  22  26
ATOM     26  O   UNL     1      11.813   3.978  23.332  0.00  0.00    -0.495 OA
ATOM     27  C   UNL     1      11.665   5.364  23.589  0.00  0.00    +0.277 C 
ENDBRANCH  22  26
ENDBRANCH  17  18
ENDBRANCH  16  17
ENDBRANCH   2  15
TORSDOF 7
ENDMDL
MODEL 5
REMARK VINA RESULT:      -6.4      4.602      7.700
REMARK  Name = 
REMARK  10 active torsions:
REMARK  status: ('A' for Active; 'I' for Inactive)
REMARK    1  A    between atoms: C_1  and  C_2
REMARK    2  A    between atoms: C_2  and  C_3
REMARK    3  A    between atoms: C_8  and  N_9
REMARK    4  A    between atoms: C_10  and  C_11
REMARK    5  A    between atoms: C_12  and  C_13
REMARK    6  A    between atoms: C_13  and  C_14
REMARK    7  A    between atoms: C_16  and  O_17
REMARK    8  A    between atoms: O_17  and  C_18
REMARK    9  A    between atoms: C_21  and  O_22
REMARK   10  A    between atoms: O_22  and  C_23
REMARK                            x       y       z     vdW  Elec       q    Type
REMARK                         _______ _______ _______ _____ _____    ______ ____
ROOT
ATOM      1  C   UNL     1       9.297   1.124  22.619  0.00  0.00    +0.063 A 
ATOM      2  C   UNL     1       8.383   1.106  23.668  0.00  0.00    +0.086 A 
ATOM      3  C   UNL     1       8.484   2.200  24.529  0.00  0.00    +0.137 A 
ATOM      4  N   UNL     1       9.388   3.187  24.396  0.00  0.00    -0.199 NA
ATOM      5  C   UNL     1      10.241   3.090  23.379  0.00  0.00    +0.215 A 
ATOM      6  N   UNL     1      11.196   4.072  23.224  0.00  0.00    -0.327 N 
ATOM      7  H   UNL     1      10.883   4.933  23.646  0.00  0.00    +0.145 HD
ATOM      8  H   UNL     1      11.506   4.103  22.261  0.00  0.00    +0.145 HD
ATOM      9  N   UNL     1      10.221   2.115  22.480  0.00  0.00    -0.218 NA
ENDROOT
BRANCH   3  10
ATOM     10  N   UNL     1       7.592   2.387  25.595  0.00  0.00    -0.342 N 
ATOM     11  H   UNL     1       7.071   3.250  25.499  0.00  0.00    +0.144 HD
ATOM     12  H   UNL     1       6.989   1.569  25.622  0.00  0.00    +0.144 HD
ENDBRANCH   3  10
BRANCH   1  14
ATOM     13  C   UNL     1      10.066  -1.174  21.944  0.00  0.00    +0.010 C 
ATOM     14  C   UNL     1       9.379   0.116  21.503  0.00  0.00    +0.053 C 
ENDBRANCH   1  14
BRANCH   2  15
ATOM     15  C   UNL     1       7.405   0.063  23.917  0.00  0.00    -0.061 C 
ATOM     16  C   UNL     1       6.546  -0.890  24.146  0.00  0.00    -0.092 C 
BRANCH  16  17
ATOM     17  C   UNL     1       5.545  -2.002  24.414  0.00  0.00    +0.128 C 
BRANCH  17  18
ATOM     18  C   UNL     1       6.083  -3.379  23.991  0.00  0.00    +0.009 A 
ATOM     19  C   UNL     1       5.409  -4.346  23.217  0.00  0.00    +0.124 A 
ATOM     20  C   UNL     1       6.100  -5.494  22.776  0.00  0.00    +0.049 A 
ATOM     21  C   UNL     1       7.421  -5.737  23.131  0.00  0.00    +0.049 A 
ATOM     22  C   UNL     1       8.077  -4.857  23.970  0.00  0.00    +0.121 A 
ATOM     23  C   UNL     1       7.418  -3.689  24.390  0.00  0.00    +0.053 A 
BRANCH  19  24
ATOM     24  O   UNL     1       4.135  -4.385  22.730  0.00  0.00    -0.495 OA
ATOM     25  C   UNL     1       3.069  -4.881  23.506  0.00  0.00    +0.277 C 
ENDBRANCH  19  24
BRANCH  22  26
ATOM     26  O   UNL     1       9.352  -5.239  24.273  0.00  0.00    -0.495 OA
ATOM     27  C   UNL     1       9.789  -5.043  25.607  0.00  0.00    +0.277 C 
ENDBRANCH  22  26
ENDBRANCH  17  18
ENDBRANCH  16  17
ENDBRANCH   2  15
TORSDOF 7
ENDMDL
MODEL 6
REMARK VINA RESULT:      -6.4      4.433      7.832
REMARK  Name = 
REMARK  10 active torsions:
REMARK  status: ('A' for Active; 'I' for Inactive)
REMARK    1  A    between atoms: C_1  and  C_2
REMARK    2  A    between atoms: C_2  and  C_3
REMARK    3  A    between atoms: C_8  and  N_9
REMARK    4  A    between atoms: C_10  and  C_11
REMARK    5  A    between atoms: C_12  and  C_13
REMARK    6  A    between atoms: C_13  and  C_14
REMARK    7  A    between atoms: C_16  and  O_17
REMARK    8  A    between atoms: O_17  and  C_18
REMARK    9  A    between atoms: C_21  and  O_22
REMARK   10  A    between atoms: O_22  and  C_23
REMARK                            x       y       z     vdW  Elec       q    Type
REMARK                         _______ _______ _______ _____ _____    ______ ____
ROOT
ATOM      1  C   UNL     1       9.371  -0.241  24.693  0.00  0.00    +0.063 A 
ATOM      2  C   UNL     1       9.206  -0.939  23.500  0.00  0.00    +0.086 A 
ATOM      3  C   UNL     1       9.628  -0.240  22.368  0.00  0.00    +0.137 A 
ATOM      4  N   UNL     1      10.132   1.007  22.393  0.00  0.00    -0.199 NA
ATOM      5  C   UNL     1      10.214   1.600  23.581  0.00  0.00    +0.215 A 
ATOM      6  N   UNL     1      10.705   2.887  23.643  0.00  0.00    -0.327 N 
ATOM      7  H   UNL     1      11.307   3.070  22.855  0.00  0.00    +0.145 HD
ATOM      8  H   UNL     1      11.069   3.074  24.569  0.00  0.00    +0.145 HD
ATOM      9  N   UNL     1       9.874   1.025  24.727  0.00  0.00    -0.218 NA
ENDROOT
BRANCH   3  10
ATOM     10  N   UNL     1       9.610  -0.819  21.091  0.00  0.00    -0.342 N 
ATOM     11  H   UNL     1       8.664  -0.929  20.745  0.00  0.00    +0.144 HD
ATOM     12  H   UNL     1      10.177  -0.225  20.490  0.00  0.00    +0.144 HD
ENDBRANCH   3  10
BRANCH   1  14
ATOM     13  C   UNL     1       7.635  -0.461  26.500  0.00  0.00    +0.010 C 
ATOM     14  C   UNL     1       9.069  -0.765  26.071  0.00  0.00    +0.053 C 
ENDBRANCH   1  14
BRANCH   2  15
ATOM     15  C   UNL     1       8.631  -2.265  23.372  0.00  0.00    -0.061 C 
ATOM     16  C   UNL     1       8.104  -3.450  23.233  0.00  0.00    -0.092 C 
BRANCH  16  17
ATOM     17  C   UNL     1       7.489  -4.830  23.071  0.00  0.00    +0.128 C 
BRANCH  17  18
ATOM     18  C   UNL     1       6.614  -5.219  24.274  0.00  0.00    +0.009 A 
ATOM     19  C   UNL     1       5.257  -5.597  24.241  0.00  0.00    +0.124 A 
ATOM     20  C   UNL     1       4.638  -6.083  25.412  0.00  0.00    +0.049 A 
ATOM     21  C   UNL     1       5.311  -6.147  26.625  0.00  0.00    +0.049 A 
ATOM     22  C   UNL     1       6.613  -5.693  26.711  0.00  0.00    +0.121 A 
ATOM     23  C   UNL     1       7.259  -5.240  25.547  0.00  0.00    +0.053 A 
BRANCH  19  24
ATOM     24  O   UNL     1       4.353  -5.632  23.219  0.00  0.00    -0.495 OA
ATOM     25  C   UNL     1       2.972  -5.488  23.456  0.00  0.00    +0.277 C 
ENDBRANCH  19  24
BRANCH  22  26
ATOM     26  O   UNL     1       7.138  -5.773  27.968  0.00  0.00    -0.495 OA
ATOM     27  C   UNL     1       6.314  -6.324  28.982  0.00  0.00    +0.277 C 
ENDBRANCH  22  26
ENDBRANCH  17  18
ENDBRANCH  16  17
ENDBRANCH   2  15
TORSDOF 7
ENDMDL
MODEL 7
REMARK VINA RESULT:      -6.3      4.457      7.912
REMARK  Name = 
REMARK  10 active torsions:
REMARK  status: ('A' for Active; 'I' for Inactive)
REMARK    1  A    between atoms: C_1  and  C_2
REMARK    2  A    between atoms: C_2  and  C_3
REMARK    3  A    between atoms: C_8  and  N_9
REMARK    4  A    between atoms: C_10  and  C_11
REMARK    5  A    between atoms: C_12  and  C_13
REMARK    6  A    between atoms: C_13  and  C_14
REMARK    7  A    between atoms: C_16  and  O_17
REMARK    8  A    between atoms: O_17  and  C_18
REMARK    9  A    between atoms: C_21  and  O_22
REMARK   10  A    between atoms: O_22  and  C_23
REMARK                            x       y       z     vdW  Elec       q    Type
REMARK                         _______ _______ _______ _____ _____    ______ ____
ROOT
ATOM      1  C   UNL     1       9.513   0.846  22.871  0.00  0.00    +0.063 A 
ATOM      2  C   UNL     1       8.731   0.787  24.020  0.00  0.00    +0.086 A 
ATOM      3  C   UNL     1       8.748   1.958  24.780  0.00  0.00    +0.137 A 
ATOM      4  N   UNL     1       9.464   3.053  24.468  0.00  0.00    -0.199 NA
ATOM      5  C   UNL     1      10.208   2.992  23.366  0.00  0.00    +0.215 A 
ATOM      6  N   UNL     1      10.972   4.088  23.026  0.00  0.00    -0.327 N 
ATOM      7  H   UNL     1      10.574   4.928  23.418  0.00  0.00    +0.145 HD
ATOM      8  H   UNL     1      11.169   4.077  22.033  0.00  0.00    +0.145 HD
ATOM      9  N   UNL     1      10.248   1.948  22.550  0.00  0.00    -0.218 NA
ENDROOT
BRANCH   3  10
ATOM     10  N   UNL     1       7.957   2.106  25.929  0.00  0.00    -0.342 N 
ATOM     11  H   UNL     1       7.344   1.311  26.066  0.00  0.00    +0.144 HD
ATOM     12  H   UNL     1       8.594   2.246  26.709  0.00  0.00    +0.144 HD
ENDBRANCH   3  10
BRANCH   1  14
ATOM     13  C   UNL     1      10.375  -1.461  22.360  0.00  0.00    +0.010 C 
ATOM     14  C   UNL     1       9.635  -0.235  21.830  0.00  0.00    +0.053 C 
ENDBRANCH   1  14
BRANCH   2  15
ATOM     15  C   UNL     1       7.964  -0.363  24.461  0.00  0.00    -0.061 C 
ATOM     16  C   UNL     1       7.297  -1.409  24.862  0.00  0.00    -0.092 C 
BRANCH  16  17
ATOM     17  C   UNL     1       6.520  -2.628  25.331  0.00  0.00    +0.128 C 
BRANCH  17  18
ATOM     18  C   UNL     1       6.525  -3.755  24.285  0.00  0.00    +0.009 A 
ATOM     19  C   UNL     1       7.650  -4.457  23.808  0.00  0.00    +0.124 A 
ATOM     20  C   UNL     1       7.471  -5.576  22.967  0.00  0.00    +0.049 A 
ATOM     21  C   UNL     1       6.213  -5.979  22.540  0.00  0.00    +0.049 A 
ATOM     22  C   UNL     1       5.098  -5.251  22.910  0.00  0.00    +0.121 A 
ATOM     23  C   UNL     1       5.252  -4.156  23.778  0.00  0.00    +0.053 A 
BRANCH  19  24
ATOM     24  O   UNL     1       8.984  -4.293  24.044  0.00  0.00    -0.495 OA
ATOM     25  C   UNL     1       9.585  -4.776  25.222  0.00  0.00    +0.277 C 
ENDBRANCH  19  24
BRANCH  22  26
ATOM     26  O   UNL     1       3.933  -5.730  22.385  0.00  0.00    -0.495 OA
ATOM     27  C   UNL     1       2.883  -6.022  23.292  0.00  0.00    +0.277 C 
ENDBRANCH  22  26
ENDBRANCH  17  18
ENDBRANCH  16  17
ENDBRANCH   2  15
TORSDOF 7
ENDMDL
MODEL 8
REMARK VINA RESULT:      -6.3      4.186      7.408
REMARK  Name = 
REMARK  10 active torsions:
REMARK  status: ('A' for Active; 'I' for Inactive)
REMARK    1  A    between atoms: C_1  and  C_2
REMARK    2  A    between atoms: C_2  and  C_3
REMARK    3  A    between atoms: C_8  and  N_9
REMARK    4  A    between atoms: C_10  and  C_11
REMARK    5  A    between atoms: C_12  and  C_13
REMARK    6  A    between atoms: C_13  and  C_14
REMARK    7  A    between atoms: C_16  and  O_17
REMARK    8  A    between atoms: O_17  and  C_18
REMARK    9  A    between atoms: C_21  and  O_22
REMARK   10  A    between atoms: O_22  and  C_23
REMARK                            x       y       z     vdW  Elec       q    Type
REMARK                         _______ _______ _______ _____ _____    ______ ____
ROOT
ATOM      1  C   UNL     1       9.879  -0.010  23.411  0.00  0.00    +0.063 A 
ATOM      2  C   UNL     1       9.148  -0.107  24.592  0.00  0.00    +0.086 A 
ATOM      3  C   UNL     1       8.847   1.124  25.178  0.00  0.00    +0.137 A 
ATOM      4  N   UNL     1       9.233   2.314  24.681  0.00  0.00    -0.199 NA
ATOM      5  C   UNL     1       9.959   2.293  23.566  0.00  0.00    +0.215 A 
ATOM      6  N   UNL     1      10.391   3.492  23.040  0.00  0.00    -0.327 N 
ATOM      7  H   UNL     1       9.779   4.241  23.327  0.00  0.00    +0.145 HD
ATOM      8  H   UNL     1      10.577   3.388  22.050  0.00  0.00    +0.145 HD
ATOM      9  N   UNL     1      10.280   1.189  22.904  0.00  0.00    -0.218 NA
ENDROOT
BRANCH   3  10
ATOM     10  N   UNL     1       8.052   1.222  26.329  0.00  0.00    -0.342 N 
ATOM     11  H   UNL     1       8.025   0.347  26.839  0.00  0.00    +0.144 HD
ATOM     12  H   UNL     1       8.430   1.985  26.884  0.00  0.00    +0.144 HD
ENDBRANCH   3  10
BRANCH   1  14
ATOM     13  C   UNL     1       9.112  -1.710  21.723  0.00  0.00    +0.010 C 
ATOM     14  C   UNL     1      10.287  -1.160  22.530  0.00  0.00    +0.053 C 
ENDBRANCH   1  14
BRANCH   2  15
ATOM     15  C   UNL     1       8.729  -1.343  25.226  0.00  0.00    -0.061 C 
ATOM     16  C   UNL     1       8.355  -2.442  25.818  0.00  0.00    -0.092 C 
BRANCH  16  17
ATOM     17  C   UNL     1       7.917  -3.723  26.510  0.00  0.00    +0.128 C 
BRANCH  17  18
ATOM     18  C   UNL     1       7.042  -4.602  25.601  0.00  0.00    +0.009 A 
ATOM     19  C   UNL     1       6.246  -5.695  25.999  0.00  0.00    +0.124 A 
ATOM     20  C   UNL     1       5.372  -6.298  25.069  0.00  0.00    +0.049 A 
ATOM     21  C   UNL     1       5.312  -5.886  23.744  0.00  0.00    +0.049 A 
ATOM     22  C   UNL     1       6.152  -4.881  23.301  0.00  0.00    +0.121 A 
ATOM     23  C   UNL     1       7.002  -4.243  24.220  0.00  0.00    +0.053 A 
BRANCH  19  24
ATOM     24  O   UNL     1       6.101  -6.316  27.205  0.00  0.00    -0.495 OA
ATOM     25  C   UNL     1       4.836  -6.718  27.675  0.00  0.00    +0.277 C 
ENDBRANCH  19  24
BRANCH  22  26
ATOM     26  O   UNL     1       6.019  -4.606  21.970  0.00  0.00    -0.495 OA
ATOM     27  C   UNL     1       6.210  -5.679  21.063  0.00  0.00    +0.277 C 
ENDBRANCH  22  26
ENDBRANCH  17  18
ENDBRANCH  16  17
ENDBRANCH   2  15
TORSDOF 7
ENDMDL
MODEL 9
REMARK VINA RESULT:      -6.2      4.337      7.617
REMARK  Name = 
REMARK  10 active torsions:
REMARK  status: ('A' for Active; 'I' for Inactive)
REMARK    1  A    between atoms: C_1  and  C_2
REMARK    2  A    between atoms: C_2  and  C_3
REMARK    3  A    between atoms: C_8  and  N_9
REMARK    4  A    between atoms: C_10  and  C_11
REMARK    5  A    between atoms: C_12  and  C_13
REMARK    6  A    between atoms: C_13  and  C_14
REMARK    7  A    between atoms: C_16  and  O_17
REMARK    8  A    between atoms: O_17  and  C_18
REMARK    9  A    between atoms: C_21  and  O_22
REMARK   10  A    between atoms: O_22  and  C_23
REMARK                            x       y       z     vdW  Elec       q    Type
REMARK                         _______ _______ _______ _____ _____    ______ ____
ROOT
ATOM      1  C   UNL     1       9.227   0.155  24.683  0.00  0.00    +0.063 A 
ATOM      2  C   UNL     1       9.363  -0.859  23.740  0.00  0.00    +0.086 A 
ATOM      3  C   UNL     1       9.774  -0.414  22.481  0.00  0.00    +0.137 A 
ATOM      4  N   UNL     1      10.003   0.875  22.172  0.00  0.00    -0.199 NA
ATOM      5  C   UNL     1       9.808   1.770  23.138  0.00  0.00    +0.215 A 
ATOM      6  N   UNL     1      10.012   3.103  22.852  0.00  0.00    -0.327 N 
ATOM      7  H   UNL     1      10.660   3.201  22.084  0.00  0.00    +0.145 HD
ATOM      8  H   UNL     1      10.209   3.613  23.703  0.00  0.00    +0.145 HD
ATOM      9  N   UNL     1       9.450   1.464  24.378  0.00  0.00    -0.218 NA
ENDROOT
BRANCH   3  10
ATOM     10  N   UNL     1      10.037  -1.305  21.431  0.00  0.00    -0.342 N 
ATOM     11  H   UNL     1      10.992  -1.643  21.459  0.00  0.00    +0.144 HD
ATOM     12  H   UNL     1       9.356  -2.056  21.504  0.00  0.00    +0.144 HD
ENDBRANCH   3  10
BRANCH   1  14
ATOM     13  C   UNL     1       7.355  -0.081  26.346  0.00  0.00    +0.010 C 
ATOM     14  C   UNL     1       8.866  -0.032  26.133  0.00  0.00    +0.053 C 
ENDBRANCH   1  14
BRANCH   2  15
ATOM     15  C   UNL     1       9.094  -2.266  23.968  0.00  0.00    -0.061 C 
ATOM     16  C   UNL     1       8.833  -3.524  24.190  0.00  0.00    -0.092 C 
BRANCH  16  17
ATOM     17  C   UNL     1       8.527  -4.991  24.449  0.00  0.00    +0.128 C 
BRANCH  17  18
ATOM     18  C   UNL     1       7.045  -5.222  24.785  0.00  0.00    +0.009 A 
ATOM     19  C   UNL     1       6.509  -5.564  26.043  0.00  0.00    +0.124 A 
ATOM     20  C   UNL     1       5.110  -5.582  26.225  0.00  0.00    +0.049 A 
ATOM     21  C   UNL     1       4.230  -5.329  25.180  0.00  0.00    +0.049 A 
ATOM     22  C   UNL     1       4.725  -5.088  23.912  0.00  0.00    +0.121 A 
ATOM     23  C   UNL     1       6.115  -5.029  23.719  0.00  0.00    +0.053 A 
BRANCH  19  24
ATOM     24  O   UNL     1       7.111  -5.865  27.229  0.00  0.00    -0.495 OA
ATOM     25  C   UNL     1       6.368  -5.973  28.421  0.00  0.00    +0.277 C 
ENDBRANCH  19  24
BRANCH  22  26
ATOM     26  O   UNL     1       3.752  -4.900  22.974  0.00  0.00    -0.495 OA
ATOM     27  C   UNL     1       2.414  -5.167  23.362  0.00  0.00    +0.277 C 
ENDBRANCH  22  26
ENDBRANCH  17  18
ENDBRANCH  16  17
ENDBRANCH   2  15
TORSDOF 7
ENDMDL
