MODEL 1
REMARK VINA RESULT:      -7.4      0.000      0.000
REMARK  Name = 
REMARK  6 active torsions:
REMARK  status: ('A' for Active; 'I' for Inactive)
REMARK    1  A    between atoms: O_1  and  C_2
REMARK    2  A    between atoms: C_2  and  C_3
REMARK    3  A    between atoms: C_6  and  C_7
REMARK    4  A    between atoms: C_6  and  C_9
REMARK    5  A    between atoms: N_11  and  C_12
REMARK    6  A    between atoms: C_15  and  C_18
REMARK                            x       y       z     vdW  Elec       q    Type
REMARK                         _______ _______ _______ _____ _____    ______ ____
ROOT
ATOM      1  C   UNL     1       8.383  -2.413  23.798  0.00  0.00    +0.262 C 
ATOM      2  N   UNL     1       9.264  -1.755  22.957  0.00  0.00    -0.281 N 
ATOM      3  H   UNL     1       9.590  -2.271  22.145  0.00  0.00    +0.155 HD
ATOM      4  O   UNL     1       7.806  -1.892  24.751  0.00  0.00    -0.269 OA
ENDROOT
BRANCH   2   5
ATOM      5  C   UNL     1       9.717  -0.422  23.103  0.00  0.00    +0.034 A 
ATOM      6  C   UNL     1       9.593   0.459  22.028  0.00  0.00    +0.024 A 
ATOM      7  C   UNL     1       9.969   1.811  22.160  0.00  0.00    +0.010 A 
ATOM      8  C   UNL     1      10.494   2.320  23.361  0.00  0.00    -0.018 A 
ATOM      9  C   UNL     1      10.662   1.400  24.407  0.00  0.00    +0.010 A 
ATOM     10  C   UNL     1      10.288   0.057  24.280  0.00  0.00    +0.024 A 
BRANCH   8  11
ATOM     11  C   UNL     1      10.833   3.758  23.543  0.00  0.00    -0.018 A 
ATOM     12  C   UNL     1       9.886   4.689  24.006  0.00  0.00    +0.008 A 
ATOM     13  C   UNL     1      10.219   6.034  24.218  0.00  0.00    +0.001 A 
ATOM     14  C   UNL     1      11.515   6.479  23.982  0.00  0.00    +0.000 A 
ATOM     15  C   UNL     1      12.474   5.584  23.526  0.00  0.00    +0.001 A 
ATOM     16  C   UNL     1      12.134   4.245  23.302  0.00  0.00    +0.008 A 
ENDBRANCH   8  11
ENDBRANCH   2   5
BRANCH   1  18
ATOM     17  C   UNL     1       7.292  -4.255  22.447  0.00  0.00    +0.119 C 
ATOM     18  C   UNL     1       8.070  -3.846  23.477  0.00  0.00    +0.151 C 
BRANCH  17  19
ATOM     19  C   UNL     1       7.085  -5.671  22.057  0.00  0.00    +0.056 C 
ATOM     20  C   UNL     1       6.073  -5.974  20.976  0.00  0.00    +0.012 C 
ATOM     21  C   UNL     1       5.810  -6.404  22.387  0.00  0.00    +0.012 C 
ENDBRANCH  17  19
BRANCH  17  22
ATOM     22  O   UNL     1       6.681  -3.310  21.626  0.00  0.00    -0.509 OA
ATOM     23  H   UNL     1       7.118  -2.453  21.799  0.00  0.00    +0.292 HD
ENDBRANCH  17  22
BRANCH  18  24
ATOM     24  C   UNL     1       8.731  -4.814  24.298  0.00  0.00    +0.108 C 
ATOM     25  N   UNL     1       9.291  -5.625  24.912  0.00  0.00    -0.191 NA
ENDBRANCH  18  24
ENDBRANCH   1  18
TORSDOF 6
ENDMDL
MODEL 2
REMARK VINA RESULT:      -7.4      0.940      1.280
REMARK  Name = 
REMARK  6 active torsions:
REMARK  status: ('A' for Active; 'I' for Inactive)
REMARK    1  A    between atoms: O_1  and  C_2
REMARK    2  A    between atoms: C_2  and  C_3
REMARK    3  A    between atoms: C_6  and  C_7
REMARK    4  A    between atoms: C_6  and  C_9
REMARK    5  A    between atoms: N_11  and  C_12
REMARK    6  A    between atoms: C_15  and  C_18
REMARK                            x       y       z     vdW  Elec       q    Type
REMARK                         _______ _______ _______ _____ _____    ______ ____
ROOT
ATOM      1  C   UNL     1       9.009  -2.677  23.623  0.00  0.00    +0.262 C 
ATOM      2  N   UNL     1       8.263  -1.511  23.597  0.00  0.00    -0.281 N 
ATOM      3  H   UNL     1       7.253  -1.616  23.637  0.00  0.00    +0.155 HD
ATOM      4  O   UNL     1      10.235  -2.720  23.702  0.00  0.00    -0.269 OA
ENDROOT
BRANCH   2   5
ATOM      5  C   UNL     1       8.778  -0.193  23.560  0.00  0.00    +0.034 A 
ATOM      6  C   UNL     1       8.625   0.626  24.679  0.00  0.00    +0.024 A 
ATOM      7  C   UNL     1       9.186   1.919  24.705  0.00  0.00    +0.010 A 
ATOM      8  C   UNL     1       9.900   2.439  23.609  0.00  0.00    -0.018 A 
ATOM      9  C   UNL     1       9.987   1.617  22.476  0.00  0.00    +0.010 A 
ATOM     10  C   UNL     1       9.433   0.330  22.449  0.00  0.00    +0.024 A 
BRANCH   8  11
ATOM     11  C   UNL     1      10.557   3.773  23.640  0.00  0.00    -0.018 A 
ATOM     12  C   UNL     1       9.870   4.928  24.060  0.00  0.00    +0.008 A 
ATOM     13  C   UNL     1      10.503   6.176  24.129  0.00  0.00    +0.001 A 
ATOM     14  C   UNL     1      11.846   6.299  23.790  0.00  0.00    +0.000 A 
ATOM     15  C   UNL     1      12.553   5.178  23.373  0.00  0.00    +0.001 A 
ATOM     16  C   UNL     1      11.913   3.936  23.292  0.00  0.00    +0.008 A 
ENDBRANCH   8  11
ENDBRANCH   2   5
BRANCH   1  18
ATOM     17  C   UNL     1       7.249  -4.279  22.761  0.00  0.00    +0.119 C 
ATOM     18  C   UNL     1       8.254  -3.974  23.617  0.00  0.00    +0.151 C 
BRANCH  17  19
ATOM     19  C   UNL     1       6.589  -5.605  22.674  0.00  0.00    +0.056 C 
ATOM     20  C   UNL     1       6.058  -6.051  21.331  0.00  0.00    +0.012 C 
ATOM     21  C   UNL     1       5.105  -5.736  22.444  0.00  0.00    +0.012 C 
ENDBRANCH  17  19
BRANCH  17  22
ATOM     22  O   UNL     1       6.823  -3.333  21.832  0.00  0.00    -0.509 OA
ATOM     23  H   UNL     1       6.029  -2.900  22.205  0.00  0.00    +0.292 HD
ENDBRANCH  17  22
BRANCH  18  24
ATOM     24  C   UNL     1       8.721  -4.958  24.546  0.00  0.00    +0.108 C 
ATOM     25  N   UNL     1       9.158  -5.742  25.282  0.00  0.00    -0.191 NA
ENDBRANCH  18  24
ENDBRANCH   1  18
TORSDOF 6
ENDMDL
MODEL 3
REMARK VINA RESULT:      -7.1      1.799      2.233
REMARK  Name = 
REMARK  6 active torsions:
REMARK  status: ('A' for Active; 'I' for Inactive)
REMARK    1  A    between atoms: O_1  and  C_2
REMARK    2  A    between atoms: C_2  and  C_3
REMARK    3  A    between atoms: C_6  and  C_7
REMARK    4  A    between atoms: C_6  and  C_9
REMARK    5  A    between atoms: N_11  and  C_12
REMARK    6  A    between atoms: C_15  and  C_18
REMARK                            x       y       z     vdW  Elec       q    Type
REMARK                         _______ _______ _______ _____ _____    ______ ____
ROOT
ATOM      1  C   UNL     1       7.900  -2.763  23.408  0.00  0.00    +0.262 C 
ATOM      2  N   UNL     1       7.427  -1.479  23.201  0.00  0.00    -0.281 N 
ATOM      3  H   UNL     1       6.442  -1.389  22.965  0.00  0.00    +0.155 HD
ATOM      4  O   UNL     1       9.029  -3.035  23.813  0.00  0.00    -0.269 OA
ENDROOT
BRANCH   2   5
ATOM      5  C   UNL     1       8.176  -0.285  23.326  0.00  0.00    +0.034 A 
ATOM      6  C   UNL     1       8.694   0.315  22.177  0.00  0.00    +0.024 A 
ATOM      7  C   UNL     1       9.384   1.542  22.256  0.00  0.00    +0.010 A 
ATOM      8  C   UNL     1       9.592   2.197  23.484  0.00  0.00    -0.018 A 
ATOM      9  C   UNL     1       9.112   1.543  24.628  0.00  0.00    +0.010 A 
ATOM     10  C   UNL     1       8.424   0.326  24.552  0.00  0.00    +0.024 A 
BRANCH   8  11
ATOM     11  C   UNL     1      10.258   3.524  23.582  0.00  0.00    -0.018 A 
ATOM     12  C   UNL     1       9.571   4.666  24.034  0.00  0.00    +0.008 A 
ATOM     13  C   UNL     1      10.211   5.906  24.167  0.00  0.00    +0.001 A 
ATOM     14  C   UNL     1      11.561   6.032  23.861  0.00  0.00    +0.000 A 
ATOM     15  C   UNL     1      12.269   4.923  23.413  0.00  0.00    +0.001 A 
ATOM     16  C   UNL     1      11.622   3.690  23.269  0.00  0.00    +0.008 A 
ENDBRANCH   8  11
ENDBRANCH   2   5
BRANCH   1  18
ATOM     17  C   UNL     1       6.612  -4.830  24.098  0.00  0.00    +0.119 C 
ATOM     18  C   UNL     1       6.939  -3.893  23.176  0.00  0.00    +0.151 C 
BRANCH  17  19
ATOM     19  C   UNL     1       5.571  -5.870  23.911  0.00  0.00    +0.056 C 
ATOM     20  C   UNL     1       4.143  -5.525  24.268  0.00  0.00    +0.012 C 
ATOM     21  C   UNL     1       4.895  -6.532  25.084  0.00  0.00    +0.012 C 
ENDBRANCH  17  19
BRANCH  17  22
ATOM     22  O   UNL     1       7.220  -4.807  25.351  0.00  0.00    -0.509 OA
ATOM     23  H   UNL     1       6.507  -4.760  26.017  0.00  0.00    +0.292 HD
ENDBRANCH  17  22
BRANCH  18  24
ATOM     24  C   UNL     1       6.287  -3.890  21.902  0.00  0.00    +0.108 C 
ATOM     25  N   UNL     1       5.703  -3.895  20.899  0.00  0.00    -0.191 NA
ENDBRANCH  18  24
ENDBRANCH   1  18
TORSDOF 6
ENDMDL
MODEL 4
REMARK VINA RESULT:      -6.8      2.755      9.060
REMARK  Name = 
REMARK  6 active torsions:
REMARK  status: ('A' for Active; 'I' for Inactive)
REMARK    1  A    between atoms: O_1  and  C_2
REMARK    2  A    between atoms: C_2  and  C_3
REMARK    3  A    between atoms: C_6  and  C_7
REMARK    4  A    between atoms: C_6  and  C_9
REMARK    5  A    between atoms: N_11  and  C_12
REMARK    6  A    between atoms: C_15  and  C_18
REMARK                            x       y       z     vdW  Elec       q    Type
REMARK                         _______ _______ _______ _____ _____    ______ ____
ROOT
ATOM      1  C   UNL     1      10.227   2.415  23.543  0.00  0.00    +0.262 C 
ATOM      2  N   UNL     1       9.133   1.907  22.866  0.00  0.00    -0.281 N 
ATOM      3  H   UNL     1       8.559   2.577  22.360  0.00  0.00    +0.155 HD
ATOM      4  O   UNL     1      11.084   1.730  24.101  0.00  0.00    -0.269 OA
ENDROOT
BRANCH   2   5
ATOM      5  C   UNL     1       8.766   0.543  22.779  0.00  0.00    +0.034 A 
ATOM      6  C   UNL     1       7.714   0.072  23.566  0.00  0.00    +0.024 A 
ATOM      7  C   UNL     1       7.275  -1.263  23.454  0.00  0.00    +0.010 A 
ATOM      8  C   UNL     1       7.882  -2.171  22.567  0.00  0.00    -0.018 A 
ATOM      9  C   UNL     1       8.974  -1.687  21.832  0.00  0.00    +0.010 A 
ATOM     10  C   UNL     1       9.411  -0.360  21.939  0.00  0.00    +0.024 A 
BRANCH   8  11
ATOM     11  C   UNL     1       7.392  -3.564  22.384  0.00  0.00    -0.018 A 
ATOM     12  C   UNL     1       6.450  -3.893  21.392  0.00  0.00    +0.008 A 
ATOM     13  C   UNL     1       6.021  -5.212  21.193  0.00  0.00    +0.001 A 
ATOM     14  C   UNL     1       6.535  -6.240  21.977  0.00  0.00    +0.000 A 
ATOM     15  C   UNL     1       7.468  -5.948  22.964  0.00  0.00    +0.001 A 
ATOM     16  C   UNL     1       7.882  -4.627  23.169  0.00  0.00    +0.008 A 
ENDBRANCH   8  11
ENDBRANCH   2   5
BRANCH   1  18
ATOM     17  C   UNL     1       9.418   4.802  23.780  0.00  0.00    +0.119 C 
ATOM     18  C   UNL     1      10.405   3.906  23.540  0.00  0.00    +0.151 C 
BRANCH  17  19
ATOM     19  C   UNL     1       9.619   6.267  23.901  0.00  0.00    +0.056 C 
ATOM     20  C   UNL     1      10.192   6.805  25.192  0.00  0.00    +0.012 C 
ATOM     21  C   UNL     1       8.772   7.108  24.821  0.00  0.00    +0.012 C 
ENDBRANCH  17  19
BRANCH  17  22
ATOM     22  O   UNL     1       8.118   4.353  24.007  0.00  0.00    -0.509 OA
ATOM     23  H   UNL     1       7.982   3.568  23.440  0.00  0.00    +0.292 HD
ENDBRANCH  17  22
BRANCH  18  24
ATOM     24  C   UNL     1      11.748   4.362  23.346  0.00  0.00    +0.108 C 
ATOM     25  N   UNL     1      12.816   4.790  23.194  0.00  0.00    -0.191 NA
ENDBRANCH  18  24
ENDBRANCH   1  18
TORSDOF 6
ENDMDL
MODEL 5
REMARK VINA RESULT:      -6.7      2.129      2.569
REMARK  Name = 
REMARK  6 active torsions:
REMARK  status: ('A' for Active; 'I' for Inactive)
REMARK    1  A    between atoms: O_1  and  C_2
REMARK    2  A    between atoms: C_2  and  C_3
REMARK    3  A    between atoms: C_6  and  C_7
REMARK    4  A    between atoms: C_6  and  C_9
REMARK    5  A    between atoms: N_11  and  C_12
REMARK    6  A    between atoms: C_15  and  C_18
REMARK                            x       y       z     vdW  Elec       q    Type
REMARK                         _______ _______ _______ _____ _____    ______ ____
ROOT
ATOM      1  C   UNL     1       7.621  -2.579  25.707  0.00  0.00    +0.262 C 
ATOM      2  N   UNL     1       8.280  -2.026  24.623  0.00  0.00    -0.281 N 
ATOM      3  H   UNL     1       8.453  -2.642  23.832  0.00  0.00    +0.155 HD
ATOM      4  O   UNL     1       7.233  -1.945  26.686  0.00  0.00    -0.269 OA
ENDROOT
BRANCH   2   5
ATOM      5  C   UNL     1       8.696  -0.680  24.498  0.00  0.00    +0.034 A 
ATOM      6  C   UNL     1      10.027  -0.353  24.765  0.00  0.00    +0.024 A 
ATOM      7  C   UNL     1      10.493   0.965  24.583  0.00  0.00    +0.010 A 
ATOM      8  C   UNL     1       9.644   1.998  24.148  0.00  0.00    -0.018 A 
ATOM      9  C   UNL     1       8.299   1.655  23.944  0.00  0.00    +0.010 A 
ATOM     10  C   UNL     1       7.833   0.346  24.121  0.00  0.00    +0.024 A 
BRANCH   8  11
ATOM     11  C   UNL     1      10.130   3.380  23.885  0.00  0.00    -0.018 A 
ATOM     12  C   UNL     1       9.308   4.504  24.083  0.00  0.00    +0.008 A 
ATOM     13  C   UNL     1       9.781   5.807  23.876  0.00  0.00    +0.001 A 
ATOM     14  C   UNL     1      11.095   6.018  23.476  0.00  0.00    +0.000 A 
ATOM     15  C   UNL     1      11.933   4.929  23.272  0.00  0.00    +0.001 A 
ATOM     16  C   UNL     1      11.453   3.629  23.466  0.00  0.00    +0.008 A 
ENDBRANCH   8  11
ENDBRANCH   2   5
BRANCH   1  18
ATOM     17  C   UNL     1       6.213  -4.627  26.186  0.00  0.00    +0.119 C 
ATOM     18  C   UNL     1       7.311  -4.047  25.646  0.00  0.00    +0.151 C 
BRANCH  17  19
ATOM     19  C   UNL     1       5.844  -6.054  26.017  0.00  0.00    +0.056 C 
ATOM     20  C   UNL     1       4.857  -6.413  24.930  0.00  0.00    +0.012 C 
ATOM     21  C   UNL     1       4.469  -6.562  26.370  0.00  0.00    +0.012 C 
ENDBRANCH  17  19
BRANCH  17  22
ATOM     22  O   UNL     1       5.301  -3.850  26.897  0.00  0.00    -0.509 OA
ATOM     23  H   UNL     1       4.407  -4.167  26.661  0.00  0.00    +0.292 HD
ENDBRANCH  17  22
BRANCH  18  24
ATOM     24  C   UNL     1       8.229  -4.835  24.881  0.00  0.00    +0.108 C 
ATOM     25  N   UNL     1       8.964  -5.434  24.212  0.00  0.00    -0.191 NA
ENDBRANCH  18  24
ENDBRANCH   1  18
TORSDOF 6
ENDMDL
MODEL 6
REMARK VINA RESULT:      -6.6      2.011      2.284
REMARK  Name = 
REMARK  6 active torsions:
REMARK  status: ('A' for Active; 'I' for Inactive)
REMARK    1  A    between atoms: O_1  and  C_2
REMARK    2  A    between atoms: C_2  and  C_3
REMARK    3  A    between atoms: C_6  and  C_7
REMARK    4  A    between atoms: C_6  and  C_9
REMARK    5  A    between atoms: N_11  and  C_12
REMARK    6  A    between atoms: C_15  and  C_18
REMARK                            x       y       z     vdW  Elec       q    Type
REMARK                         _______ _______ _______ _____ _____    ______ ____
ROOT
ATOM      1  C   UNL     1       6.663  -1.549  24.037  0.00  0.00    +0.262 C 
ATOM      2  N   UNL     1       7.094  -0.661  23.067  0.00  0.00    -0.281 N 
ATOM      3  H   UNL     1       6.800  -0.851  22.112  0.00  0.00    +0.155 HD
ATOM      4  O   UNL     1       6.830  -1.398  25.246  0.00  0.00    -0.269 OA
ENDROOT
BRANCH   2   5
ATOM      5  C   UNL     1       7.868   0.503  23.287  0.00  0.00    +0.034 A 
ATOM      6  C   UNL     1       9.195   0.367  23.701  0.00  0.00    +0.024 A 
ATOM      7  C   UNL     1      10.016   1.502  23.862  0.00  0.00    +0.010 A 
ATOM      8  C   UNL     1       9.535   2.804  23.632  0.00  0.00    -0.018 A 
ATOM      9  C   UNL     1       8.183   2.914  23.274  0.00  0.00    +0.010 A 
ATOM     10  C   UNL     1       7.365   1.789  23.111  0.00  0.00    +0.024 A 
BRANCH   8  11
ATOM     11  C   UNL     1      10.403   4.009  23.730  0.00  0.00    -0.018 A 
ATOM     12  C   UNL     1       9.936   5.214  24.286  0.00  0.00    +0.008 A 
ATOM     13  C   UNL     1      10.767   6.335  24.416  0.00  0.00    +0.001 A 
ATOM     14  C   UNL     1      12.093   6.273  24.004  0.00  0.00    +0.000 A 
ATOM     15  C   UNL     1      12.586   5.097  23.453  0.00  0.00    +0.001 A 
ATOM     16  C   UNL     1      11.748   3.985  23.311  0.00  0.00    +0.008 A 
ENDBRANCH   8  11
ENDBRANCH   2   5
BRANCH   1  18
ATOM     17  C   UNL     1       6.280  -3.591  22.591  0.00  0.00    +0.119 C 
ATOM     18  C   UNL     1       5.885  -2.746  23.574  0.00  0.00    +0.151 C 
BRANCH  17  19
ATOM     19  C   UNL     1       5.574  -4.842  22.221  0.00  0.00    +0.056 C 
ATOM     20  C   UNL     1       6.146  -6.155  22.704  0.00  0.00    +0.012 C 
ATOM     21  C   UNL     1       6.167  -5.824  21.243  0.00  0.00    +0.012 C 
ENDBRANCH  17  19
BRANCH  17  22
ATOM     22  O   UNL     1       7.466  -3.343  21.904  0.00  0.00    -0.509 OA
ATOM     23  H   UNL     1       7.459  -2.399  21.650  0.00  0.00    +0.292 HD
ENDBRANCH  17  22
BRANCH  18  24
ATOM     24  C   UNL     1       4.688  -3.020  24.309  0.00  0.00    +0.108 C 
ATOM     25  N   UNL     1       3.700  -3.182  24.897  0.00  0.00    -0.191 NA
ENDBRANCH  18  24
ENDBRANCH   1  18
TORSDOF 6
ENDMDL
MODEL 7
REMARK VINA RESULT:      -6.2      3.096      9.229
REMARK  Name = 
REMARK  6 active torsions:
REMARK  status: ('A' for Active; 'I' for Inactive)
REMARK    1  A    between atoms: O_1  and  C_2
REMARK    2  A    between atoms: C_2  and  C_3
REMARK    3  A    between atoms: C_6  and  C_7
REMARK    4  A    between atoms: C_6  and  C_9
REMARK    5  A    between atoms: N_11  and  C_12
REMARK    6  A    between atoms: C_15  and  C_18
REMARK                            x       y       z     vdW  Elec       q    Type
REMARK                         _______ _______ _______ _____ _____    ______ ____
ROOT
ATOM      1  C   UNL     1       8.119   3.366  23.061  0.00  0.00    +0.262 C 
ATOM      2  N   UNL     1       8.489   2.225  23.750  0.00  0.00    -0.281 N 
ATOM      3  H   UNL     1       9.054   2.359  24.585  0.00  0.00    +0.155 HD
ATOM      4  O   UNL     1       7.343   3.386  22.107  0.00  0.00    -0.269 OA
ENDROOT
BRANCH   2   5
ATOM      5  C   UNL     1       8.120   0.898  23.424  0.00  0.00    +0.034 A 
ATOM      6  C   UNL     1       8.994   0.118  22.665  0.00  0.00    +0.024 A 
ATOM      7  C   UNL     1       8.692  -1.229  22.380  0.00  0.00    +0.010 A 
ATOM      8  C   UNL     1       7.504  -1.833  22.830  0.00  0.00    -0.018 A 
ATOM      9  C   UNL     1       6.617  -1.010  23.541  0.00  0.00    +0.010 A 
ATOM     10  C   UNL     1       6.916   0.328  23.827  0.00  0.00    +0.024 A 
BRANCH   8  11
ATOM     11  C   UNL     1       7.197  -3.271  22.600  0.00  0.00    -0.018 A 
ATOM     12  C   UNL     1       6.288  -3.684  21.608  0.00  0.00    +0.008 A 
ATOM     13  C   UNL     1       6.033  -5.040  21.364  0.00  0.00    +0.001 A 
ATOM     14  C   UNL     1       6.691  -6.020  22.100  0.00  0.00    +0.000 A 
ATOM     15  C   UNL     1       7.595  -5.644  23.085  0.00  0.00    +0.001 A 
ATOM     16  C   UNL     1       7.837  -4.289  23.336  0.00  0.00    +0.008 A 
ENDBRANCH   8  11
ENDBRANCH   2   5
BRANCH   1  18
ATOM     17  C   UNL     1       9.976   4.997  23.609  0.00  0.00    +0.119 C 
ATOM     18  C   UNL     1       8.662   4.674  23.560  0.00  0.00    +0.151 C 
BRANCH  17  19
ATOM     19  C   UNL     1      10.503   6.333  23.982  0.00  0.00    +0.056 C 
ATOM     20  C   UNL     1      11.865   6.407  24.635  0.00  0.00    +0.012 C 
ATOM     21  C   UNL     1      10.639   6.754  25.424  0.00  0.00    +0.012 C 
ENDBRANCH  17  19
BRANCH  17  22
ATOM     22  O   UNL     1      10.931   4.061  23.220  0.00  0.00    -0.509 OA
ATOM     23  H   UNL     1      11.358   4.404  22.410  0.00  0.00    +0.292 HD
ENDBRANCH  17  22
BRANCH  18  24
ATOM     24  C   UNL     1       7.676   5.647  23.921  0.00  0.00    +0.108 C 
ATOM     25  N   UNL     1       6.920   6.481  24.206  0.00  0.00    -0.191 NA
ENDBRANCH  18  24
ENDBRANCH   1  18
TORSDOF 6
ENDMDL
MODEL 8
REMARK VINA RESULT:      -6.1      1.879      2.272
REMARK  Name = 
REMARK  6 active torsions:
REMARK  status: ('A' for Active; 'I' for Inactive)
REMARK    1  A    between atoms: O_1  and  C_2
REMARK    2  A    between atoms: C_2  and  C_3
REMARK    3  A    between atoms: C_6  and  C_7
REMARK    4  A    between atoms: C_6  and  C_9
REMARK    5  A    between atoms: N_11  and  C_12
REMARK    6  A    between atoms: C_15  and  C_18
REMARK                            x       y       z     vdW  Elec       q    Type
REMARK                         _______ _______ _______ _____ _____    ______ ____
ROOT
ATOM      1  C   UNL     1       7.495  -2.669  22.997  0.00  0.00    +0.262 C 
ATOM      2  N   UNL     1       7.445  -1.684  23.967  0.00  0.00    -0.281 N 
ATOM      3  H   UNL     1       7.191  -1.982  24.906  0.00  0.00    +0.155 HD
ATOM      4  O   UNL     1       7.897  -2.498  21.847  0.00  0.00    -0.269 OA
ENDROOT
BRANCH   2   5
ATOM      5  C   UNL     1       7.752  -0.315  23.781  0.00  0.00    +0.034 A 
ATOM      6  C   UNL     1       6.718   0.580  23.498  0.00  0.00    +0.024 A 
ATOM      7  C   UNL     1       6.977   1.960  23.376  0.00  0.00    +0.010 A 
ATOM      8  C   UNL     1       8.274   2.487  23.518  0.00  0.00    -0.018 A 
ATOM      9  C   UNL     1       9.301   1.559  23.744  0.00  0.00    +0.010 A 
ATOM     10  C   UNL     1       9.047   0.187  23.868  0.00  0.00    +0.024 A 
BRANCH   8  11
ATOM     11  C   UNL     1       8.558   3.946  23.461  0.00  0.00    -0.018 A 
ATOM     12  C   UNL     1       7.713   4.839  22.777  0.00  0.00    +0.008 A 
ATOM     13  C   UNL     1       7.959   6.219  22.760  0.00  0.00    +0.001 A 
ATOM     14  C   UNL     1       9.054   6.742  23.439  0.00  0.00    +0.000 A 
ATOM     15  C   UNL     1       9.907   5.887  24.126  0.00  0.00    +0.001 A 
ATOM     16  C   UNL     1       9.666   4.508  24.128  0.00  0.00    +0.008 A 
ENDBRANCH   8  11
ENDBRANCH   2   5
BRANCH   1  18
ATOM     17  C   UNL     1       5.879  -4.613  23.139  0.00  0.00    +0.119 C 
ATOM     18  C   UNL     1       7.085  -4.055  23.404  0.00  0.00    +0.151 C 
BRANCH  17  19
ATOM     19  C   UNL     1       5.520  -6.023  23.431  0.00  0.00    +0.056 C 
ATOM     20  C   UNL     1       4.063  -6.357  23.656  0.00  0.00    +0.012 C 
ATOM     21  C   UNL     1       5.035  -6.448  24.793  0.00  0.00    +0.012 C 
ENDBRANCH  17  19
BRANCH  17  22
ATOM     22  O   UNL     1       4.904  -3.868  22.480  0.00  0.00    -0.509 OA
ATOM     23  H   UNL     1       5.325  -3.035  22.189  0.00  0.00    +0.292 HD
ENDBRANCH  17  22
BRANCH  18  24
ATOM     24  C   UNL     1       8.103  -4.831  24.045  0.00  0.00    +0.108 C 
ATOM     25  N   UNL     1       8.966  -5.409  24.563  0.00  0.00    -0.191 NA
ENDBRANCH  18  24
ENDBRANCH   1  18
TORSDOF 6
ENDMDL
MODEL 9
REMARK VINA RESULT:      -6.0      2.720      9.844
REMARK  Name = 
REMARK  6 active torsions:
REMARK  status: ('A' for Active; 'I' for Inactive)
REMARK    1  A    between atoms: O_1  and  C_2
REMARK    2  A    between atoms: C_2  and  C_3
REMARK    3  A    between atoms: C_6  and  C_7
REMARK    4  A    between atoms: C_6  and  C_9
REMARK    5  A    between atoms: N_11  and  C_12
REMARK    6  A    between atoms: C_15  and  C_18
REMARK                            x       y       z     vdW  Elec       q    Type
REMARK                         _______ _______ _______ _____ _____    ______ ____
ROOT
ATOM      1  C   UNL     1       7.498  -1.747  23.082  0.00  0.00    +0.262 C 
ATOM      2  N   UNL     1       7.664  -3.119  23.152  0.00  0.00    -0.281 N 
ATOM      3  H   UNL     1       8.620  -3.464  23.133  0.00  0.00    +0.155 HD
ATOM      4  O   UNL     1       6.422  -1.165  23.213  0.00  0.00    -0.269 OA
ENDROOT
BRANCH   2   5
ATOM      5  C   UNL     1       6.632  -4.077  23.289  0.00  0.00    +0.034 A 
ATOM      6  C   UNL     1       6.137  -4.365  24.562  0.00  0.00    +0.024 A 
ATOM      7  C   UNL     1       5.062  -5.262  24.729  0.00  0.00    +0.010 A 
ATOM      8  C   UNL     1       4.460  -5.909  23.634  0.00  0.00    -0.018 A 
ATOM      9  C   UNL     1       5.015  -5.645  22.373  0.00  0.00    +0.010 A 
ATOM     10  C   UNL     1       6.081  -4.753  22.204  0.00  0.00    +0.024 A 
BRANCH   8  11
ATOM     11  C   UNL     1       3.282  -6.805  23.781  0.00  0.00    -0.018 A 
ATOM     12  C   UNL     1       3.163  -7.702  24.859  0.00  0.00    +0.008 A 
ATOM     13  C   UNL     1       2.033  -8.515  25.019  0.00  0.00    +0.001 A 
ATOM     14  C   UNL     1       0.985  -8.443  24.108  0.00  0.00    +0.000 A 
ATOM     15  C   UNL     1       1.070  -7.566  23.033  0.00  0.00    +0.001 A 
ATOM     16  C   UNL     1       2.207  -6.766  22.870  0.00  0.00    +0.008 A 
ENDBRANCH   8  11
ENDBRANCH   2   5
BRANCH   1  18
ATOM     17  C   UNL     1       8.745   0.432  22.753  0.00  0.00    +0.119 C 
ATOM     18  C   UNL     1       8.734  -0.915  22.894  0.00  0.00    +0.151 C 
BRANCH  17  19
ATOM     19  C   UNL     1       9.972   1.264  22.693  0.00  0.00    +0.056 C 
ATOM     20  C   UNL     1      10.569   1.751  23.993  0.00  0.00    +0.012 C 
ATOM     21  C   UNL     1       9.950   2.730  23.043  0.00  0.00    +0.012 C 
ENDBRANCH  17  19
BRANCH  17  22
ATOM     22  O   UNL     1       7.541   1.133  22.730  0.00  0.00    -0.509 OA
ATOM     23  H   UNL     1       7.749   2.069  22.919  0.00  0.00    +0.292 HD
ENDBRANCH  17  22
BRANCH  18  24
ATOM     24  C   UNL     1       9.970  -1.634  22.958  0.00  0.00    +0.108 C 
ATOM     25  N   UNL     1      10.943  -2.267  22.985  0.00  0.00    -0.191 NA
ENDBRANCH  18  24
ENDBRANCH   1  18
TORSDOF 6
ENDMDL
