MODEL 1
REMARK VINA RESULT:      -7.0      0.000      0.000
REMARK  Name = 
REMARK  8 active torsions:
REMARK  status: ('A' for Active; 'I' for Inactive)
REMARK    1  A    between atoms: C_2  and  C_3
REMARK    2  A    between atoms: C_2  and  O_4
REMARK    3  A    between atoms: C_2  and  C_19
REMARK    4  A    between atoms: O_4  and  P_5
REMARK    5  A    between atoms: P_5  and  C_8
REMARK    6  A    between atoms: C_8  and  C_9
REMARK    7  A    between atoms: C_12  and  N_13
REMARK    8  A    between atoms: C_14  and  C_15
REMARK                            x       y       z     vdW  Elec       q    Type
REMARK                         _______ _______ _______ _____ _____    ______ ____
ROOT
ATOM      1  P   UNL     1       7.094  -1.850  23.537  0.00  0.00    +0.141 P 
ATOM      2  O   UNL     1       5.634  -2.007  24.453  0.00  0.00    -0.781 OA
ATOM      3  O   UNL     1       6.598  -0.623  22.730  0.00  0.00    -0.307 OA
ENDROOT
BRANCH   1   4
ATOM      4  O   UNL     1       6.774  -3.215  22.616  0.00  0.00    -0.329 OA
BRANCH   4   5
ATOM      5  C   UNL     1       7.521  -4.414  22.823  0.00  0.00    +0.152 C 
ATOM      6  C   UNL     1       7.036  -5.461  21.826  0.00  0.00    +0.043 C 
BRANCH   5   7
ATOM      7  C   UNL     1       7.585  -4.873  24.258  0.00  0.00    -0.019 A 
ATOM      8  C   UNL     1       8.787  -4.726  24.973  0.00  0.00    +0.006 A 
ATOM      9  C   UNL     1       8.824  -4.931  26.350  0.00  0.00    +0.000 A 
ATOM     10  C   UNL     1       7.665  -5.303  27.025  0.00  0.00    +0.000 A 
ATOM     11  C   UNL     1       6.484  -5.512  26.317  0.00  0.00    +0.000 A 
ATOM     12  C   UNL     1       6.450  -5.318  24.936  0.00  0.00    +0.006 A 
ENDBRANCH   5   7
ENDBRANCH   4   5
ENDBRANCH   1   4
BRANCH   1  13
ATOM     13  C   UNL     1       8.637  -1.684  22.568  0.00  0.00    +0.117 C 
BRANCH  13  14
ATOM     14  C   UNL     1       9.331  -0.351  22.807  0.00  0.00    -0.039 A 
ATOM     15  C   UNL     1       9.476   0.552  21.746  0.00  0.00    +0.006 A 
ATOM     16  C   UNL     1      10.033   1.816  21.958  0.00  0.00    +0.023 A 
ATOM     17  C   UNL     1      10.469   2.196  23.232  0.00  0.00    +0.033 A 
ATOM     18  C   UNL     1      10.371   1.273  24.276  0.00  0.00    +0.023 A 
ATOM     19  C   UNL     1       9.809   0.009  24.067  0.00  0.00    +0.006 A 
BRANCH  17  20
ATOM     20  N   UNL     1      10.940   3.516  23.398  0.00  0.00    -0.286 N 
ATOM     21  H   UNL     1      11.919   3.658  23.189  0.00  0.00    +0.155 HD
ATOM     22  C   UNL     1      10.199   4.624  23.767  0.00  0.00    +0.214 C 
ATOM     23  O   UNL     1       9.046   4.636  24.196  0.00  0.00    -0.276 OA
ATOM     24  C   UNL     1      10.973   5.909  23.634  0.00  0.00    +0.109 C 
ENDBRANCH  17  20
ENDBRANCH  13  14
ENDBRANCH   1  13
TORSDOF 6
ENDMDL
MODEL 2
REMARK VINA RESULT:      -6.9      3.284      5.596
REMARK  Name = 
REMARK  8 active torsions:
REMARK  status: ('A' for Active; 'I' for Inactive)
REMARK    1  A    between atoms: C_2  and  C_3
REMARK    2  A    between atoms: C_2  and  O_4
REMARK    3  A    between atoms: C_2  and  C_19
REMARK    4  A    between atoms: O_4  and  P_5
REMARK    5  A    between atoms: P_5  and  C_8
REMARK    6  A    between atoms: C_8  and  C_9
REMARK    7  A    between atoms: C_12  and  N_13
REMARK    8  A    between atoms: C_14  and  C_15
REMARK                            x       y       z     vdW  Elec       q    Type
REMARK                         _______ _______ _______ _____ _____    ______ ____
ROOT
ATOM      1  P   UNL     1       7.218  -2.881  22.938  0.00  0.00    +0.141 P 
ATOM      2  O   UNL     1       7.779  -4.512  22.802  0.00  0.00    -0.781 OA
ATOM      3  O   UNL     1       6.042  -3.075  21.949  0.00  0.00    -0.307 OA
ENDROOT
BRANCH   1   4
ATOM      4  O   UNL     1       8.510  -2.265  22.062  0.00  0.00    -0.329 OA
BRANCH   4   5
ATOM      5  C   UNL     1       9.754  -1.995  22.708  0.00  0.00    +0.152 C 
ATOM      6  C   UNL     1       9.793  -2.770  24.021  0.00  0.00    +0.043 C 
BRANCH   5   7
ATOM      7  C   UNL     1      10.102  -0.531  22.813  0.00  0.00    -0.019 A 
ATOM      8  C   UNL     1       9.777   0.329  21.749  0.00  0.00    +0.006 A 
ATOM      9  C   UNL     1       9.880   1.710  21.896  0.00  0.00    +0.000 A 
ATOM     10  C   UNL     1      10.327   2.246  23.101  0.00  0.00    +0.000 A 
ATOM     11  C   UNL     1      10.710   1.400  24.139  0.00  0.00    +0.000 A 
ATOM     12  C   UNL     1      10.618   0.017  23.988  0.00  0.00    +0.006 A 
ENDBRANCH   5   7
ENDBRANCH   4   5
ENDBRANCH   1   4
BRANCH   1  13
ATOM     13  C   UNL     1       6.625  -1.156  23.082  0.00  0.00    +0.117 C 
BRANCH  13  14
ATOM     14  C   UNL     1       6.874  -0.571  24.464  0.00  0.00    -0.039 A 
ATOM     15  C   UNL     1       6.896  -1.419  25.579  0.00  0.00    +0.006 A 
ATOM     16  C   UNL     1       7.206  -0.919  26.847  0.00  0.00    +0.023 A 
ATOM     17  C   UNL     1       7.484   0.441  27.027  0.00  0.00    +0.033 A 
ATOM     18  C   UNL     1       7.409   1.291  25.922  0.00  0.00    +0.023 A 
ATOM     19  C   UNL     1       7.104   0.792  24.650  0.00  0.00    +0.006 A 
BRANCH  17  20
ATOM     20  N   UNL     1       7.876   0.866  28.314  0.00  0.00    -0.286 N 
ATOM     21  H   UNL     1       8.871   0.859  28.491  0.00  0.00    +0.155 HD
ATOM     22  C   UNL     1       7.051   1.326  29.326  0.00  0.00    +0.214 C 
ATOM     23  O   UNL     1       5.823   1.278  29.361  0.00  0.00    -0.276 OA
ATOM     24  C   UNL     1       7.823   1.900  30.485  0.00  0.00    +0.109 C 
ENDBRANCH  17  20
ENDBRANCH  13  14
ENDBRANCH   1  13
TORSDOF 6
ENDMDL
MODEL 3
REMARK VINA RESULT:      -6.9      1.413      2.553
REMARK  Name = 
REMARK  8 active torsions:
REMARK  status: ('A' for Active; 'I' for Inactive)
REMARK    1  A    between atoms: C_2  and  C_3
REMARK    2  A    between atoms: C_2  and  O_4
REMARK    3  A    between atoms: C_2  and  C_19
REMARK    4  A    between atoms: O_4  and  P_5
REMARK    5  A    between atoms: P_5  and  C_8
REMARK    6  A    between atoms: C_8  and  C_9
REMARK    7  A    between atoms: C_12  and  N_13
REMARK    8  A    between atoms: C_14  and  C_15
REMARK                            x       y       z     vdW  Elec       q    Type
REMARK                         _______ _______ _______ _____ _____    ______ ____
ROOT
ATOM      1  P   UNL     1       8.886  -2.192  24.671  0.00  0.00    +0.141 P 
ATOM      2  O   UNL     1       8.091  -2.711  26.118  0.00  0.00    -0.781 OA
ATOM      3  O   UNL     1       7.575  -1.784  23.953  0.00  0.00    -0.307 OA
ENDROOT
BRANCH   1   4
ATOM      4  O   UNL     1       9.249  -3.759  24.196  0.00  0.00    -0.329 OA
BRANCH   4   5
ATOM      5  C   UNL     1       8.495  -4.859  24.707  0.00  0.00    +0.152 C 
ATOM      6  C   UNL     1       9.470  -5.926  25.192  0.00  0.00    +0.043 C 
BRANCH   5   7
ATOM      7  C   UNL     1       7.405  -5.352  23.789  0.00  0.00    -0.019 A 
ATOM      8  C   UNL     1       6.076  -5.375  24.252  0.00  0.00    +0.006 A 
ATOM      9  C   UNL     1       5.023  -5.612  23.373  0.00  0.00    +0.000 A 
ATOM     10  C   UNL     1       5.285  -5.847  22.025  0.00  0.00    +0.000 A 
ATOM     11  C   UNL     1       6.601  -5.887  21.570  0.00  0.00    +0.000 A 
ATOM     12  C   UNL     1       7.656  -5.662  22.452  0.00  0.00    +0.006 A 
ENDBRANCH   5   7
ENDBRANCH   4   5
ENDBRANCH   1   4
BRANCH   1  13
ATOM     13  C   UNL     1       9.726  -1.643  23.142  0.00  0.00    +0.117 C 
BRANCH  13  14
ATOM     14  C   UNL     1      10.003  -0.147  23.137  0.00  0.00    -0.039 A 
ATOM     15  C   UNL     1       9.574   0.631  22.054  0.00  0.00    +0.006 A 
ATOM     16  C   UNL     1       9.741   2.020  22.065  0.00  0.00    +0.023 A 
ATOM     17  C   UNL     1      10.353   2.653  23.152  0.00  0.00    +0.033 A 
ATOM     18  C   UNL     1      10.826   1.868  24.205  0.00  0.00    +0.023 A 
ATOM     19  C   UNL     1      10.656   0.479  24.199  0.00  0.00    +0.006 A 
BRANCH  17  20
ATOM     20  N   UNL     1      10.411   4.063  23.141  0.00  0.00    -0.286 N 
ATOM     21  H   UNL     1      11.030   4.468  22.452  0.00  0.00    +0.155 HD
ATOM     22  C   UNL     1       9.684   4.933  23.935  0.00  0.00    +0.214 C 
ATOM     23  O   UNL     1       8.998   4.645  24.914  0.00  0.00    -0.276 OA
ATOM     24  C   UNL     1       9.834   6.369  23.508  0.00  0.00    +0.109 C 
ENDBRANCH  17  20
ENDBRANCH  13  14
ENDBRANCH   1  13
TORSDOF 6
ENDMDL
MODEL 4
REMARK VINA RESULT:      -6.8      1.450      2.149
REMARK  Name = 
REMARK  8 active torsions:
REMARK  status: ('A' for Active; 'I' for Inactive)
REMARK    1  A    between atoms: C_2  and  C_3
REMARK    2  A    between atoms: C_2  and  O_4
REMARK    3  A    between atoms: C_2  and  C_19
REMARK    4  A    between atoms: O_4  and  P_5
REMARK    5  A    between atoms: P_5  and  C_8
REMARK    6  A    between atoms: C_8  and  C_9
REMARK    7  A    between atoms: C_12  and  N_13
REMARK    8  A    between atoms: C_14  and  C_15
REMARK                            x       y       z     vdW  Elec       q    Type
REMARK                         _______ _______ _______ _____ _____    ______ ____
ROOT
ATOM      1  P   UNL     1       8.633  -2.827  23.749  0.00  0.00    +0.141 P 
ATOM      2  O   UNL     1       9.403  -4.281  24.285  0.00  0.00    -0.781 OA
ATOM      3  O   UNL     1       8.127  -2.431  25.159  0.00  0.00    -0.307 OA
ENDROOT
BRANCH   1   4
ATOM      4  O   UNL     1       7.389  -3.656  22.987  0.00  0.00    -0.329 OA
BRANCH   4   5
ATOM      5  C   UNL     1       7.289  -5.075  23.110  0.00  0.00    +0.152 C 
ATOM      6  C   UNL     1       7.247  -5.677  21.709  0.00  0.00    +0.043 C 
BRANCH   5   7
ATOM      7  C   UNL     1       6.207  -5.548  24.047  0.00  0.00    -0.019 A 
ATOM      8  C   UNL     1       5.071  -6.188  23.517  0.00  0.00    +0.006 A 
ATOM      9  C   UNL     1       4.162  -6.829  24.355  0.00  0.00    +0.000 A 
ATOM     10  C   UNL     1       4.367  -6.823  25.733  0.00  0.00    +0.000 A 
ATOM     11  C   UNL     1       5.455  -6.139  26.271  0.00  0.00    +0.000 A 
ATOM     12  C   UNL     1       6.359  -5.487  25.432  0.00  0.00    +0.006 A 
ENDBRANCH   5   7
ENDBRANCH   4   5
ENDBRANCH   1   4
BRANCH   1  13
ATOM     13  C   UNL     1       7.818  -1.290  23.182  0.00  0.00    +0.117 C 
BRANCH  13  14
ATOM     14  C   UNL     1       8.748  -0.088  23.234  0.00  0.00    -0.039 A 
ATOM     15  C   UNL     1       9.141   0.534  22.042  0.00  0.00    +0.006 A 
ATOM     16  C   UNL     1       9.926   1.691  22.067  0.00  0.00    +0.023 A 
ATOM     17  C   UNL     1      10.345   2.238  23.284  0.00  0.00    +0.033 A 
ATOM     18  C   UNL     1       9.996   1.586  24.468  0.00  0.00    +0.023 A 
ATOM     19  C   UNL     1       9.206   0.430  24.445  0.00  0.00    +0.006 A 
BRANCH  17  20
ATOM     20  N   UNL     1      11.060   3.455  23.245  0.00  0.00    -0.286 N 
ATOM     21  H   UNL     1      11.972   3.410  22.810  0.00  0.00    +0.155 HD
ATOM     22  C   UNL     1      10.626   4.690  23.691  0.00  0.00    +0.214 C 
ATOM     23  O   UNL     1       9.626   4.925  24.367  0.00  0.00    -0.276 OA
ATOM     24  C   UNL     1      11.555   5.808  23.295  0.00  0.00    +0.109 C 
ENDBRANCH  17  20
ENDBRANCH  13  14
ENDBRANCH   1  13
TORSDOF 6
ENDMDL
MODEL 5
REMARK VINA RESULT:      -6.7      1.220      2.652
REMARK  Name = 
REMARK  8 active torsions:
REMARK  status: ('A' for Active; 'I' for Inactive)
REMARK    1  A    between atoms: C_2  and  C_3
REMARK    2  A    between atoms: C_2  and  O_4
REMARK    3  A    between atoms: C_2  and  C_19
REMARK    4  A    between atoms: O_4  and  P_5
REMARK    5  A    between atoms: P_5  and  C_8
REMARK    6  A    between atoms: C_8  and  C_9
REMARK    7  A    between atoms: C_12  and  N_13
REMARK    8  A    between atoms: C_14  and  C_15
REMARK                            x       y       z     vdW  Elec       q    Type
REMARK                         _______ _______ _______ _____ _____    ______ ____
ROOT
ATOM      1  P   UNL     1       7.789  -1.786  24.805  0.00  0.00    +0.141 P 
ATOM      2  O   UNL     1       7.450  -2.347  26.406  0.00  0.00    -0.781 OA
ATOM      3  O   UNL     1       6.331  -1.956  24.306  0.00  0.00    -0.307 OA
ENDROOT
BRANCH   1   4
ATOM      4  O   UNL     1       8.623  -3.181  24.391  0.00  0.00    -0.329 OA
BRANCH   4   5
ATOM      5  C   UNL     1       8.172  -4.454  24.855  0.00  0.00    +0.152 C 
ATOM      6  C   UNL     1       9.389  -5.278  25.259  0.00  0.00    +0.043 C 
BRANCH   5   7
ATOM      7  C   UNL     1       7.201  -5.147  23.933  0.00  0.00    -0.019 A 
ATOM      8  C   UNL     1       5.918  -5.475  24.408  0.00  0.00    +0.006 A 
ATOM      9  C   UNL     1       4.927  -5.913  23.533  0.00  0.00    +0.000 A 
ATOM     10  C   UNL     1       5.212  -6.046  22.176  0.00  0.00    +0.000 A 
ATOM     11  C   UNL     1       6.497  -5.783  21.706  0.00  0.00    +0.000 A 
ATOM     12  C   UNL     1       7.492  -5.357  22.585  0.00  0.00    +0.006 A 
ENDBRANCH   5   7
ENDBRANCH   4   5
ENDBRANCH   1   4
BRANCH   1  13
ATOM     13  C   UNL     1       8.147  -1.192  23.112  0.00  0.00    +0.117 C 
BRANCH  13  14
ATOM     14  C   UNL     1       8.910   0.124  23.108  0.00  0.00    -0.039 A 
ATOM     15  C   UNL     1       9.209   0.752  24.324  0.00  0.00    +0.006 A 
ATOM     16  C   UNL     1       9.983   1.917  24.352  0.00  0.00    +0.023 A 
ATOM     17  C   UNL     1      10.457   2.483  23.164  0.00  0.00    +0.033 A 
ATOM     18  C   UNL     1      10.112   1.883  21.951  0.00  0.00    +0.023 A 
ATOM     19  C   UNL     1       9.343   0.714  21.921  0.00  0.00    +0.006 A 
BRANCH  17  20
ATOM     20  N   UNL     1      11.305   3.607  23.266  0.00  0.00    -0.286 N 
ATOM     21  H   UNL     1      12.267   3.453  22.995  0.00  0.00    +0.155 HD
ATOM     22  C   UNL     1      10.947   4.888  23.648  0.00  0.00    +0.214 C 
ATOM     23  O   UNL     1       9.879   5.243  24.143  0.00  0.00    -0.276 OA
ATOM     24  C   UNL     1      12.054   5.886  23.435  0.00  0.00    +0.109 C 
ENDBRANCH  17  20
ENDBRANCH  13  14
ENDBRANCH   1  13
TORSDOF 6
ENDMDL
MODEL 6
REMARK VINA RESULT:      -6.6      3.994      6.785
REMARK  Name = 
REMARK  8 active torsions:
REMARK  status: ('A' for Active; 'I' for Inactive)
REMARK    1  A    between atoms: C_2  and  C_3
REMARK    2  A    between atoms: C_2  and  O_4
REMARK    3  A    between atoms: C_2  and  C_19
REMARK    4  A    between atoms: O_4  and  P_5
REMARK    5  A    between atoms: P_5  and  C_8
REMARK    6  A    between atoms: C_8  and  C_9
REMARK    7  A    between atoms: C_12  and  N_13
REMARK    8  A    between atoms: C_14  and  C_15
REMARK                            x       y       z     vdW  Elec       q    Type
REMARK                         _______ _______ _______ _____ _____    ______ ____
ROOT
ATOM      1  P   UNL     1       9.214  -0.868  23.746  0.00  0.00    +0.141 P 
ATOM      2  O   UNL     1       8.678   0.777  23.736  0.00  0.00    -0.781 OA
ATOM      3  O   UNL     1      10.588  -0.551  23.103  0.00  0.00    -0.307 OA
ENDROOT
BRANCH   1   4
ATOM      4  O   UNL     1       8.175  -1.313  22.506  0.00  0.00    -0.329 OA
BRANCH   4   5
ATOM      5  C   UNL     1       6.780  -1.476  22.761  0.00  0.00    +0.152 C 
ATOM      6  C   UNL     1       6.422  -0.683  24.013  0.00  0.00    +0.043 C 
BRANCH   5   7
ATOM      7  C   UNL     1       6.304  -2.907  22.748  0.00  0.00    -0.019 A 
ATOM      8  C   UNL     1       6.907  -3.823  21.866  0.00  0.00    +0.006 A 
ATOM      9  C   UNL     1       6.652  -5.188  21.976  0.00  0.00    +0.000 A 
ATOM     10  C   UNL     1       5.777  -5.651  22.956  0.00  0.00    +0.000 A 
ATOM     11  C   UNL     1       5.128  -4.747  23.793  0.00  0.00    +0.000 A 
ATOM     12  C   UNL     1       5.374  -3.379  23.675  0.00  0.00    +0.006 A 
ENDBRANCH   5   7
ENDBRANCH   4   5
ENDBRANCH   1   4
BRANCH   1  13
ATOM     13  C   UNL     1       9.782  -2.607  23.756  0.00  0.00    +0.117 C 
BRANCH  13  14
ATOM     14  C   UNL     1       9.094  -3.436  24.830  0.00  0.00    -0.039 A 
ATOM     15  C   UNL     1       8.399  -2.790  25.861  0.00  0.00    +0.006 A 
ATOM     16  C   UNL     1       7.687  -3.528  26.811  0.00  0.00    +0.023 A 
ATOM     17  C   UNL     1       7.670  -4.926  26.758  0.00  0.00    +0.033 A 
ATOM     18  C   UNL     1       8.408  -5.567  25.761  0.00  0.00    +0.023 A 
ATOM     19  C   UNL     1       9.116  -4.830  24.805  0.00  0.00    +0.006 A 
BRANCH  17  20
ATOM     20  N   UNL     1       6.863  -5.608  27.693  0.00  0.00    -0.286 N 
ATOM     21  H   UNL     1       7.112  -5.475  28.663  0.00  0.00    +0.155 HD
ATOM     22  C   UNL     1       5.754  -6.391  27.421  0.00  0.00    +0.214 C 
ATOM     23  O   UNL     1       5.378  -6.787  26.319  0.00  0.00    -0.276 OA
ATOM     24  C   UNL     1       5.005  -6.785  28.666  0.00  0.00    +0.109 C 
ENDBRANCH  17  20
ENDBRANCH  13  14
ENDBRANCH   1  13
TORSDOF 6
ENDMDL
MODEL 7
REMARK VINA RESULT:      -6.6      3.780      8.427
REMARK  Name = 
REMARK  8 active torsions:
REMARK  status: ('A' for Active; 'I' for Inactive)
REMARK    1  A    between atoms: C_2  and  C_3
REMARK    2  A    between atoms: C_2  and  O_4
REMARK    3  A    between atoms: C_2  and  C_19
REMARK    4  A    between atoms: O_4  and  P_5
REMARK    5  A    between atoms: P_5  and  C_8
REMARK    6  A    between atoms: C_8  and  C_9
REMARK    7  A    between atoms: C_12  and  N_13
REMARK    8  A    between atoms: C_14  and  C_15
REMARK                            x       y       z     vdW  Elec       q    Type
REMARK                         _______ _______ _______ _____ _____    ______ ____
ROOT
ATOM      1  P   UNL     1       7.967  -2.876  25.765  0.00  0.00    +0.141 P 
ATOM      2  O   UNL     1       7.773  -1.268  26.373  0.00  0.00    -0.781 OA
ATOM      3  O   UNL     1       8.828  -3.354  26.962  0.00  0.00    -0.307 OA
ENDROOT
BRANCH   1   4
ATOM      4  O   UNL     1       9.022  -2.391  24.554  0.00  0.00    -0.329 OA
BRANCH   4   5
ATOM      5  C   UNL     1       8.570  -1.534  23.506  0.00  0.00    +0.152 C 
ATOM      6  C   UNL     1       8.360  -2.376  22.252  0.00  0.00    +0.043 C 
BRANCH   5   7
ATOM      7  C   UNL     1       9.398  -0.288  23.314  0.00  0.00    -0.019 A 
ATOM      8  C   UNL     1       9.282   0.435  22.113  0.00  0.00    +0.006 A 
ATOM      9  C   UNL     1       9.857   1.697  21.987  0.00  0.00    +0.000 A 
ATOM     10  C   UNL     1      10.571   2.243  23.051  0.00  0.00    +0.000 A 
ATOM     11  C   UNL     1      10.743   1.508  24.222  0.00  0.00    +0.000 A 
ATOM     12  C   UNL     1      10.177   0.239  24.344  0.00  0.00    +0.006 A 
ENDBRANCH   5   7
ENDBRANCH   4   5
ENDBRANCH   1   4
BRANCH   1  13
ATOM     13  C   UNL     1       8.173  -4.576  25.122  0.00  0.00    +0.117 C 
BRANCH  13  14
ATOM     14  C   UNL     1       6.852  -5.200  24.700  0.00  0.00    -0.039 A 
ATOM     15  C   UNL     1       6.546  -5.313  23.337  0.00  0.00    +0.006 A 
ATOM     16  C   UNL     1       5.377  -5.959  22.921  0.00  0.00    +0.023 A 
ATOM     17  C   UNL     1       4.486  -6.490  23.860  0.00  0.00    +0.033 A 
ATOM     18  C   UNL     1       4.769  -6.329  25.218  0.00  0.00    +0.023 A 
ATOM     19  C   UNL     1       5.941  -5.687  25.637  0.00  0.00    +0.006 A 
BRANCH  17  20
ATOM     20  N   UNL     1       3.371  -7.206  23.374  0.00  0.00    -0.286 N 
ATOM     21  H   UNL     1       3.473  -8.212  23.358  0.00  0.00    +0.155 HD
ATOM     22  C   UNL     1       2.157  -6.681  22.969  0.00  0.00    +0.214 C 
ATOM     23  O   UNL     1       1.886  -5.496  22.781  0.00  0.00    -0.276 OA
ATOM     24  C   UNL     1       1.122  -7.746  22.718  0.00  0.00    +0.109 C 
ENDBRANCH  17  20
ENDBRANCH  13  14
ENDBRANCH   1  13
TORSDOF 6
ENDMDL
MODEL 8
REMARK VINA RESULT:      -6.5      2.930      7.147
REMARK  Name = 
REMARK  8 active torsions:
REMARK  status: ('A' for Active; 'I' for Inactive)
REMARK    1  A    between atoms: C_2  and  C_3
REMARK    2  A    between atoms: C_2  and  O_4
REMARK    3  A    between atoms: C_2  and  C_19
REMARK    4  A    between atoms: O_4  and  P_5
REMARK    5  A    between atoms: P_5  and  C_8
REMARK    6  A    between atoms: C_8  and  C_9
REMARK    7  A    between atoms: C_12  and  N_13
REMARK    8  A    between atoms: C_14  and  C_15
REMARK                            x       y       z     vdW  Elec       q    Type
REMARK                         _______ _______ _______ _____ _____    ______ ____
ROOT
ATOM      1  P   UNL     1       6.911   2.159  24.930  0.00  0.00    +0.141 P 
ATOM      2  O   UNL     1       6.369   3.570  24.088  0.00  0.00    -0.781 OA
ATOM      3  O   UNL     1       5.929   2.340  26.115  0.00  0.00    -0.307 OA
ENDROOT
BRANCH   1   4
ATOM      4  O   UNL     1       8.365   2.867  25.374  0.00  0.00    -0.329 OA
BRANCH   4   5
ATOM      5  C   UNL     1       9.369   3.127  24.392  0.00  0.00    +0.152 C 
ATOM      6  C   UNL     1       9.056   4.462  23.726  0.00  0.00    +0.043 C 
BRANCH   5   7
ATOM      7  C   UNL     1       9.632   1.981  23.448  0.00  0.00    -0.019 A 
ATOM      8  C   UNL     1      10.437   0.909  23.876  0.00  0.00    +0.006 A 
ATOM      9  C   UNL     1      10.523  -0.258  23.122  0.00  0.00    +0.000 A 
ATOM     10  C   UNL     1       9.822  -0.362  21.923  0.00  0.00    +0.000 A 
ATOM     11  C   UNL     1       9.073   0.717  21.460  0.00  0.00    +0.000 A 
ATOM     12  C   UNL     1       8.996   1.891  22.209  0.00  0.00    +0.006 A 
ENDBRANCH   5   7
ENDBRANCH   4   5
ENDBRANCH   1   4
BRANCH   1  13
ATOM     13  C   UNL     1       7.483   0.666  25.819  0.00  0.00    +0.117 C 
BRANCH  13  14
ATOM     14  C   UNL     1       7.371  -0.592  24.973  0.00  0.00    -0.039 A 
ATOM     15  C   UNL     1       6.544  -0.592  23.842  0.00  0.00    +0.006 A 
ATOM     16  C   UNL     1       6.489  -1.707  23.000  0.00  0.00    +0.023 A 
ATOM     17  C   UNL     1       7.247  -2.849  23.283  0.00  0.00    +0.033 A 
ATOM     18  C   UNL     1       8.028  -2.865  24.440  0.00  0.00    +0.023 A 
ATOM     19  C   UNL     1       8.089  -1.747  25.281  0.00  0.00    +0.006 A 
BRANCH  17  20
ATOM     20  N   UNL     1       7.215  -3.906  22.348  0.00  0.00    -0.286 N 
ATOM     21  H   UNL     1       8.107  -4.156  21.943  0.00  0.00    +0.155 HD
ATOM     22  C   UNL     1       6.111  -4.650  21.970  0.00  0.00    +0.214 C 
ATOM     23  O   UNL     1       4.933  -4.415  22.233  0.00  0.00    -0.276 OA
ATOM     24  C   UNL     1       6.478  -5.837  21.119  0.00  0.00    +0.109 C 
ENDBRANCH  17  20
ENDBRANCH  13  14
ENDBRANCH   1  13
TORSDOF 6
ENDMDL
MODEL 9
REMARK VINA RESULT:      -6.4      4.215      9.111
REMARK  Name = 
REMARK  8 active torsions:
REMARK  status: ('A' for Active; 'I' for Inactive)
REMARK    1  A    between atoms: C_2  and  C_3
REMARK    2  A    between atoms: C_2  and  O_4
REMARK    3  A    between atoms: C_2  and  C_19
REMARK    4  A    between atoms: O_4  and  P_5
REMARK    5  A    between atoms: P_5  and  C_8
REMARK    6  A    between atoms: C_8  and  C_9
REMARK    7  A    between atoms: C_12  and  N_13
REMARK    8  A    between atoms: C_14  and  C_15
REMARK                            x       y       z     vdW  Elec       q    Type
REMARK                         _______ _______ _______ _____ _____    ______ ____
ROOT
ATOM      1  P   UNL     1       8.158  -4.214  24.292  0.00  0.00    +0.141 P 
ATOM      2  O   UNL     1       9.801  -4.614  24.659  0.00  0.00    -0.781 OA
ATOM      3  O   UNL     1       8.078  -5.151  23.060  0.00  0.00    -0.307 OA
ENDROOT
BRANCH   1   4
ATOM      4  O   UNL     1       8.556  -2.685  23.731  0.00  0.00    -0.329 OA
BRANCH   4   5
ATOM      5  C   UNL     1       9.346  -1.807  24.534  0.00  0.00    +0.152 C 
ATOM      6  C   UNL     1       8.622  -1.583  25.857  0.00  0.00    +0.043 C 
BRANCH   5   7
ATOM      7  C   UNL     1       9.801  -0.554  23.829  0.00  0.00    -0.019 A 
ATOM      8  C   UNL     1       9.538  -0.404  22.455  0.00  0.00    +0.006 A 
ATOM      9  C   UNL     1       9.744   0.819  21.822  0.00  0.00    +0.000 A 
ATOM     10  C   UNL     1      10.234   1.901  22.549  0.00  0.00    +0.000 A 
ATOM     11  C   UNL     1      10.557   1.745  23.896  0.00  0.00    +0.000 A 
ATOM     12  C   UNL     1      10.361   0.517  24.527  0.00  0.00    +0.006 A 
ENDBRANCH   5   7
ENDBRANCH   4   5
ENDBRANCH   1   4
BRANCH   1  13
ATOM     13  C   UNL     1       6.420  -3.792  23.904  0.00  0.00    +0.117 C 
BRANCH  13  14
ATOM     14  C   UNL     1       5.431  -4.736  24.571  0.00  0.00    -0.039 A 
ATOM     15  C   UNL     1       4.072  -4.659  24.240  0.00  0.00    +0.006 A 
ATOM     16  C   UNL     1       3.157  -5.570  24.775  0.00  0.00    +0.023 A 
ATOM     17  C   UNL     1       3.580  -6.564  25.664  0.00  0.00    +0.033 A 
ATOM     18  C   UNL     1       4.926  -6.603  26.033  0.00  0.00    +0.023 A 
ATOM     19  C   UNL     1       5.846  -5.696  25.494  0.00  0.00    +0.006 A 
BRANCH  17  20
ATOM     20  N   UNL     1       2.624  -7.506  26.099  0.00  0.00    -0.286 N 
ATOM     21  H   UNL     1       2.355  -7.436  27.071  0.00  0.00    +0.155 HD
ATOM     22  C   UNL     1       1.993  -8.469  25.331  0.00  0.00    +0.214 C 
ATOM     23  O   UNL     1       2.279  -8.805  24.183  0.00  0.00    -0.276 OA
ATOM     24  C   UNL     1       0.873  -9.155  26.068  0.00  0.00    +0.109 C 
ENDBRANCH  17  20
ENDBRANCH  13  14
ENDBRANCH   1  13
TORSDOF 6
ENDMDL
