MODEL 1
REMARK VINA RESULT:      -5.9      0.000      0.000
REMARK  Name = 
REMARK  5 active torsions:
REMARK  status: ('A' for Active; 'I' for Inactive)
REMARK    1  A    between atoms: N_1  and  C_2
REMARK    2  A    between atoms: C_2  and  C_3
REMARK    3  A    between atoms: C_3  and  N_4
REMARK    4  A    between atoms: N_4  and  S_5
REMARK    5  A    between atoms: S_5  and  C_8
REMARK                            x       y       z     vdW  Elec       q    Type
REMARK                         _______ _______ _______ _____ _____    ______ ____
ROOT
ATOM      1  C   UNL     1       7.666  -3.349  23.755  0.00  0.00    +0.114 A 
ATOM      2  C   UNL     1       7.267  -4.099  24.905  0.00  0.00    +0.028 A 
ATOM      3  C   UNL     1       7.904  -4.124  26.165  0.00  0.00    +0.121 A 
ATOM      4  N   UNL     1       7.545  -4.889  27.227  0.00  0.00    -0.263 NA
ATOM      5  C   UNL     1       6.468  -5.668  27.073  0.00  0.00    +0.111 A 
ATOM      6  C   UNL     1       5.731  -5.712  25.906  0.00  0.00    +0.029 A 
ATOM      7  C   UNL     1       6.114  -4.927  24.796  0.00  0.00    +0.005 A 
ATOM      8  C   UNL     1       5.387  -4.948  23.578  0.00  0.00    +0.049 A 
ATOM      9 CL   UNL     1       3.953  -5.903  23.370  0.00  0.00    -0.083 Cl
ATOM     10  C   UNL     1       5.785  -4.191  22.478  0.00  0.00    +0.022 A 
ATOM     11  C   UNL     1       6.917  -3.394  22.566  0.00  0.00    +0.030 A 
ENDROOT
BRANCH   1  12
ATOM     12  S   UNL     1       9.108  -2.283  23.680  0.00  0.00    +0.059 S 
ATOM     13  O   UNL     1       8.814  -1.175  24.562  0.00  0.00    -0.153 OA
ATOM     14  O   UNL     1      10.324  -3.049  23.825  0.00  0.00    -0.153 OA
BRANCH  12  15
ATOM     15  N   UNL     1       9.064  -1.676  22.097  0.00  0.00    -0.189 NA
ATOM     16  H   UNL     1       9.299  -2.405  21.420  0.00  0.00    +0.148 HD
BRANCH  15  17
ATOM     17  C   UNL     1       9.867  -0.458  21.801  0.00  0.00    +0.120 C 
BRANCH  17  18
ATOM     18  C   UNL     1       8.982   0.762  21.526  0.00  0.00    +0.094 C 
BRANCH  18  19
ATOM     19  N   UNL     1       9.764   2.005  21.538  0.00  0.00    -0.329 NA
ATOM     20  H   UNL     1       9.381   2.643  20.838  0.00  0.00    +0.118 HD
ATOM     21  H   UNL     1       9.617   2.474  22.435  0.00  0.00    +0.118 HD
ENDBRANCH  18  19
ENDBRANCH  17  18
ENDBRANCH  15  17
ENDBRANCH  12  15
ENDBRANCH   1  12
TORSDOF 5
ENDMDL
MODEL 2
REMARK VINA RESULT:      -5.8      2.387      3.272
REMARK  Name = 
REMARK  5 active torsions:
REMARK  status: ('A' for Active; 'I' for Inactive)
REMARK    1  A    between atoms: N_1  and  C_2
REMARK    2  A    between atoms: C_2  and  C_3
REMARK    3  A    between atoms: C_3  and  N_4
REMARK    4  A    between atoms: N_4  and  S_5
REMARK    5  A    between atoms: S_5  and  C_8
REMARK                            x       y       z     vdW  Elec       q    Type
REMARK                         _______ _______ _______ _____ _____    ______ ____
ROOT
ATOM      1  C   UNL     1       8.660  -2.270  24.058  0.00  0.00    +0.114 A 
ATOM      2  C   UNL     1       7.835  -3.361  23.644  0.00  0.00    +0.028 A 
ATOM      3  C   UNL     1       7.519  -3.730  22.317  0.00  0.00    +0.121 A 
ATOM      4  N   UNL     1       6.684  -4.733  21.945  0.00  0.00    -0.263 NA
ATOM      5  C   UNL     1       6.135  -5.457  22.927  0.00  0.00    +0.111 A 
ATOM      6  C   UNL     1       6.387  -5.227  24.264  0.00  0.00    +0.029 A 
ATOM      7  C   UNL     1       7.243  -4.173  24.652  0.00  0.00    +0.005 A 
ATOM      8  C   UNL     1       7.525  -3.900  26.016  0.00  0.00    +0.049 A 
ATOM      9 CL   UNL     1       6.873  -4.859  27.308  0.00  0.00    -0.083 Cl
ATOM     10  C   UNL     1       8.350  -2.843  26.393  0.00  0.00    +0.022 A 
ATOM     11  C   UNL     1       8.918  -2.033  25.420  0.00  0.00    +0.030 A 
ENDROOT
BRANCH   1  12
ATOM     12  S   UNL     1       9.459  -1.112  22.943  0.00  0.00    +0.059 S 
ATOM     13  O   UNL     1      10.542  -1.850  22.332  0.00  0.00    -0.153 OA
ATOM     14  O   UNL     1       8.484  -0.415  22.138  0.00  0.00    -0.153 OA
BRANCH  12  15
ATOM     15  N   UNL     1      10.165   0.018  23.993  0.00  0.00    -0.189 NA
ATOM     16  H   UNL     1      10.201  -0.344  24.948  0.00  0.00    +0.148 HD
BRANCH  15  17
ATOM     17  C   UNL     1       9.596   1.393  24.012  0.00  0.00    +0.120 C 
BRANCH  17  18
ATOM     18  C   UNL     1      10.418   2.369  23.164  0.00  0.00    +0.094 C 
BRANCH  18  19
ATOM     19  N   UNL     1      10.088   2.248  21.738  0.00  0.00    -0.329 NA
ATOM     20  H   UNL     1       9.099   2.470  21.607  0.00  0.00    +0.118 HD
ATOM     21  H   UNL     1      10.593   2.973  21.224  0.00  0.00    +0.118 HD
ENDBRANCH  18  19
ENDBRANCH  17  18
ENDBRANCH  15  17
ENDBRANCH  12  15
ENDBRANCH   1  12
TORSDOF 5
ENDMDL
MODEL 3
REMARK VINA RESULT:      -5.8      2.185      3.418
REMARK  Name = 
REMARK  5 active torsions:
REMARK  status: ('A' for Active; 'I' for Inactive)
REMARK    1  A    between atoms: N_1  and  C_2
REMARK    2  A    between atoms: C_2  and  C_3
REMARK    3  A    between atoms: C_3  and  N_4
REMARK    4  A    between atoms: N_4  and  S_5
REMARK    5  A    between atoms: S_5  and  C_8
REMARK                            x       y       z     vdW  Elec       q    Type
REMARK                         _______ _______ _______ _____ _____    ______ ____
ROOT
ATOM      1  C   UNL     1       7.397  -5.055  25.193  0.00  0.00    +0.114 A 
ATOM      2  C   UNL     1       6.903  -5.332  23.880  0.00  0.00    +0.028 A 
ATOM      3  C   UNL     1       7.577  -5.118  22.658  0.00  0.00    +0.121 A 
ATOM      4  N   UNL     1       7.069  -5.331  21.418  0.00  0.00    -0.263 NA
ATOM      5  C   UNL     1       5.824  -5.818  21.351  0.00  0.00    +0.111 A 
ATOM      6  C   UNL     1       5.067  -6.106  22.469  0.00  0.00    +0.029 A 
ATOM      7  C   UNL     1       5.591  -5.870  23.759  0.00  0.00    +0.005 A 
ATOM      8  C   UNL     1       4.843  -6.148  24.933  0.00  0.00    +0.049 A 
ATOM      9 CL   UNL     1       3.250  -6.834  24.877  0.00  0.00    -0.083 Cl
ATOM     10  C   UNL     1       5.356  -5.888  26.202  0.00  0.00    +0.022 A 
ATOM     11  C   UNL     1       6.626  -5.347  26.333  0.00  0.00    +0.030 A 
ENDROOT
BRANCH   1  12
ATOM     12  S   UNL     1       9.004  -4.340  25.551  0.00  0.00    +0.059 S 
ATOM     13  O   UNL     1       9.046  -4.190  26.988  0.00  0.00    -0.153 OA
ATOM     14  O   UNL     1      10.050  -5.042  24.843  0.00  0.00    -0.153 OA
BRANCH  12  15
ATOM     15  N   UNL     1       8.893  -2.779  24.895  0.00  0.00    -0.189 NA
ATOM     16  H   UNL     1       7.943  -2.585  24.575  0.00  0.00    +0.148 HD
BRANCH  15  17
ATOM     17  C   UNL     1       9.856  -2.411  23.822  0.00  0.00    +0.120 C 
BRANCH  17  18
ATOM     18  C   UNL     1       9.152  -1.822  22.595  0.00  0.00    +0.094 C 
BRANCH  18  19
ATOM     19  N   UNL     1      10.114  -1.477  21.540  0.00  0.00    -0.329 NA
ATOM     20  H   UNL     1      10.351  -0.487  21.619  0.00  0.00    +0.118 HD
ATOM     21  H   UNL     1      10.989  -1.975  21.723  0.00  0.00    +0.118 HD
ENDBRANCH  18  19
ENDBRANCH  17  18
ENDBRANCH  15  17
ENDBRANCH  12  15
ENDBRANCH   1  12
TORSDOF 5
ENDMDL
MODEL 4
REMARK VINA RESULT:      -5.6      2.207      2.476
REMARK  Name = 
REMARK  5 active torsions:
REMARK  status: ('A' for Active; 'I' for Inactive)
REMARK    1  A    between atoms: N_1  and  C_2
REMARK    2  A    between atoms: C_2  and  C_3
REMARK    3  A    between atoms: C_3  and  N_4
REMARK    4  A    between atoms: N_4  and  S_5
REMARK    5  A    between atoms: S_5  and  C_8
REMARK                            x       y       z     vdW  Elec       q    Type
REMARK                         _______ _______ _______ _____ _____    ______ ____
ROOT
ATOM      1  C   UNL     1       8.307  -1.576  24.295  0.00  0.00    +0.114 A 
ATOM      2  C   UNL     1       8.225  -2.834  24.967  0.00  0.00    +0.028 A 
ATOM      3  C   UNL     1       8.477  -3.084  26.335  0.00  0.00    +0.121 A 
ATOM      4  N   UNL     1       8.452  -4.297  26.943  0.00  0.00    -0.263 NA
ATOM      5  C   UNL     1       8.129  -5.348  26.180  0.00  0.00    +0.111 A 
ATOM      6  C   UNL     1       7.824  -5.239  24.839  0.00  0.00    +0.029 A 
ATOM      7  C   UNL     1       7.865  -3.979  24.202  0.00  0.00    +0.005 A 
ATOM      8  C   UNL     1       7.564  -3.826  22.824  0.00  0.00    +0.049 A 
ATOM      9 CL   UNL     1       7.085  -5.163  21.825  0.00  0.00    -0.083 Cl
ATOM     10  C   UNL     1       7.631  -2.584  22.197  0.00  0.00    +0.022 A 
ATOM     11  C   UNL     1       7.998  -1.464  22.927  0.00  0.00    +0.030 A 
ENDROOT
BRANCH   1  12
ATOM     12  S   UNL     1       8.782  -0.029  25.074  0.00  0.00    +0.059 S 
ATOM     13  O   UNL     1       7.773   0.220  26.080  0.00  0.00    -0.153 OA
ATOM     14  O   UNL     1      10.186  -0.031  25.410  0.00  0.00    -0.153 OA
BRANCH  12  15
ATOM     15  N   UNL     1       8.545   1.116  23.846  0.00  0.00    -0.189 NA
ATOM     16  H   UNL     1       8.799   0.732  22.934  0.00  0.00    +0.148 HD
BRANCH  15  17
ATOM     17  C   UNL     1       9.187   2.449  24.011  0.00  0.00    +0.120 C 
BRANCH  17  18
ATOM     18  C   UNL     1      10.402   2.620  23.094  0.00  0.00    +0.094 C 
BRANCH  18  19
ATOM     19  N   UNL     1      10.103   2.190  21.722  0.00  0.00    -0.329 NA
ATOM     20  H   UNL     1       9.316   1.539  21.744  0.00  0.00    +0.118 HD
ATOM     21  H   UNL     1       9.764   2.998  21.194  0.00  0.00    +0.118 HD
ENDBRANCH  18  19
ENDBRANCH  17  18
ENDBRANCH  15  17
ENDBRANCH  12  15
ENDBRANCH   1  12
TORSDOF 5
ENDMDL
MODEL 5
REMARK VINA RESULT:      -5.5      3.400      5.643
REMARK  Name = 
REMARK  5 active torsions:
REMARK  status: ('A' for Active; 'I' for Inactive)
REMARK    1  A    between atoms: N_1  and  C_2
REMARK    2  A    between atoms: C_2  and  C_3
REMARK    3  A    between atoms: C_3  and  N_4
REMARK    4  A    between atoms: N_4  and  S_5
REMARK    5  A    between atoms: S_5  and  C_8
REMARK                            x       y       z     vdW  Elec       q    Type
REMARK                         _______ _______ _______ _____ _____    ______ ____
ROOT
ATOM      1  C   UNL     1       8.553  -3.194  25.397  0.00  0.00    +0.114 A 
ATOM      2  C   UNL     1       9.106  -2.184  24.551  0.00  0.00    +0.028 A 
ATOM      3  C   UNL     1       9.956  -2.379  23.440  0.00  0.00    +0.121 A 
ATOM      4  N   UNL     1      10.520  -1.402  22.685  0.00  0.00    -0.263 NA
ATOM      5  C   UNL     1      10.215  -0.140  23.005  0.00  0.00    +0.111 A 
ATOM      6  C   UNL     1       9.368   0.190  24.044  0.00  0.00    +0.029 A 
ATOM      7  C   UNL     1       8.794  -0.825  24.840  0.00  0.00    +0.005 A 
ATOM      8  C   UNL     1       7.923  -0.527  25.919  0.00  0.00    +0.049 A 
ATOM      9 CL   UNL     1       7.464   1.098  26.321  0.00  0.00    -0.083 Cl
ATOM     10  C   UNL     1       7.380  -1.533  26.717  0.00  0.00    +0.022 A 
ATOM     11  C   UNL     1       7.691  -2.859  26.457  0.00  0.00    +0.030 A 
ENDROOT
BRANCH   1  12
ATOM     12  S   UNL     1       8.859  -4.954  25.222  0.00  0.00    +0.059 S 
ATOM     13  O   UNL     1      10.298  -5.094  25.203  0.00  0.00    -0.153 OA
ATOM     14  O   UNL     1       8.048  -5.713  26.145  0.00  0.00    -0.153 OA
BRANCH  12  15
ATOM     15  N   UNL     1       8.311  -5.293  23.653  0.00  0.00    -0.189 NA
ATOM     16  H   UNL     1       8.828  -4.748  22.960  0.00  0.00    +0.148 HD
BRANCH  15  17
ATOM     17  C   UNL     1       6.852  -5.162  23.388  0.00  0.00    +0.120 C 
BRANCH  17  18
ATOM     18  C   UNL     1       6.518  -5.350  21.904  0.00  0.00    +0.094 C 
BRANCH  18  19
ATOM     19  N   UNL     1       5.255  -6.079  21.729  0.00  0.00    -0.329 NA
ATOM     20  H   UNL     1       4.579  -5.464  21.272  0.00  0.00    +0.118 HD
ATOM     21  H   UNL     1       5.409  -6.843  21.066  0.00  0.00    +0.118 HD
ENDBRANCH  18  19
ENDBRANCH  17  18
ENDBRANCH  15  17
ENDBRANCH  12  15
ENDBRANCH   1  12
TORSDOF 5
ENDMDL
MODEL 6
REMARK VINA RESULT:      -5.5      3.657      5.692
REMARK  Name = 
REMARK  5 active torsions:
REMARK  status: ('A' for Active; 'I' for Inactive)
REMARK    1  A    between atoms: N_1  and  C_2
REMARK    2  A    between atoms: C_2  and  C_3
REMARK    3  A    between atoms: C_3  and  N_4
REMARK    4  A    between atoms: N_4  and  S_5
REMARK    5  A    between atoms: S_5  and  C_8
REMARK                            x       y       z     vdW  Elec       q    Type
REMARK                         _______ _______ _______ _____ _____    ______ ____
ROOT
ATOM      1  C   UNL     1       7.618  -2.218  23.170  0.00  0.00    +0.114 A 
ATOM      2  C   UNL     1       7.060  -0.977  23.607  0.00  0.00    +0.028 A 
ATOM      3  C   UNL     1       5.965  -0.799  24.480  0.00  0.00    +0.121 A 
ATOM      4  N   UNL     1       5.411   0.388  24.836  0.00  0.00    -0.263 NA
ATOM      5  C   UNL     1       5.977   1.492  24.335  0.00  0.00    +0.111 A 
ATOM      6  C   UNL     1       7.075   1.463  23.500  0.00  0.00    +0.029 A 
ATOM      7  C   UNL     1       7.642   0.227  23.117  0.00  0.00    +0.005 A 
ATOM      8  C   UNL     1       8.767   0.154  22.256  0.00  0.00    +0.049 A 
ATOM      9 CL   UNL     1       9.557   1.571  21.639  0.00  0.00    -0.083 Cl
ATOM     10  C   UNL     1       9.305  -1.070  21.862  0.00  0.00    +0.022 A 
ATOM     11  C   UNL     1       8.737  -2.250  22.318  0.00  0.00    +0.030 A 
ENDROOT
BRANCH   1  12
ATOM     12  S   UNL     1       7.003  -3.838  23.642  0.00  0.00    +0.059 S 
ATOM     13  O   UNL     1       5.577  -3.790  23.407  0.00  0.00    -0.153 OA
ATOM     14  O   UNL     1       7.818  -4.885  23.073  0.00  0.00    -0.153 OA
BRANCH  12  15
ATOM     15  N   UNL     1       7.224  -3.866  25.324  0.00  0.00    -0.189 NA
ATOM     16  H   UNL     1       6.542  -3.265  25.791  0.00  0.00    +0.148 HD
BRANCH  15  17
ATOM     17  C   UNL     1       8.584  -3.562  25.846  0.00  0.00    +0.120 C 
BRANCH  17  18
ATOM     18  C   UNL     1       9.292  -4.815  26.372  0.00  0.00    +0.094 C 
BRANCH  18  19
ATOM     19  N   UNL     1       9.946  -5.555  25.286  0.00  0.00    -0.329 NA
ATOM     20  H   UNL     1      10.928  -5.277  25.241  0.00  0.00    +0.118 HD
ATOM     21  H   UNL     1       9.963  -6.548  25.532  0.00  0.00    +0.118 HD
ENDBRANCH  18  19
ENDBRANCH  17  18
ENDBRANCH  15  17
ENDBRANCH  12  15
ENDBRANCH   1  12
TORSDOF 5
ENDMDL
MODEL 7
REMARK VINA RESULT:      -5.4      3.517      6.088
REMARK  Name = 
REMARK  5 active torsions:
REMARK  status: ('A' for Active; 'I' for Inactive)
REMARK    1  A    between atoms: N_1  and  C_2
REMARK    2  A    between atoms: C_2  and  C_3
REMARK    3  A    between atoms: C_3  and  N_4
REMARK    4  A    between atoms: N_4  and  S_5
REMARK    5  A    between atoms: S_5  and  C_8
REMARK                            x       y       z     vdW  Elec       q    Type
REMARK                         _______ _______ _______ _____ _____    ______ ____
ROOT
ATOM      1  C   UNL     1       9.091  -2.194  24.488  0.00  0.00    +0.114 A 
ATOM      2  C   UNL     1       8.636  -0.928  24.970  0.00  0.00    +0.028 A 
ATOM      3  C   UNL     1       7.886  -0.685  26.142  0.00  0.00    +0.121 A 
ATOM      4  N   UNL     1       7.413   0.519  26.552  0.00  0.00    -0.263 NA
ATOM      5  C   UNL     1       7.712   1.577  25.789  0.00  0.00    +0.111 A 
ATOM      6  C   UNL     1       8.468   1.486  24.638  0.00  0.00    +0.029 A 
ATOM      7  C   UNL     1       8.947   0.231  24.203  0.00  0.00    +0.005 A 
ATOM      8  C   UNL     1       9.724   0.094  23.023  0.00  0.00    +0.049 A 
ATOM      9 CL   UNL     1      10.176   1.456  22.047  0.00  0.00    -0.083 Cl
ATOM     10  C   UNL     1      10.172  -1.151  22.586  0.00  0.00    +0.022 A 
ATOM     11  C   UNL     1       9.860  -2.289  23.314  0.00  0.00    +0.030 A 
ENDROOT
BRANCH   1  12
ATOM     12  S   UNL     1       8.766  -3.768  25.288  0.00  0.00    +0.059 S 
ATOM     13  O   UNL     1       9.318  -4.770  24.403  0.00  0.00    -0.153 OA
ATOM     14  O   UNL     1       9.133  -3.723  26.684  0.00  0.00    -0.153 OA
BRANCH  12  15
ATOM     15  N   UNL     1       7.078  -3.911  25.201  0.00  0.00    -0.189 NA
ATOM     16  H   UNL     1       6.666  -3.093  24.749  0.00  0.00    +0.148 HD
BRANCH  15  17
ATOM     17  C   UNL     1       6.343  -4.194  26.464  0.00  0.00    +0.120 C 
BRANCH  17  18
ATOM     18  C   UNL     1       6.349  -5.687  26.811  0.00  0.00    +0.094 C 
BRANCH  18  19
ATOM     19  N   UNL     1       7.404  -6.007  27.780  0.00  0.00    -0.329 NA
ATOM     20  H   UNL     1       7.350  -7.000  28.013  0.00  0.00    +0.118 HD
ATOM     21  H   UNL     1       8.312  -5.891  27.323  0.00  0.00    +0.118 HD
ENDBRANCH  18  19
ENDBRANCH  17  18
ENDBRANCH  15  17
ENDBRANCH  12  15
ENDBRANCH   1  12
TORSDOF 5
ENDMDL
MODEL 8
REMARK VINA RESULT:      -5.4      3.101      3.815
REMARK  Name = 
REMARK  5 active torsions:
REMARK  status: ('A' for Active; 'I' for Inactive)
REMARK    1  A    between atoms: N_1  and  C_2
REMARK    2  A    between atoms: C_2  and  C_3
REMARK    3  A    between atoms: C_3  and  N_4
REMARK    4  A    between atoms: N_4  and  S_5
REMARK    5  A    between atoms: S_5  and  C_8
REMARK                            x       y       z     vdW  Elec       q    Type
REMARK                         _______ _______ _______ _____ _____    ______ ____
ROOT
ATOM      1  C   UNL     1       7.628  -1.528  23.999  0.00  0.00    +0.114 A 
ATOM      2  C   UNL     1       7.027  -2.647  23.343  0.00  0.00    +0.028 A 
ATOM      3  C   UNL     1       5.973  -2.614  22.403  0.00  0.00    +0.121 A 
ATOM      4  N   UNL     1       5.376  -3.692  21.836  0.00  0.00    -0.263 NA
ATOM      5  C   UNL     1       5.850  -4.895  22.178  0.00  0.00    +0.111 A 
ATOM      6  C   UNL     1       6.900  -5.068  23.057  0.00  0.00    +0.029 A 
ATOM      7  C   UNL     1       7.512  -3.947  23.659  0.00  0.00    +0.005 A 
ATOM      8  C   UNL     1       8.590  -4.082  24.572  0.00  0.00    +0.049 A 
ATOM      9 CL   UNL     1       9.265  -5.627  24.988  0.00  0.00    -0.083 Cl
ATOM     10  C   UNL     1       9.173  -2.973  25.182  0.00  0.00    +0.022 A 
ATOM     11  C   UNL     1       8.697  -1.702  24.896  0.00  0.00    +0.030 A 
ENDROOT
BRANCH   1  12
ATOM     12  S   UNL     1       7.131   0.182  23.766  0.00  0.00    +0.059 S 
ATOM     13  O   UNL     1       7.289   0.439  22.352  0.00  0.00    -0.153 OA
ATOM     14  O   UNL     1       5.881   0.451  24.437  0.00  0.00    -0.153 OA
BRANCH  12  15
ATOM     15  N   UNL     1       8.346   1.055  24.564  0.00  0.00    -0.189 NA
ATOM     16  H   UNL     1       8.069   1.272  25.523  0.00  0.00    +0.148 HD
BRANCH  15  17
ATOM     17  C   UNL     1       8.852   2.292  23.909  0.00  0.00    +0.120 C 
BRANCH  17  18
ATOM     18  C   UNL     1      10.150   2.043  23.133  0.00  0.00    +0.094 C 
BRANCH  18  19
ATOM     19  N   UNL     1       9.921   2.079  21.683  0.00  0.00    -0.329 NA
ATOM     20  H   UNL     1       9.720   1.133  21.356  0.00  0.00    +0.118 HD
ATOM     21  H   UNL     1       9.065   2.610  21.501  0.00  0.00    +0.118 HD
ENDBRANCH  18  19
ENDBRANCH  17  18
ENDBRANCH  15  17
ENDBRANCH  12  15
ENDBRANCH   1  12
TORSDOF 5
ENDMDL
MODEL 9
REMARK VINA RESULT:      -5.4      3.371      6.471
REMARK  Name = 
REMARK  5 active torsions:
REMARK  status: ('A' for Active; 'I' for Inactive)
REMARK    1  A    between atoms: N_1  and  C_2
REMARK    2  A    between atoms: C_2  and  C_3
REMARK    3  A    between atoms: C_3  and  N_4
REMARK    4  A    between atoms: N_4  and  S_5
REMARK    5  A    between atoms: S_5  and  C_8
REMARK                            x       y       z     vdW  Elec       q    Type
REMARK                         _______ _______ _______ _____ _____    ______ ____
ROOT
ATOM      1  C   UNL     1       8.468  -1.066  24.374  0.00  0.00    +0.114 A 
ATOM      2  C   UNL     1       8.969   0.209  23.966  0.00  0.00    +0.028 A 
ATOM      3  C   UNL     1       9.824   0.475  22.874  0.00  0.00    +0.121 A 
ATOM      4  N   UNL     1      10.337   1.686  22.537  0.00  0.00    -0.263 NA
ATOM      5  C   UNL     1       9.972   2.727  23.294  0.00  0.00    +0.111 A 
ATOM      6  C   UNL     1       9.114   2.613  24.369  0.00  0.00    +0.029 A 
ATOM      7  C   UNL     1       8.592   1.351  24.728  0.00  0.00    +0.005 A 
ATOM      8  C   UNL     1       7.710   1.190  25.828  0.00  0.00    +0.049 A 
ATOM      9 CL   UNL     1       7.175   2.531  26.791  0.00  0.00    -0.083 Cl
ATOM     10  C   UNL     1       7.220  -0.062  26.193  0.00  0.00    +0.022 A 
ATOM     11  C   UNL     1       7.594  -1.184  25.469  0.00  0.00    +0.030 A 
ENDROOT
BRANCH   1  12
ATOM     12  S   UNL     1       8.859  -2.623  23.570  0.00  0.00    +0.059 S 
ATOM     13  O   UNL     1       8.341  -2.503  22.225  0.00  0.00    -0.153 OA
ATOM     14  O   UNL     1      10.235  -2.995  23.808  0.00  0.00    -0.153 OA
BRANCH  12  15
ATOM     15  N   UNL     1       7.873  -3.741  24.380  0.00  0.00    -0.189 NA
ATOM     16  H   UNL     1       7.246  -3.267  25.033  0.00  0.00    +0.148 HD
BRANCH  15  17
ATOM     17  C   UNL     1       8.541  -4.873  25.076  0.00  0.00    +0.120 C 
BRANCH  17  18
ATOM     18  C   UNL     1       8.602  -4.661  26.593  0.00  0.00    +0.094 C 
BRANCH  18  19
ATOM     19  N   UNL     1       7.956  -5.765  27.314  0.00  0.00    -0.329 NA
ATOM     20  H   UNL     1       8.661  -6.465  27.549  0.00  0.00    +0.118 HD
ATOM     21  H   UNL     1       7.622  -5.413  28.215  0.00  0.00    +0.118 HD
ENDBRANCH  18  19
ENDBRANCH  17  18
ENDBRANCH  15  17
ENDBRANCH  12  15
ENDBRANCH   1  12
TORSDOF 5
ENDMDL
