MODEL 1
REMARK VINA RESULT:      -5.3      0.000      0.000
REMARK  Name = 
REMARK  4 active torsions:
REMARK  status: ('A' for Active; 'I' for Inactive)
REMARK    1  A    between atoms: O_1  and  C_2
REMARK    2  A    between atoms: C_2  and  C_4
REMARK    3  A    between atoms: C_4  and  C_5
REMARK    4  A    between atoms: C_7  and  N_11
REMARK                            x       y       z     vdW  Elec       q    Type
REMARK                         _______ _______ _______ _____ _____    ______ ____
ROOT
ATOM      1  C   UNL     1      10.997   4.770  23.669  0.00  0.00    -0.030 A 
ATOM      2  C   UNL     1       9.708   5.279  23.897  0.00  0.00    +0.004 A 
ATOM      3  C   UNL     1       8.583   4.463  23.758  0.00  0.00    +0.007 A 
ATOM      4  C   UNL     1       8.726   3.124  23.393  0.00  0.00    +0.084 A 
ATOM      5  C   UNL     1      10.010   2.603  23.187  0.00  0.00    +0.273 A 
ATOM      6  C   UNL     1      11.145   3.415  23.334  0.00  0.00    +0.088 A 
ENDROOT
BRANCH   5   7
ATOM      7  N   UNL     1      10.167   1.201  22.782  0.00  0.00    +0.080 N 
ATOM      8  O   UNL     1       9.799   0.883  21.642  0.00  0.00    +0.041 OA
ATOM      9  O   UNL     1      10.676   0.418  23.599  0.00  0.00    -0.576 OA
ENDBRANCH   5   7
BRANCH   1  10
ATOM     10  C   UNL     1      12.207   5.669  23.774  0.00  0.00    +0.155 C 
BRANCH  10  11
ATOM     11  C   UNL     1      13.271   5.430  22.725  0.00  0.00    +0.309 C 
ATOM     12  O   UNL     1      13.143   5.588  21.522  0.00  0.00    -0.251 OA
BRANCH  11  13
ATOM     13  O   UNL     1      14.439   5.001  23.270  0.00  0.00    -0.480 OA
ATOM     14  H   UNL     1      15.006   4.488  22.663  0.00  0.00    +0.295 HD
ENDBRANCH  11  13
ENDBRANCH  10  11
ENDBRANCH   1  10
TORSDOF 4
ENDMDL
MODEL 2
REMARK VINA RESULT:      -5.0      3.454      4.582
REMARK  Name = 
REMARK  4 active torsions:
REMARK  status: ('A' for Active; 'I' for Inactive)
REMARK    1  A    between atoms: O_1  and  C_2
REMARK    2  A    between atoms: C_2  and  C_4
REMARK    3  A    between atoms: C_4  and  C_5
REMARK    4  A    between atoms: C_7  and  N_11
REMARK                            x       y       z     vdW  Elec       q    Type
REMARK                         _______ _______ _______ _____ _____    ______ ____
ROOT
ATOM      1  C   UNL     1      10.162   0.589  23.307  0.00  0.00    -0.030 A 
ATOM      2  C   UNL     1       9.869   0.714  21.939  0.00  0.00    +0.004 A 
ATOM      3  C   UNL     1       9.348  -0.363  21.218  0.00  0.00    +0.007 A 
ATOM      4  C   UNL     1       9.106  -1.582  21.853  0.00  0.00    +0.084 A 
ATOM      5  C   UNL     1       9.373  -1.707  23.221  0.00  0.00    +0.273 A 
ATOM      6  C   UNL     1       9.888  -0.627  23.953  0.00  0.00    +0.088 A 
ENDROOT
BRANCH   5   7
ATOM      7  N   UNL     1       9.141  -2.994  23.891  0.00  0.00    +0.080 N 
ATOM      8  O   UNL     1      10.131  -3.636  24.269  0.00  0.00    +0.041 OA
ATOM      9  O   UNL     1       7.966  -3.354  24.056  0.00  0.00    -0.576 OA
ENDBRANCH   5   7
BRANCH   1  10
ATOM     10  C   UNL     1      10.771   1.742  24.070  0.00  0.00    +0.155 C 
BRANCH  10  11
ATOM     11  C   UNL     1      10.321   3.114  23.618  0.00  0.00    +0.309 C 
ATOM     12  O   UNL     1       9.232   3.622  23.836  0.00  0.00    -0.251 OA
BRANCH  11  13
ATOM     13  O   UNL     1      11.283   3.761  22.910  0.00  0.00    -0.480 OA
ATOM     14  H   UNL     1      12.139   3.845  23.371  0.00  0.00    +0.295 HD
ENDBRANCH  11  13
ENDBRANCH  10  11
ENDBRANCH   1  10
TORSDOF 4
ENDMDL
MODEL 3
REMARK VINA RESULT:      -5.0      4.426      5.966
REMARK  Name = 
REMARK  4 active torsions:
REMARK  status: ('A' for Active; 'I' for Inactive)
REMARK    1  A    between atoms: O_1  and  C_2
REMARK    2  A    between atoms: C_2  and  C_4
REMARK    3  A    between atoms: C_4  and  C_5
REMARK    4  A    between atoms: C_7  and  N_11
REMARK                            x       y       z     vdW  Elec       q    Type
REMARK                         _______ _______ _______ _____ _____    ______ ____
ROOT
ATOM      1  C   UNL     1       9.275  -0.862  22.705  0.00  0.00    -0.030 A 
ATOM      2  C   UNL     1       9.420  -0.241  23.956  0.00  0.00    +0.004 A 
ATOM      3  C   UNL     1       9.202  -0.955  25.138  0.00  0.00    +0.007 A 
ATOM      4  C   UNL     1       8.840  -2.302  25.088  0.00  0.00    +0.084 A 
ATOM      5  C   UNL     1       8.716  -2.933  23.844  0.00  0.00    +0.273 A 
ATOM      6  C   UNL     1       8.943  -2.224  22.655  0.00  0.00    +0.088 A 
ENDROOT
BRANCH   5   7
ATOM      7  N   UNL     1       8.314  -4.344  23.784  0.00  0.00    +0.080 N 
ATOM      8  O   UNL     1       7.273  -4.624  23.173  0.00  0.00    +0.041 OA
ATOM      9  O   UNL     1       9.051  -5.178  24.333  0.00  0.00    -0.576 OA
ENDBRANCH   5   7
BRANCH   1  10
ATOM     10  C   UNL     1       9.464  -0.072  21.431  0.00  0.00    +0.155 C 
BRANCH  10  11
ATOM     11  C   UNL     1       9.021   1.373  21.505  0.00  0.00    +0.309 C 
ATOM     12  O   UNL     1       7.868   1.772  21.507  0.00  0.00    -0.251 OA
BRANCH  11  13
ATOM     13  O   UNL     1      10.074   2.229  21.570  0.00  0.00    -0.480 OA
ATOM     14  H   UNL     1      10.489   2.428  20.709  0.00  0.00    +0.295 HD
ENDBRANCH  11  13
ENDBRANCH  10  11
ENDBRANCH   1  10
TORSDOF 4
ENDMDL
MODEL 4
REMARK VINA RESULT:      -4.9      6.090      7.765
REMARK  Name = 
REMARK  4 active torsions:
REMARK  status: ('A' for Active; 'I' for Inactive)
REMARK    1  A    between atoms: O_1  and  C_2
REMARK    2  A    between atoms: C_2  and  C_4
REMARK    3  A    between atoms: C_4  and  C_5
REMARK    4  A    between atoms: C_7  and  N_11
REMARK                            x       y       z     vdW  Elec       q    Type
REMARK                         _______ _______ _______ _____ _____    ______ ____
ROOT
ATOM      1  C   UNL     1       8.380  -2.442  23.292  0.00  0.00    -0.030 A 
ATOM      2  C   UNL     1       9.006  -3.310  24.201  0.00  0.00    +0.004 A 
ATOM      3  C   UNL     1       8.573  -4.631  24.342  0.00  0.00    +0.007 A 
ATOM      4  C   UNL     1       7.510  -5.108  23.574  0.00  0.00    +0.084 A 
ATOM      5  C   UNL     1       6.896  -4.255  22.649  0.00  0.00    +0.273 A 
ATOM      6  C   UNL     1       7.332  -2.930  22.496  0.00  0.00    +0.088 A 
ENDROOT
BRANCH   5   7
ATOM      7  N   UNL     1       5.763  -4.743  21.853  0.00  0.00    +0.080 N 
ATOM      8  O   UNL     1       6.006  -5.241  20.745  0.00  0.00    +0.041 OA
ATOM      9  O   UNL     1       4.628  -4.644  22.344  0.00  0.00    -0.576 OA
ENDBRANCH   5   7
BRANCH   1  10
ATOM     10  C   UNL     1       8.821  -1.001  23.180  0.00  0.00    +0.155 C 
BRANCH  10  11
ATOM     11  C   UNL     1       9.477  -0.637  21.866  0.00  0.00    +0.309 C 
ATOM     12  O   UNL     1       9.239   0.353  21.194  0.00  0.00    -0.251 OA
BRANCH  11  13
ATOM     13  O   UNL     1      10.399  -1.557  21.482  0.00  0.00    -0.480 OA
ATOM     14  H   UNL     1      10.743  -1.435  20.577  0.00  0.00    +0.295 HD
ENDBRANCH  11  13
ENDBRANCH  10  11
ENDBRANCH   1  10
TORSDOF 4
ENDMDL
MODEL 5
REMARK VINA RESULT:      -4.9      8.302      9.130
REMARK  Name = 
REMARK  4 active torsions:
REMARK  status: ('A' for Active; 'I' for Inactive)
REMARK    1  A    between atoms: O_1  and  C_2
REMARK    2  A    between atoms: C_2  and  C_4
REMARK    3  A    between atoms: C_4  and  C_5
REMARK    4  A    between atoms: C_7  and  N_11
REMARK                            x       y       z     vdW  Elec       q    Type
REMARK                         _______ _______ _______ _____ _____    ______ ____
ROOT
ATOM      1  C   UNL     1       8.173  -3.432  23.912  0.00  0.00    -0.030 A 
ATOM      2  C   UNL     1       7.436  -2.245  23.774  0.00  0.00    +0.004 A 
ATOM      3  C   UNL     1       6.364  -2.169  22.882  0.00  0.00    +0.007 A 
ATOM      4  C   UNL     1       6.008  -3.280  22.116  0.00  0.00    +0.084 A 
ATOM      5  C   UNL     1       6.723  -4.474  22.265  0.00  0.00    +0.273 A 
ATOM      6  C   UNL     1       7.795  -4.559  23.167  0.00  0.00    +0.088 A 
ENDROOT
BRANCH   5   7
ATOM      7  N   UNL     1       6.367  -5.640  21.447  0.00  0.00    +0.080 N 
ATOM      8  O   UNL     1       6.542  -6.765  21.936  0.00  0.00    +0.041 OA
ATOM      9  O   UNL     1       5.895  -5.431  20.319  0.00  0.00    -0.576 OA
ENDBRANCH   5   7
BRANCH   1  10
ATOM     10  C   UNL     1       9.362  -3.493  24.843  0.00  0.00    +0.155 C 
BRANCH  10  11
ATOM     11  C   UNL     1       9.398  -4.702  25.752  0.00  0.00    +0.309 C 
ATOM     12  O   UNL     1       8.671  -4.901  26.712  0.00  0.00    -0.251 OA
BRANCH  11  13
ATOM     13  O   UNL     1      10.362  -5.587  25.389  0.00  0.00    -0.480 OA
ATOM     14  H   UNL     1      11.128  -5.623  25.992  0.00  0.00    +0.295 HD
ENDBRANCH  11  13
ENDBRANCH  10  11
ENDBRANCH   1  10
TORSDOF 4
ENDMDL
MODEL 6
REMARK VINA RESULT:      -4.9      6.114      8.643
REMARK  Name = 
REMARK  4 active torsions:
REMARK  status: ('A' for Active; 'I' for Inactive)
REMARK    1  A    between atoms: O_1  and  C_2
REMARK    2  A    between atoms: C_2  and  C_4
REMARK    3  A    between atoms: C_4  and  C_5
REMARK    4  A    between atoms: C_7  and  N_11
REMARK                            x       y       z     vdW  Elec       q    Type
REMARK                         _______ _______ _______ _____ _____    ______ ____
ROOT
ATOM      1  C   UNL     1       8.768  -4.157  24.450  0.00  0.00    -0.030 A 
ATOM      2  C   UNL     1       7.756  -4.512  23.544  0.00  0.00    +0.004 A 
ATOM      3  C   UNL     1       7.449  -3.689  22.457  0.00  0.00    +0.007 A 
ATOM      4  C   UNL     1       8.152  -2.501  22.256  0.00  0.00    +0.084 A 
ATOM      5  C   UNL     1       9.179  -2.152  23.142  0.00  0.00    +0.273 A 
ATOM      6  C   UNL     1       9.498  -2.978  24.230  0.00  0.00    +0.088 A 
ENDROOT
BRANCH   5   7
ATOM      7  N   UNL     1       9.908  -0.892  22.948  0.00  0.00    +0.080 N 
ATOM      8  O   UNL     1      10.002  -0.449  21.794  0.00  0.00    +0.041 OA
ATOM      9  O   UNL     1      10.373  -0.335  23.954  0.00  0.00    -0.576 OA
ENDBRANCH   5   7
BRANCH   1  10
ATOM     10  C   UNL     1       9.062  -5.026  25.651  0.00  0.00    +0.155 C 
BRANCH  10  11
ATOM     11  C   UNL     1       8.118  -4.839  26.819  0.00  0.00    +0.309 C 
ATOM     12  O   UNL     1       7.564  -3.799  27.137  0.00  0.00    -0.251 OA
BRANCH  11  13
ATOM     13  O   UNL     1       7.937  -5.989  27.519  0.00  0.00    -0.480 OA
ATOM     14  H   UNL     1       7.372  -6.650  27.076  0.00  0.00    +0.295 HD
ENDBRANCH  11  13
ENDBRANCH  10  11
ENDBRANCH   1  10
TORSDOF 4
ENDMDL
MODEL 7
REMARK VINA RESULT:      -4.8      5.341      7.938
REMARK  Name = 
REMARK  4 active torsions:
REMARK  status: ('A' for Active; 'I' for Inactive)
REMARK    1  A    between atoms: O_1  and  C_2
REMARK    2  A    between atoms: C_2  and  C_4
REMARK    3  A    between atoms: C_4  and  C_5
REMARK    4  A    between atoms: C_7  and  N_11
REMARK                            x       y       z     vdW  Elec       q    Type
REMARK                         _______ _______ _______ _____ _____    ______ ____
ROOT
ATOM      1  C   UNL     1       8.842  -2.867  24.966  0.00  0.00    -0.030 A 
ATOM      2  C   UNL     1       8.354  -2.433  26.209  0.00  0.00    +0.004 A 
ATOM      3  C   UNL     1       8.566  -1.122  26.642  0.00  0.00    +0.007 A 
ATOM      4  C   UNL     1       9.266  -0.221  25.838  0.00  0.00    +0.084 A 
ATOM      5  C   UNL     1       9.735  -0.640  24.587  0.00  0.00    +0.273 A 
ATOM      6  C   UNL     1       9.517  -1.952  24.143  0.00  0.00    +0.088 A 
ENDROOT
BRANCH   5   7
ATOM      7  N   UNL     1      10.490   0.297  23.746  0.00  0.00    +0.080 N 
ATOM      8  O   UNL     1      11.320   1.033  24.299  0.00  0.00    +0.041 OA
ATOM      9  O   UNL     1      10.267   0.285  22.526  0.00  0.00    -0.576 OA
ENDBRANCH   5   7
BRANCH   1  10
ATOM     10  C   UNL     1       8.652  -4.299  24.524  0.00  0.00    +0.155 C 
BRANCH  10  11
ATOM     11  C   UNL     1       8.875  -5.334  25.605  0.00  0.00    +0.309 C 
ATOM     12  O   UNL     1       8.012  -5.849  26.297  0.00  0.00    -0.251 OA
BRANCH  11  13
ATOM     13  O   UNL     1      10.188  -5.653  25.745  0.00  0.00    -0.480 OA
ATOM     14  H   UNL     1      10.805  -4.912  25.592  0.00  0.00    +0.295 HD
ENDBRANCH  11  13
ENDBRANCH  10  11
ENDBRANCH   1  10
TORSDOF 4
ENDMDL
MODEL 8
REMARK VINA RESULT:      -4.8      6.814      9.457
REMARK  Name = 
REMARK  4 active torsions:
REMARK  status: ('A' for Active; 'I' for Inactive)
REMARK    1  A    between atoms: O_1  and  C_2
REMARK    2  A    between atoms: C_2  and  C_4
REMARK    3  A    between atoms: C_4  and  C_5
REMARK    4  A    between atoms: C_7  and  N_11
REMARK                            x       y       z     vdW  Elec       q    Type
REMARK                         _______ _______ _______ _____ _____    ______ ____
ROOT
ATOM      1  C   UNL     1       7.095  -4.242  23.294  0.00  0.00    -0.030 A 
ATOM      2  C   UNL     1       7.436  -5.068  24.377  0.00  0.00    +0.004 A 
ATOM      3  C   UNL     1       8.601  -4.836  25.114  0.00  0.00    +0.007 A 
ATOM      4  C   UNL     1       9.440  -3.771  24.783  0.00  0.00    +0.084 A 
ATOM      5  C   UNL     1       9.093  -2.929  23.720  0.00  0.00    +0.273 A 
ATOM      6  C   UNL     1       7.921  -3.152  22.982  0.00  0.00    +0.088 A 
ENDROOT
BRANCH   5   7
ATOM      7  N   UNL     1       9.983  -1.819  23.353  0.00  0.00    +0.080 N 
ATOM      8  O   UNL     1      10.154  -0.916  24.184  0.00  0.00    +0.041 OA
ATOM      9  O   UNL     1      10.525  -1.860  22.239  0.00  0.00    -0.576 OA
ENDBRANCH   5   7
BRANCH   1  10
ATOM     10  C   UNL     1       5.860  -4.528  22.471  0.00  0.00    +0.155 C 
BRANCH  10  11
ATOM     11  C   UNL     1       6.038  -5.584  21.402  0.00  0.00    +0.309 C 
ATOM     12  O   UNL     1       6.021  -5.396  20.196  0.00  0.00    -0.251 OA
BRANCH  11  13
ATOM     13  O   UNL     1       6.223  -6.821  21.930  0.00  0.00    -0.480 OA
ATOM     14  H   UNL     1       6.426  -7.517  21.276  0.00  0.00    +0.295 HD
ENDBRANCH  11  13
ENDBRANCH  10  11
ENDBRANCH   1  10
TORSDOF 4
ENDMDL
MODEL 9
REMARK VINA RESULT:      -4.8      8.940     10.461
REMARK  Name = 
REMARK  4 active torsions:
REMARK  status: ('A' for Active; 'I' for Inactive)
REMARK    1  A    between atoms: O_1  and  C_2
REMARK    2  A    between atoms: C_2  and  C_4
REMARK    3  A    between atoms: C_4  and  C_5
REMARK    4  A    between atoms: C_7  and  N_11
REMARK                            x       y       z     vdW  Elec       q    Type
REMARK                         _______ _______ _______ _____ _____    ______ ____
ROOT
ATOM      1  C   UNL     1       6.950  -5.006  25.645  0.00  0.00    -0.030 A 
ATOM      2  C   UNL     1       6.348  -5.779  26.651  0.00  0.00    +0.004 A 
ATOM      3  C   UNL     1       5.172  -6.489  26.398  0.00  0.00    +0.007 A 
ATOM      4  C   UNL     1       4.581  -6.442  25.135  0.00  0.00    +0.084 A 
ATOM      5  C   UNL     1       5.189  -5.693  24.121  0.00  0.00    +0.273 A 
ATOM      6  C   UNL     1       6.375  -4.985  24.366  0.00  0.00    +0.088 A 
ENDROOT
BRANCH   5   7
ATOM      7  N   UNL     1       4.561  -5.622  22.795  0.00  0.00    +0.080 N 
ATOM      8  O   UNL     1       3.323  -5.609  22.741  0.00  0.00    +0.041 OA
ATOM      9  O   UNL     1       5.307  -5.561  21.806  0.00  0.00    -0.576 OA
ENDBRANCH   5   7
BRANCH   1  10
ATOM     10  C   UNL     1       8.195  -4.201  25.939  0.00  0.00    +0.155 C 
BRANCH  10  11
ATOM     11  C   UNL     1       9.438  -4.661  25.208  0.00  0.00    +0.309 C 
ATOM     12  O   UNL     1      10.098  -3.997  24.425  0.00  0.00    -0.251 OA
BRANCH  11  13
ATOM     13  O   UNL     1       9.768  -5.942  25.513  0.00  0.00    -0.480 OA
ATOM     14  H   UNL     1      10.068  -6.477  24.754  0.00  0.00    +0.295 HD
ENDBRANCH  11  13
ENDBRANCH  10  11
ENDBRANCH   1  10
TORSDOF 4
ENDMDL
