MODEL 1
REMARK VINA RESULT:      -6.8      0.000      0.000
REMARK  Name = 
REMARK  0 active torsions:
REMARK  status: ('A' for Active; 'I' for Inactive)
REMARK                            x       y       z     vdW  Elec       q    Type
REMARK                         _______ _______ _______ _____ _____    ______ ____
ROOT
ATOM      1  O   UNL     1       9.019  -0.685  26.930  0.00  0.00    -0.287 OA
ATOM      2  C   UNL     1       9.038  -1.035  25.760  0.00  0.00    +0.194 A 
ATOM      3  C   UNL     1       8.699  -2.459  25.336  0.00  0.00    +0.032 A 
ATOM      4  C   UNL     1       8.376  -3.402  26.314  0.00  0.00    +0.012 A 
ATOM      5  C   UNL     1       7.790  -4.610  25.928  0.00  0.00    +0.001 A 
ATOM      6  C   UNL     1       7.513  -4.867  24.582  0.00  0.00    +0.001 A 
ATOM      7  C   UNL     1       7.960  -3.993  23.592  0.00  0.00    +0.011 A 
ATOM      8  C   UNL     1       8.602  -2.815  23.964  0.00  0.00    +0.014 A 
ATOM      9  C   UNL     1       9.130  -1.879  22.992  0.00  0.00    +0.102 A 
ATOM     10  N   UNL     1       9.394  -2.037  21.690  0.00  0.00    -0.173 NA
ATOM     11  N   UNL     1       9.839  -0.805  21.313  0.00  0.00    -0.276 N 
ATOM     12  H   UNL     1      10.152  -0.682  20.356  0.00  0.00    +0.189 HD
ATOM     13  C   UNL     1       9.787   0.140  22.308  0.00  0.00    +0.067 A 
ATOM     14  C   UNL     1      10.014   1.514  22.393  0.00  0.00    +0.028 A 
ATOM     15  C   UNL     1       9.816   2.096  23.666  0.00  0.00    +0.003 A 
ATOM     16  C   UNL     1       9.489   1.335  24.809  0.00  0.00    +0.012 A 
ATOM     17  C   UNL     1       9.422  -0.585  23.417  0.00  0.00    +0.038 A 
ATOM     18  C   UNL     1       9.330  -0.041  24.688  0.00  0.00    +0.034 A 
ENDROOT
TORSDOF 0
ENDMDL
MODEL 2
REMARK VINA RESULT:      -6.5      2.258      3.045
REMARK  Name = 
REMARK  0 active torsions:
REMARK  status: ('A' for Active; 'I' for Inactive)
REMARK                            x       y       z     vdW  Elec       q    Type
REMARK                         _______ _______ _______ _____ _____    ______ ____
ROOT
ATOM      1  O   UNL     1       7.536  -3.541  21.949  0.00  0.00    -0.287 OA
ATOM      2  C   UNL     1       7.936  -2.958  22.945  0.00  0.00    +0.194 A 
ATOM      3  C   UNL     1       7.748  -3.527  24.346  0.00  0.00    +0.032 A 
ATOM      4  C   UNL     1       7.079  -4.742  24.504  0.00  0.00    +0.012 A 
ATOM      5  C   UNL     1       7.154  -5.407  25.730  0.00  0.00    +0.001 A 
ATOM      6  C   UNL     1       7.902  -4.874  26.783  0.00  0.00    +0.001 A 
ATOM      7  C   UNL     1       8.453  -3.596  26.679  0.00  0.00    +0.011 A 
ATOM      8  C   UNL     1       8.330  -2.899  25.480  0.00  0.00    +0.014 A 
ATOM      9  C   UNL     1       8.840  -1.553  25.310  0.00  0.00    +0.102 A 
ATOM     10  N   UNL     1       9.210  -0.643  26.219  0.00  0.00    -0.173 NA
ATOM     11  N   UNL     1       9.624   0.406  25.456  0.00  0.00    -0.276 N 
ATOM     12  H   UNL     1       9.917   1.255  25.929  0.00  0.00    +0.189 HD
ATOM     13  C   UNL     1       9.606   0.161  24.105  0.00  0.00    +0.067 A 
ATOM     14  C   UNL     1      10.022   0.842  22.961  0.00  0.00    +0.028 A 
ATOM     15  C   UNL     1       9.810   0.175  21.732  0.00  0.00    +0.003 A 
ATOM     16  C   UNL     1       9.146  -1.068  21.645  0.00  0.00    +0.012 A 
ATOM     17  C   UNL     1       9.004  -1.071  24.014  0.00  0.00    +0.038 A 
ATOM     18  C   UNL     1       8.697  -1.683  22.809  0.00  0.00    +0.034 A 
ENDROOT
TORSDOF 0
ENDMDL
MODEL 3
REMARK VINA RESULT:      -6.5      3.179      5.964
REMARK  Name = 
REMARK  0 active torsions:
REMARK  status: ('A' for Active; 'I' for Inactive)
REMARK                            x       y       z     vdW  Elec       q    Type
REMARK                         _______ _______ _______ _____ _____    ______ ____
ROOT
ATOM      1  O   UNL     1       5.522  -3.384  22.096  0.00  0.00    -0.287 OA
ATOM      2  C   UNL     1       6.325  -3.655  22.976  0.00  0.00    +0.194 A 
ATOM      3  C   UNL     1       7.754  -3.126  22.958  0.00  0.00    +0.032 A 
ATOM      4  C   UNL     1       8.170  -2.323  21.894  0.00  0.00    +0.012 A 
ATOM      5  C   UNL     1       9.362  -1.605  22.007  0.00  0.00    +0.001 A 
ATOM      6  C   UNL     1      10.124  -1.673  23.177  0.00  0.00    +0.001 A 
ATOM      7  C   UNL     1       9.789  -2.579  24.183  0.00  0.00    +0.011 A 
ATOM      8  C   UNL     1       8.634  -3.346  24.051  0.00  0.00    +0.014 A 
ATOM      9  C   UNL     1       8.244  -4.336  25.035  0.00  0.00    +0.102 A 
ATOM     10  N   UNL     1       8.953  -4.919  26.009  0.00  0.00    -0.173 NA
ATOM     11  N   UNL     1       8.041  -5.730  26.612  0.00  0.00    -0.276 N 
ATOM     12  H   UNL     1       8.357  -6.325  27.370  0.00  0.00    +0.189 HD
ATOM     13  C   UNL     1       6.768  -5.619  26.107  0.00  0.00    +0.067 A 
ATOM     14  C   UNL     1       5.514  -6.129  26.441  0.00  0.00    +0.028 A 
ATOM     15  C   UNL     1       4.439  -5.717  25.619  0.00  0.00    +0.003 A 
ATOM     16  C   UNL     1       4.621  -4.906  24.478  0.00  0.00    +0.012 A 
ATOM     17  C   UNL     1       6.928  -4.791  25.022  0.00  0.00    +0.038 A 
ATOM     18  C   UNL     1       5.900  -4.469  24.150  0.00  0.00    +0.034 A 
ENDROOT
TORSDOF 0
ENDMDL
MODEL 4
REMARK VINA RESULT:      -6.4      2.078      2.156
REMARK  Name = 
REMARK  0 active torsions:
REMARK  status: ('A' for Active; 'I' for Inactive)
REMARK                            x       y       z     vdW  Elec       q    Type
REMARK                         _______ _______ _______ _____ _____    ______ ____
ROOT
ATOM      1  O   UNL     1       5.377  -0.283  24.832  0.00  0.00    -0.287 OA
ATOM      2  C   UNL     1       6.301  -0.747  24.181  0.00  0.00    +0.194 A 
ATOM      3  C   UNL     1       6.696  -2.216  24.271  0.00  0.00    +0.032 A 
ATOM      4  C   UNL     1       5.997  -3.058  25.137  0.00  0.00    +0.012 A 
ATOM      5  C   UNL     1       6.152  -4.441  25.017  0.00  0.00    +0.001 A 
ATOM      6  C   UNL     1       6.983  -4.979  24.031  0.00  0.00    +0.001 A 
ATOM      7  C   UNL     1       7.791  -4.145  23.258  0.00  0.00    +0.011 A 
ATOM      8  C   UNL     1       7.688  -2.764  23.415  0.00  0.00    +0.014 A 
ATOM      9  C   UNL     1       8.523  -1.837  22.677  0.00  0.00    +0.102 A 
ATOM     10  N   UNL     1       9.662  -2.039  22.005  0.00  0.00    -0.173 NA
ATOM     11  N   UNL     1       9.950  -0.804  21.507  0.00  0.00    -0.276 N 
ATOM     12  H   UNL     1      10.812  -0.689  20.985  0.00  0.00    +0.189 HD
ATOM     13  C   UNL     1       8.995   0.146  21.772  0.00  0.00    +0.067 A 
ATOM     14  C   UNL     1       8.778   1.474  21.403  0.00  0.00    +0.028 A 
ATOM     15  C   UNL     1       7.609   2.077  21.921  0.00  0.00    +0.003 A 
ATOM     16  C   UNL     1       6.748   1.418  22.825  0.00  0.00    +0.012 A 
ATOM     17  C   UNL     1       8.125  -0.503  22.614  0.00  0.00    +0.038 A 
ATOM     18  C   UNL     1       7.037   0.113  23.211  0.00  0.00    +0.034 A 
ENDROOT
TORSDOF 0
ENDMDL
MODEL 5
REMARK VINA RESULT:      -6.4      4.449      6.254
REMARK  Name = 
REMARK  0 active torsions:
REMARK  status: ('A' for Active; 'I' for Inactive)
REMARK                            x       y       z     vdW  Elec       q    Type
REMARK                         _______ _______ _______ _____ _____    ______ ____
ROOT
ATOM      1  O   UNL     1       5.346  -4.073  22.210  0.00  0.00    -0.287 OA
ATOM      2  C   UNL     1       5.499  -4.661  23.270  0.00  0.00    +0.194 A 
ATOM      3  C   UNL     1       4.418  -5.558  23.861  0.00  0.00    +0.032 A 
ATOM      4  C   UNL     1       3.205  -5.699  23.184  0.00  0.00    +0.012 A 
ATOM      5  C   UNL     1       2.333  -6.726  23.554  0.00  0.00    +0.001 A 
ATOM      6  C   UNL     1       2.675  -7.614  24.578  0.00  0.00    +0.001 A 
ATOM      7  C   UNL     1       3.816  -7.393  25.349  0.00  0.00    +0.011 A 
ATOM      8  C   UNL     1       4.661  -6.333  25.026  0.00  0.00    +0.014 A 
ATOM      9  C   UNL     1       5.841  -6.017  25.806  0.00  0.00    +0.102 A 
ATOM     10  N   UNL     1       6.193  -6.394  27.040  0.00  0.00    -0.173 NA
ATOM     11  N   UNL     1       7.410  -5.806  27.208  0.00  0.00    -0.276 N 
ATOM     12  H   UNL     1       7.872  -5.910  28.105  0.00  0.00    +0.189 HD
ATOM     13  C   UNL     1       7.872  -5.143  26.097  0.00  0.00    +0.067 A 
ATOM     14  C   UNL     1       9.058  -4.501  25.739  0.00  0.00    +0.028 A 
ATOM     15  C   UNL     1       9.095  -3.953  24.436  0.00  0.00    +0.003 A 
ATOM     16  C   UNL     1       7.981  -3.972  23.569  0.00  0.00    +0.012 A 
ATOM     17  C   UNL     1       6.809  -5.198  25.229  0.00  0.00    +0.038 A 
ATOM     18  C   UNL     1       6.799  -4.571  23.993  0.00  0.00    +0.034 A 
ENDROOT
TORSDOF 0
ENDMDL
MODEL 6
REMARK VINA RESULT:      -6.4      0.857      4.562
REMARK  Name = 
REMARK  0 active torsions:
REMARK  status: ('A' for Active; 'I' for Inactive)
REMARK                            x       y       z     vdW  Elec       q    Type
REMARK                         _______ _______ _______ _____ _____    ______ ____
ROOT
ATOM      1  O   UNL     1       9.068  -0.774  26.904  0.00  0.00    -0.287 OA
ATOM      2  C   UNL     1       8.872  -1.160  25.763  0.00  0.00    +0.194 A 
ATOM      3  C   UNL     1       9.104  -0.262  24.554  0.00  0.00    +0.032 A 
ATOM      4  C   UNL     1       9.534   1.051  24.753  0.00  0.00    +0.012 A 
ATOM      5  C   UNL     1      10.022   1.781  23.667  0.00  0.00    +0.001 A 
ATOM      6  C   UNL     1      10.097   1.201  22.397  0.00  0.00    +0.001 A 
ATOM      7  C   UNL     1       9.539  -0.056  22.164  0.00  0.00    +0.011 A 
ATOM      8  C   UNL     1       8.993  -0.766  23.230  0.00  0.00    +0.014 A 
ATOM      9  C   UNL     1       8.360  -2.058  23.058  0.00  0.00    +0.102 A 
ATOM     10  N   UNL     1       7.907  -2.663  21.953  0.00  0.00    -0.173 NA
ATOM     11  N   UNL     1       7.451  -3.858  22.420  0.00  0.00    -0.276 N 
ATOM     12  H   UNL     1       7.008  -4.491  21.763  0.00  0.00    +0.189 HD
ATOM     13  C   UNL     1       7.673  -4.061  23.760  0.00  0.00    +0.067 A 
ATOM     14  C   UNL     1       7.503  -5.120  24.652  0.00  0.00    +0.028 A 
ATOM     15  C   UNL     1       7.898  -4.874  25.988  0.00  0.00    +0.003 A 
ATOM     16  C   UNL     1       8.362  -3.615  26.425  0.00  0.00    +0.012 A 
ATOM     17  C   UNL     1       8.170  -2.852  24.186  0.00  0.00    +0.038 A 
ATOM     18  C   UNL     1       8.460  -2.570  25.512  0.00  0.00    +0.034 A 
ENDROOT
TORSDOF 0
ENDMDL
MODEL 7
REMARK VINA RESULT:      -6.3      2.511      5.279
REMARK  Name = 
REMARK  0 active torsions:
REMARK  status: ('A' for Active; 'I' for Inactive)
REMARK                            x       y       z     vdW  Elec       q    Type
REMARK                         _______ _______ _______ _____ _____    ______ ____
ROOT
ATOM      1  O   UNL     1      10.500  -2.572  23.011  0.00  0.00    -0.287 OA
ATOM      2  C   UNL     1       9.407  -2.099  23.282  0.00  0.00    +0.194 A 
ATOM      3  C   UNL     1       9.042  -0.659  22.944  0.00  0.00    +0.032 A 
ATOM      4  C   UNL     1       9.990   0.156  22.323  0.00  0.00    +0.012 A 
ATOM      5  C   UNL     1       9.582   1.365  21.754  0.00  0.00    +0.001 A 
ATOM      6  C   UNL     1       8.238   1.748  21.789  0.00  0.00    +0.001 A 
ATOM      7  C   UNL     1       7.314   1.010  22.528  0.00  0.00    +0.011 A 
ATOM      8  C   UNL     1       7.726  -0.165  23.152  0.00  0.00    +0.014 A 
ATOM      9  C   UNL     1       6.834  -0.962  23.970  0.00  0.00    +0.102 A 
ATOM     10  N   UNL     1       5.657  -0.652  24.526  0.00  0.00    -0.173 NA
ATOM     11  N   UNL     1       5.293  -1.811  25.144  0.00  0.00    -0.276 N 
ATOM     12  H   UNL     1       4.436  -1.814  25.686  0.00  0.00    +0.189 HD
ATOM     13  C   UNL     1       6.155  -2.858  24.929  0.00  0.00    +0.067 A 
ATOM     14  C   UNL     1       6.169  -4.218  25.236  0.00  0.00    +0.028 A 
ATOM     15  C   UNL     1       7.297  -4.943  24.784  0.00  0.00    +0.003 A 
ATOM     16  C   UNL     1       8.387  -4.327  24.134  0.00  0.00    +0.012 A 
ATOM     17  C   UNL     1       7.200  -2.275  24.253  0.00  0.00    +0.038 A 
ATOM     18  C   UNL     1       8.355  -2.956  23.901  0.00  0.00    +0.034 A 
ENDROOT
TORSDOF 0
ENDMDL
MODEL 8
REMARK VINA RESULT:      -6.1      2.339      5.386
REMARK  Name = 
REMARK  0 active torsions:
REMARK  status: ('A' for Active; 'I' for Inactive)
REMARK                            x       y       z     vdW  Elec       q    Type
REMARK                         _______ _______ _______ _____ _____    ______ ____
ROOT
ATOM      1  O   UNL     1       9.288  -1.889  21.348  0.00  0.00    -0.287 OA
ATOM      2  C   UNL     1       9.185  -1.532  22.511  0.00  0.00    +0.194 A 
ATOM      3  C   UNL     1       9.548  -0.121  22.959  0.00  0.00    +0.032 A 
ATOM      4  C   UNL     1      10.031   0.789  22.017  0.00  0.00    +0.012 A 
ATOM      5  C   UNL     1      10.089   2.145  22.348  0.00  0.00    +0.001 A 
ATOM      6  C   UNL     1       9.653   2.590  23.599  0.00  0.00    +0.001 A 
ATOM      7  C   UNL     1       9.304   1.674  24.591  0.00  0.00    +0.011 A 
ATOM      8  C   UNL     1       9.303   0.314  24.289  0.00  0.00    +0.014 A 
ATOM      9  C   UNL     1       8.991  -0.699  25.277  0.00  0.00    +0.102 A 
ATOM     10  N   UNL     1       8.954  -0.627  26.613  0.00  0.00    -0.173 NA
ATOM     11  N   UNL     1       8.573  -1.882  26.980  0.00  0.00    -0.276 N 
ATOM     12  H   UNL     1       8.517  -2.094  27.971  0.00  0.00    +0.189 HD
ATOM     13  C   UNL     1       8.290  -2.715  25.926  0.00  0.00    +0.067 A 
ATOM     14  C   UNL     1       7.777  -4.004  25.781  0.00  0.00    +0.028 A 
ATOM     15  C   UNL     1       7.638  -4.470  24.453  0.00  0.00    +0.003 A 
ATOM     16  C   UNL     1       8.065  -3.721  23.335  0.00  0.00    +0.012 A 
ATOM     17  C   UNL     1       8.660  -1.975  24.828  0.00  0.00    +0.038 A 
ATOM     18  C   UNL     1       8.627  -2.464  23.532  0.00  0.00    +0.034 A 
ENDROOT
TORSDOF 0
ENDMDL
MODEL 9
REMARK VINA RESULT:      -6.0      2.006      4.825
REMARK  Name = 
REMARK  0 active torsions:
REMARK  status: ('A' for Active; 'I' for Inactive)
REMARK                            x       y       z     vdW  Elec       q    Type
REMARK                         _______ _______ _______ _____ _____    ______ ____
ROOT
ATOM      1  O   UNL     1       5.666   0.192  24.429  0.00  0.00    -0.287 OA
ATOM      2  C   UNL     1       6.724  -0.388  24.241  0.00  0.00    +0.194 A 
ATOM      3  C   UNL     1       7.756   0.116  23.239  0.00  0.00    +0.032 A 
ATOM      4  C   UNL     1       7.480   1.266  22.497  0.00  0.00    +0.012 A 
ATOM      5  C   UNL     1       8.516   1.893  21.802  0.00  0.00    +0.001 A 
ATOM      6  C   UNL     1       9.818   1.390  21.861  0.00  0.00    +0.001 A 
ATOM      7  C   UNL     1      10.073   0.167  22.482  0.00  0.00    +0.011 A 
ATOM      8  C   UNL     1       9.032  -0.498  23.125  0.00  0.00    +0.014 A 
ATOM      9  C   UNL     1       9.211  -1.791  23.756  0.00  0.00    +0.102 A 
ATOM     10  N   UNL     1      10.187  -2.696  23.620  0.00  0.00    -0.173 NA
ATOM     11  N   UNL     1       9.818  -3.681  24.485  0.00  0.00    -0.276 N 
ATOM     12  H   UNL     1      10.390  -4.518  24.529  0.00  0.00    +0.189 HD
ATOM     13  C   UNL     1       8.692  -3.394  25.218  0.00  0.00    +0.067 A 
ATOM     14  C   UNL     1       8.003  -4.000  26.268  0.00  0.00    +0.028 A 
ATOM     15  C   UNL     1       6.859  -3.312  26.736  0.00  0.00    +0.003 A 
ATOM     16  C   UNL     1       6.384  -2.127  26.135  0.00  0.00    +0.012 A 
ATOM     17  C   UNL     1       8.249  -2.214  24.669  0.00  0.00    +0.038 A 
ATOM     18  C   UNL     1       7.071  -1.590  25.051  0.00  0.00    +0.034 A 
ENDROOT
TORSDOF 0
ENDMDL
