MODEL 1
REMARK VINA RESULT:       2.6      0.000      0.000
REMARK  Name = 
REMARK  59 active torsions:
REMARK  status: ('A' for Active; 'I' for Inactive)
REMARK    1  A    between atoms: C_1  and  C_2
REMARK    2  A    between atoms: C_2  and  C_3
REMARK    3  A    between atoms: C_3  and  C_4
REMARK    4  A    between atoms: C_4  and  C_5
REMARK    5  A    between atoms: C_5  and  N_7
REMARK    6  A    between atoms: C_5  and  C_38
REMARK    7  A    between atoms: C_8  and  C_10
REMARK    8  A    between atoms: C_10  and  C_12
REMARK    9  A    between atoms: C_10  and  N_14
REMARK   10  A    between atoms: C_12  and  O_13
REMARK   11  A    between atoms: C_15  and  C_17
REMARK   12  A    between atoms: C_17  and  C_19
REMARK   13  A    between atoms: C_17  and  N_27
REMARK   14  A    between atoms: C_19  and  C_20
REMARK   15  A    between atoms: C_23  and  O_24
REMARK   16  A    between atoms: C_28  and  C_30
REMARK   17  A    between atoms: C_30  and  C_32
REMARK   18  A    between atoms: C_30  and  N_34
REMARK   19  A    between atoms: C_32  and  O_33
REMARK   20  A    between atoms: C_35  and  C_36
REMARK   21  A    between atoms: N_40  and  C_41
REMARK   22  A    between atoms: C_41  and  C_43
REMARK   23  A    between atoms: C_41  and  C_48
REMARK   24  A    between atoms: C_43  and  C_44
REMARK   25  A    between atoms: C_44  and  C_45
REMARK   26  A    between atoms: C_45  and  O_46
REMARK   27  A    between atoms: N_50  and  C_51
REMARK   28  A    between atoms: C_51  and  C_53
REMARK   29  A    between atoms: C_51  and  C_59
REMARK   30  A    between atoms: C_53  and  C_54
REMARK   31  A    between atoms: N_61  and  C_62
REMARK   32  A    between atoms: C_62  and  C_64
REMARK   33  A    between atoms: C_62  and  C_71
REMARK   34  A    between atoms: C_64  and  C_65
REMARK   35  A    between atoms: N_73  and  C_74
REMARK   36  A    between atoms: C_74  and  C_76
REMARK   37  A    between atoms: C_74  and  C_83
REMARK   38  A    between atoms: C_76  and  C_77
REMARK   39  A    between atoms: C_77  and  C_78
REMARK   40  A    between atoms: C_78  and  N_79
REMARK   41  A    between atoms: N_85  and  C_86
REMARK   42  A    between atoms: C_86  and  C_88
REMARK   43  A    between atoms: C_86  and  C_98
REMARK   44  A    between atoms: C_88  and  C_89
REMARK   45  A    between atoms: N_100  and  C_101
REMARK   46  A    between atoms: C_101  and  C_102
REMARK   47  A    between atoms: N_104  and  C_105
REMARK   48  A    between atoms: C_105  and  C_107
REMARK   49  A    between atoms: C_105  and  C_112
REMARK   50  A    between atoms: C_107  and  C_108
REMARK   51  A    between atoms: C_108  and  C_109
REMARK   52  A    between atoms: C_109  and  C_110
REMARK   53  A    between atoms: C_110  and  N_111
REMARK   54  A    between atoms: C_118  and  C_120
REMARK   55  A    between atoms: N_122  and  C_123
REMARK   56  A    between atoms: C_123  and  C_125
REMARK   57  A    between atoms: C_123  and  C_128
REMARK   58  A    between atoms: C_125  and  C_126
REMARK   59  A    between atoms: C_125  and  C_127
REMARK                            x       y       z     vdW  Elec       q    Type
REMARK                         _______ _______ _______ _____ _____    ______ ____
ROOT
ATOM      1  C   UNK A   1       2.022   0.446  29.065  0.00  0.00    +0.163 C 
ENDROOT
BRANCH   1   2
ATOM      2  C   UNK A   1       2.828  -0.493  28.104  0.00  0.00    +0.234 C 
ATOM      3  N   UNK A   1       2.405  -0.578  26.792  0.00  0.00    -0.302 N 
ATOM      4  H   UNK A   1       1.501  -0.191  26.542  0.00  0.00    +0.150 HD
ATOM      5  O   UNK A   1       3.854  -1.044  28.483  0.00  0.00    -0.274 OA
BRANCH   3   6
ATOM      6  C   UNK A   1       3.128  -1.373  25.780  0.00  0.00    +0.159 C 
BRANCH   6   7
ATOM      7  C   UNK A   1       2.994  -2.908  26.011  0.00  0.00    +0.234 C 
ATOM      8  N   UNK A   1       2.121  -3.294  27.019  0.00  0.00    -0.302 N 
ATOM      9  H   UNK A   1       1.701  -2.594  27.626  0.00  0.00    +0.150 HD
ATOM     10  O   UNK A   1       3.600  -3.717  25.309  0.00  0.00    -0.274 OA
BRANCH   8  11
ATOM     11  C   UNK A   1       1.826  -4.705  27.378  0.00  0.00    +0.163 C 
BRANCH  11  12
ATOM     12  C   UNK A   1       3.026  -5.645  26.928  0.00  0.00    +0.234 C 
ATOM     13  N   UNK A   1       3.841  -6.197  27.916  0.00  0.00    -0.305 N 
ATOM     14  H   UNK A   1       3.906  -5.702  28.797  0.00  0.00    +0.149 HD
ATOM     15  O   UNK A   1       3.240  -5.877  25.735  0.00  0.00    -0.274 OA
BRANCH  13  16
ATOM     16  C   UNK A   1       4.980  -7.100  27.589  0.00  0.00    +0.200 C 
BRANCH  16  17
ATOM     17  C   UNK A   1       5.462  -6.998  26.108  0.00  0.00    +0.231 C 
ATOM     18  N   UNK A   1       6.344  -6.006  25.764  0.00  0.00    -0.303 N 
ATOM     19  H   UNK A   1       7.022  -5.704  26.450  0.00  0.00    +0.149 HD
ATOM     20  O   UNK A   1       5.041  -7.778  25.246  0.00  0.00    -0.274 OA
BRANCH  18  21
ATOM     21  C   UNK A   1       6.610  -5.690  24.329  0.00  0.00    +0.159 C 
BRANCH  21  22
ATOM     22  C   UNK A   1       8.120  -5.768  23.951  0.00  0.00    +0.237 C 
ATOM     23  N   UNK A   1       9.057  -5.173  24.786  0.00  0.00    -0.288 N 
ATOM     24  C   UNK A   1       8.875  -4.420  26.036  0.00  0.00    +0.162 C 
ATOM     25  C   UNK A   1      10.178  -4.691  26.835  0.00  0.00    +0.033 C 
ATOM     26  C   UNK A   1      11.143  -5.382  25.876  0.00  0.00    +0.021 C 
ATOM     27  C   UNK A   1      10.481  -5.299  24.511  0.00  0.00    +0.109 C 
ATOM     28  O   UNK A   1       8.464  -6.393  22.943  0.00  0.00    -0.274 OA
BRANCH  24  29
ATOM     29  C   UNK A   1       8.671  -2.880  25.907  0.00  0.00    +0.234 C 
ATOM     30  N   UNK A   1       8.133  -2.188  26.980  0.00  0.00    -0.302 N 
ATOM     31  H   UNK A   1       7.619  -2.701  27.688  0.00  0.00    +0.150 HD
ATOM     32  O   UNK A   1       9.126  -2.270  24.936  0.00  0.00    -0.274 OA
BRANCH  30  33
ATOM     33  C   UNK A   1       7.965  -0.708  26.906  0.00  0.00    +0.161 C 
BRANCH  33  34
ATOM     34  C   UNK A   1       9.193   0.158  27.324  0.00  0.00    +0.231 C 
ATOM     35  O   UNK A   1       9.587   0.317  28.477  0.00  0.00    -0.274 OA
ATOM     36  N   UNK A   1       9.820   0.886  26.372  0.00  0.00    -0.328 N 
ATOM     37  H   UNK A   1      10.694   1.279  26.692  0.00  0.00    +0.145 HD
ATOM     38  H   UNK A   1       9.826   0.525  25.427  0.00  0.00    +0.145 HD
ENDBRANCH  33  34
BRANCH  33  39
ATOM     39  C   UNK A   1       6.658  -0.239  27.618  0.00  0.00    +0.012 C 
ATOM     40  C   UNK A   1       6.638   1.239  28.016  0.00  0.00    +0.009 C 
ATOM     41  C   UNK A   1       6.296  -1.120  28.815  0.00  0.00    +0.009 C 
ENDBRANCH  33  39
ENDBRANCH  30  33
ENDBRANCH  24  29
ENDBRANCH  21  22
BRANCH  21  42
ATOM     42  C   UNK A   1       6.037  -4.303  23.966  0.00  0.00    +0.032 C 
BRANCH  42  43
ATOM     43  C   UNK A   1       5.274  -4.373  22.638  0.00  0.00    +0.003 C 
BRANCH  43  44
ATOM     44  C   UNK A   1       4.623  -5.730  22.370  0.00  0.00    +0.015 C 
BRANCH  44  45
ATOM     45  C   UNK A   1       5.133  -6.292  21.039  0.00  0.00    +0.077 C 
BRANCH  45  46
ATOM     46  N   UNK A   1       6.386  -7.007  21.220  0.00  0.00    -0.330 NA
ATOM     47  H   UNK A   1       6.493  -7.253  22.206  0.00  0.00    +0.118 HD
ATOM     48  H   UNK A   1       6.356  -7.890  20.713  0.00  0.00    +0.118 HD
ENDBRANCH  45  46
ENDBRANCH  44  45
ENDBRANCH  43  44
ENDBRANCH  42  43
ENDBRANCH  21  42
ENDBRANCH  18  21
ENDBRANCH  16  17
ENDBRANCH  13  16
ENDBRANCH  11  12
BRANCH  11  49
ATOM     49  C   UNK A   1       0.455  -5.168  26.828  0.00  0.00    +0.069 C 
BRANCH  49  50
ATOM     50  C   UNK A   1       0.520  -6.458  26.065  0.00  0.00    -0.020 A 
ATOM     51  C   UNK A   1       0.614  -6.653  24.645  0.00  0.00    +0.003 A 
ATOM     52  C   UNK A   1       0.770  -8.024  24.429  0.00  0.00    +0.047 A 
ATOM     53  C   UNK A   1       0.928  -8.588  23.158  0.00  0.00    +0.026 A 
ATOM     54  C   UNK A   1       0.845  -7.734  22.056  0.00  0.00    +0.002 A 
ATOM     55  C   UNK A   1       0.662  -6.364  22.228  0.00  0.00    +0.001 A 
ATOM     56  N   UNK A   1       0.718  -8.636  25.657  0.00  0.00    -0.360 N 
ATOM     57  H   UNK A   1       0.814  -9.630  25.805  0.00  0.00    +0.165 HD
ATOM     58  C   UNK A   1       0.579  -5.806  23.513  0.00  0.00    +0.010 A 
ATOM     59  C   UNK A   1       0.452  -7.716  26.631  0.00  0.00    +0.087 A 
ENDBRANCH  49  50
ENDBRANCH  11  49
ENDBRANCH   8  11
ENDBRANCH   6   7
BRANCH   6  60
ATOM     60  C   UNK A   1       4.614  -0.987  25.701  0.00  0.00    +0.035 C 
BRANCH  60  61
ATOM     61  C   UNK A   1       4.993  -0.321  24.369  0.00  0.00    +0.039 C 
BRANCH  61  62
ATOM     62  C   UNK A   1       4.662   1.170  24.351  0.00  0.00    +0.196 C 
BRANCH  62  63
ATOM     63  N   UNK A   1       5.515   1.869  23.411  0.00  0.00    -0.276 N 
ATOM     64  H   UNK A   1       6.319   2.326  23.826  0.00  0.00    +0.258 HD
ATOM     65  C   UNK A   1       5.075   2.495  22.301  0.00  0.00    +0.376 C 
ATOM     66  N   UNK A   1       3.930   2.404  21.738  0.00  0.00    -0.130 NA
ATOM     67  H   UNK A   1       3.349   1.757  22.273  0.00  0.00    +0.306 HD
ATOM     68  N   UNK A   1       6.028   3.282  21.766  0.00  0.00    -0.289 N 
ATOM     69  H   UNK A   1       5.741   3.570  20.837  0.00  0.00    +0.255 HD
ATOM     70  H   UNK A   1       6.943   2.852  21.747  0.00  0.00    +0.255 HD
ENDBRANCH  62  63
ENDBRANCH  61  62
ENDBRANCH  60  61
ENDBRANCH   6  60
ENDBRANCH   3   6
ENDBRANCH   1   2
BRANCH   1  72
ATOM     71  C   UNK A   1       3.441   2.374  28.379  0.00  0.00    +0.234 C 
ATOM     72  N   UNK A   1       2.653   1.766  29.341  0.00  0.00    -0.302 N 
ATOM     73  H   UNK A   1       2.239   2.319  30.084  0.00  0.00    +0.150 HD
ATOM     74  O   UNK A   1       3.714   1.783  27.331  0.00  0.00    -0.274 OA
BRANCH  71  75
ATOM     75  C   UNK A   1       3.891   3.862  28.590  0.00  0.00    +0.165 C 
BRANCH  75  77
ATOM     76  C   UNK A   1       2.197   4.925  27.104  0.00  0.00    +0.234 C 
ATOM     77  N   UNK A   1       3.486   4.901  27.619  0.00  0.00    -0.302 N 
ATOM     78  H   UNK A   1       4.101   5.701  27.480  0.00  0.00    +0.150 HD
ATOM     79  O   UNK A   1       1.356   4.066  27.371  0.00  0.00    -0.274 OA
BRANCH  76  80
ATOM     80  C   UNK A   1       1.833   6.119  26.193  0.00  0.00    +0.159 C 
BRANCH  80  82
ATOM     81  C   UNK A   1       2.766   6.836  23.982  0.00  0.00    +0.234 C 
ATOM     82  N   UNK A   1       2.952   6.348  25.260  0.00  0.00    -0.302 N 
ATOM     83  H   UNK A   1       3.904   6.136  25.567  0.00  0.00    +0.150 HD
ATOM     84  O   UNK A   1       1.640   7.082  23.556  0.00  0.00    -0.274 OA
BRANCH  81  85
ATOM     85  C   UNK A   1       4.061   7.102  23.166  0.00  0.00    +0.159 C 
BRANCH  85  86
ATOM     86  N   UNK A   1       5.247   6.736  23.943  0.00  0.00    -0.302 N 
ATOM     87  H   UNK A   1       5.952   7.454  24.123  0.00  0.00    +0.150 HD
ATOM     88  C   UNK A   1       5.489   5.476  24.434  0.00  0.00    +0.236 C 
ATOM     89  O   UNK A   1       4.821   4.506  24.074  0.00  0.00    -0.274 OA
BRANCH  88  90
ATOM     90  C   UNK A   1       6.773   5.324  25.284  0.00  0.00    +0.184 C 
BRANCH  90  91
ATOM     91  N   UNK A   1       7.791   4.713  24.419  0.00  0.00    -0.301 N 
ATOM     92  H   UNK A   1       8.001   5.217  23.564  0.00  0.00    +0.150 HD
ATOM     93  C   UNK A   1       8.119   3.376  24.495  0.00  0.00    +0.234 C 
ATOM     94  O   UNK A   1       7.646   2.635  25.354  0.00  0.00    -0.274 OA
BRANCH  93  95
ATOM     95  C   UNK A   1       9.112   2.867  23.434  0.00  0.00    +0.163 C 
BRANCH  95  96
ATOM     96  N   UNK A   1      10.222   3.826  23.351  0.00  0.00    -0.302 N 
ATOM     97  H   UNK A   1      11.040   3.504  22.829  0.00  0.00    +0.150 HD
ATOM     98  C   UNK A   1      10.526   4.688  24.381  0.00  0.00    +0.236 C 
ATOM     99  O   UNK A   1       9.887   4.712  25.436  0.00  0.00    -0.274 OA
BRANCH  98 100
ATOM    100  C   UNK A   1      11.676   5.693  24.104  0.00  0.00    +0.184 C 
BRANCH 100 101
ATOM    101  N   UNK A   1      12.127   5.703  22.706  0.00  0.00    -0.302 N 
ATOM    102  H   UNK A   1      11.421   5.567  21.994  0.00  0.00    +0.150 HD
ATOM    103  C   UNK A   0      13.395   6.041  22.314  0.00  0.00    +0.211 C 
ATOM    104  O   UNK A   0      14.281   6.330  23.111  0.00  0.00    -0.276 OA
ATOM    105  C   UNK A   0      13.649   5.968  20.831  0.00  0.00    +0.109 C 
ENDBRANCH 100 101
BRANCH 100 106
ATOM    106  C   UNK A   1      11.508   7.086  24.736  0.00  0.00    +0.187 C 
BRANCH 106 107
ATOM    107  O   UNK A   1      11.458   7.081  26.160  0.00  0.00    -0.393 OA
ATOM    108  H   UNK A   1      10.596   6.685  26.429  0.00  0.00    +0.209 HD
ENDBRANCH 106 107
ENDBRANCH 100 106
ENDBRANCH  98 100
ENDBRANCH  95  96
BRANCH  95 109
ATOM    109  C   UNK A   1       9.597   1.468  23.851  0.00  0.00    +0.067 C 
BRANCH 109 110
ATOM    110  C   UNK A   1       8.961   0.336  23.079  0.00  0.00    -0.045 A 
ATOM    111  C   UNK A   1       7.652  -0.080  23.364  0.00  0.00    +0.007 A 
ATOM    112  C   UNK A   1       7.084  -1.142  22.656  0.00  0.00    +0.045 A 
ATOM    113  C   UNK A   1       7.813  -1.776  21.658  0.00  0.00    +0.117 A 
ATOM    114  C   UNK A   1       9.111  -1.376  21.359  0.00  0.00    +0.045 A 
ATOM    115  C   UNK A   1       9.682  -0.320  22.070  0.00  0.00    +0.007 A 
BRANCH 113 116
ATOM    116  O   UNK A   1       7.218  -2.807  20.993  0.00  0.00    -0.507 OA
ATOM    117  H   UNK A   1       6.606  -3.253  21.600  0.00  0.00    +0.292 HD
ENDBRANCH 113 116
ENDBRANCH 109 110
ENDBRANCH  95 109
ENDBRANCH  93  95
ENDBRANCH  90  91
BRANCH  90 118
ATOM    118  C   UNK A   1       7.177   6.664  25.929  0.00  0.00    +0.187 C 
BRANCH 118 119
ATOM    119  O   UNK A   1       8.472   7.073  25.469  0.00  0.00    -0.393 OA
ATOM    120  H   UNK A   1       8.304   7.557  24.634  0.00  0.00    +0.209 HD
ENDBRANCH 118 119
ENDBRANCH  90 118
ENDBRANCH  88  90
ENDBRANCH  85  86
BRANCH  85 121
ATOM    121  C   UNK A   1       4.098   6.334  21.831  0.00  0.00    +0.032 C 
BRANCH 121 122
ATOM    122  C   UNK A   1       2.900   5.422  21.537  0.00  0.00    +0.002 C 
BRANCH 122 124
ATOM    123  C   UNK A   1       2.784   6.910  19.518  0.00  0.00    +0.004 C 
ATOM    124  C   UNK A   1       2.289   5.619  20.151  0.00  0.00    -0.003 C 
ENDBRANCH 122 124
ENDBRANCH 121 122
ENDBRANCH  85 121
ENDBRANCH  81  85
ENDBRANCH  80  82
BRANCH  80 125
ATOM    125  C   UNK A   1       0.534   5.800  25.424  0.00  0.00    +0.043 C 
BRANCH 125 126
ATOM    126  C   UNK A   1       0.668   4.780  24.300  0.00  0.00    +0.123 C 
BRANCH 126 127
ATOM    127  C   UNK A   1       1.117   3.441  24.812  0.00  0.00    +0.305 C 
ATOM    128  O   UNK A   1       2.013   2.806  24.270  0.00  0.00    -0.251 OA
BRANCH 127 129
ATOM    129  O   UNK A   1       0.527   3.070  25.966  0.00  0.00    -0.481 OA
ATOM    130  H   UNK A   1      -0.025   3.757  26.394  0.00  0.00    +0.295 HD
ENDBRANCH 127 129
ENDBRANCH 126 127
ENDBRANCH 125 126
ENDBRANCH  80 125
ENDBRANCH  76  80
ENDBRANCH  75  77
BRANCH  75 131
ATOM    131  C   UNK A   1       3.620   4.273  30.063  0.00  0.00    +0.086 C 
BRANCH 131 132
ATOM    132  C   UNK A   1       2.504   5.249  30.258  0.00  0.00    +0.038 A 
ATOM    133  N   UNK A   1       1.193   4.891  30.465  0.00  0.00    -0.348 N 
ATOM    134  H   UNK A   1       0.838   3.954  30.548  0.00  0.00    +0.166 HD
ATOM    135  C   UNK A   1       0.448   6.033  30.485  0.00  0.00    +0.196 A 
ATOM    136  N   UNK A   1       1.196   7.098  30.328  0.00  0.00    -0.244 NA
ATOM    137  C   UNK A   1       2.473   6.622  30.169  0.00  0.00    +0.133 A 
ENDBRANCH 131 132
ENDBRANCH  75 131
ENDBRANCH  71  75
ENDBRANCH   1  72
BRANCH   1 138
ATOM    138  C   UNK A   1       1.729  -0.365  30.357  0.00  0.00    +0.067 C 
BRANCH 138 139
ATOM    139  C   UNK A   1       1.923  -1.869  30.284  0.00  0.00    -0.045 A 
ATOM    140  C   UNK A   1       3.225  -2.386  30.172  0.00  0.00    +0.004 A 
ATOM    141  C   UNK A   1       3.459  -3.759  30.265  0.00  0.00    +0.000 A 
ATOM    142  C   UNK A   1       2.393  -4.635  30.448  0.00  0.00    +0.000 A 
ATOM    143  C   UNK A   1       1.089  -4.144  30.445  0.00  0.00    +0.000 A 
ATOM    144  C   UNK A   1       0.854  -2.771  30.331  0.00  0.00    +0.004 A 
ENDBRANCH 138 139
ENDBRANCH   1 138
TORSDOF 55
ENDMDL
MODEL 2
REMARK VINA RESULT:       3.2      2.184      9.934
REMARK  Name = 
REMARK  59 active torsions:
REMARK  status: ('A' for Active; 'I' for Inactive)
REMARK    1  A    between atoms: C_1  and  C_2
REMARK    2  A    between atoms: C_2  and  C_3
REMARK    3  A    between atoms: C_3  and  C_4
REMARK    4  A    between atoms: C_4  and  C_5
REMARK    5  A    between atoms: C_5  and  N_7
REMARK    6  A    between atoms: C_5  and  C_38
REMARK    7  A    between atoms: C_8  and  C_10
REMARK    8  A    between atoms: C_10  and  C_12
REMARK    9  A    between atoms: C_10  and  N_14
REMARK   10  A    between atoms: C_12  and  O_13
REMARK   11  A    between atoms: C_15  and  C_17
REMARK   12  A    between atoms: C_17  and  C_19
REMARK   13  A    between atoms: C_17  and  N_27
REMARK   14  A    between atoms: C_19  and  C_20
REMARK   15  A    between atoms: C_23  and  O_24
REMARK   16  A    between atoms: C_28  and  C_30
REMARK   17  A    between atoms: C_30  and  C_32
REMARK   18  A    between atoms: C_30  and  N_34
REMARK   19  A    between atoms: C_32  and  O_33
REMARK   20  A    between atoms: C_35  and  C_36
REMARK   21  A    between atoms: N_40  and  C_41
REMARK   22  A    between atoms: C_41  and  C_43
REMARK   23  A    between atoms: C_41  and  C_48
REMARK   24  A    between atoms: C_43  and  C_44
REMARK   25  A    between atoms: C_44  and  C_45
REMARK   26  A    between atoms: C_45  and  O_46
REMARK   27  A    between atoms: N_50  and  C_51
REMARK   28  A    between atoms: C_51  and  C_53
REMARK   29  A    between atoms: C_51  and  C_59
REMARK   30  A    between atoms: C_53  and  C_54
REMARK   31  A    between atoms: N_61  and  C_62
REMARK   32  A    between atoms: C_62  and  C_64
REMARK   33  A    between atoms: C_62  and  C_71
REMARK   34  A    between atoms: C_64  and  C_65
REMARK   35  A    between atoms: N_73  and  C_74
REMARK   36  A    between atoms: C_74  and  C_76
REMARK   37  A    between atoms: C_74  and  C_83
REMARK   38  A    between atoms: C_76  and  C_77
REMARK   39  A    between atoms: C_77  and  C_78
REMARK   40  A    between atoms: C_78  and  N_79
REMARK   41  A    between atoms: N_85  and  C_86
REMARK   42  A    between atoms: C_86  and  C_88
REMARK   43  A    between atoms: C_86  and  C_98
REMARK   44  A    between atoms: C_88  and  C_89
REMARK   45  A    between atoms: N_100  and  C_101
REMARK   46  A    between atoms: C_101  and  C_102
REMARK   47  A    between atoms: N_104  and  C_105
REMARK   48  A    between atoms: C_105  and  C_107
REMARK   49  A    between atoms: C_105  and  C_112
REMARK   50  A    between atoms: C_107  and  C_108
REMARK   51  A    between atoms: C_108  and  C_109
REMARK   52  A    between atoms: C_109  and  C_110
REMARK   53  A    between atoms: C_110  and  N_111
REMARK   54  A    between atoms: C_118  and  C_120
REMARK   55  A    between atoms: N_122  and  C_123
REMARK   56  A    between atoms: C_123  and  C_125
REMARK   57  A    between atoms: C_123  and  C_128
REMARK   58  A    between atoms: C_125  and  C_126
REMARK   59  A    between atoms: C_125  and  C_127
REMARK                            x       y       z     vdW  Elec       q    Type
REMARK                         _______ _______ _______ _____ _____    ______ ____
ROOT
ATOM      1  C   UNK A   1       2.815  -0.788  29.268  0.00  0.00    +0.163 C 
ENDROOT
BRANCH   1   2
ATOM      2  C   UNK A   1       1.870   0.177  28.473  0.00  0.00    +0.234 C 
ATOM      3  N   UNK A   1       1.728   1.467  28.947  0.00  0.00    -0.302 N 
ATOM      4  H   UNK A   1       2.078   1.690  29.872  0.00  0.00    +0.150 HD
ATOM      5  O   UNK A   1       1.365  -0.176  27.414  0.00  0.00    -0.274 OA
BRANCH   3   6
ATOM      6  C   UNK A   1       0.923   2.482  28.240  0.00  0.00    +0.159 C 
BRANCH   6   7
ATOM      7  C   UNK A   1       1.674   3.110  27.028  0.00  0.00    +0.234 C 
ATOM      8  N   UNK A   1       1.019   4.150  26.384  0.00  0.00    -0.302 N 
ATOM      9  H   UNK A   1       0.063   4.386  26.637  0.00  0.00    +0.150 HD
ATOM     10  O   UNK A   1       2.796   2.723  26.699  0.00  0.00    -0.274 OA
BRANCH   8  11
ATOM     11  C   UNK A   1       1.574   4.903  25.230  0.00  0.00    +0.163 C 
BRANCH  11  12
ATOM     12  C   UNK A   1       2.617   5.989  25.737  0.00  0.00    +0.234 C 
ATOM     13  N   UNK A   1       3.844   6.086  25.082  0.00  0.00    -0.305 N 
ATOM     14  H   UNK A   1       4.185   5.260  24.606  0.00  0.00    +0.149 HD
ATOM     15  O   UNK A   1       2.355   6.725  26.693  0.00  0.00    -0.274 OA
BRANCH  13  16
ATOM     16  C   UNK A   1       4.877   7.083  25.480  0.00  0.00    +0.200 C 
BRANCH  16  17
ATOM     17  C   UNK A   1       6.211   6.447  25.978  0.00  0.00    +0.231 C 
ATOM     18  N   UNK A   1       7.025   5.817  25.072  0.00  0.00    -0.303 N 
ATOM     19  H   UNK A   1       7.053   6.167  24.124  0.00  0.00    +0.149 HD
ATOM     20  O   UNK A   1       6.527   6.482  27.173  0.00  0.00    -0.274 OA
BRANCH  18  21
ATOM     21  C   UNK A   1       8.154   4.956  25.535  0.00  0.00    +0.159 C 
BRANCH  21  22
ATOM     22  C   UNK A   1       9.533   5.680  25.507  0.00  0.00    +0.237 C 
ATOM     23  N   UNK A   1      10.437   5.374  24.497  0.00  0.00    -0.288 N 
ATOM     24  C   UNK A   1      10.332   4.418  23.385  0.00  0.00    +0.162 C 
ATOM     25  C   UNK A   1      11.202   5.045  22.262  0.00  0.00    +0.033 C 
ATOM     26  C   UNK A   1      11.964   6.205  22.897  0.00  0.00    +0.021 C 
ATOM     27  C   UNK A   1      11.699   6.092  24.388  0.00  0.00    +0.109 C 
ATOM     28  O   UNK A   1       9.784   6.544  26.352  0.00  0.00    -0.274 OA
BRANCH  24  29
ATOM     29  C   UNK A   1      10.826   2.964  23.656  0.00  0.00    +0.234 C 
ATOM     30  N   UNK A   1      10.368   1.943  22.840  0.00  0.00    -0.302 N 
ATOM     31  H   UNK A   1       9.524   2.089  22.297  0.00  0.00    +0.150 HD
ATOM     32  O   UNK A   1      11.725   2.755  24.474  0.00  0.00    -0.274 OA
BRANCH  30  33
ATOM     33  C   UNK A   1      10.854   0.548  23.045  0.00  0.00    +0.161 C 
BRANCH  33  34
ATOM     34  C   UNK A   1      10.180  -0.563  22.183  0.00  0.00    +0.231 C 
ATOM     35  O   UNK A   1      10.048  -1.737  22.520  0.00  0.00    -0.274 OA
ATOM     36  N   UNK A   1       9.802  -0.257  20.921  0.00  0.00    -0.328 N 
ATOM     37  H   UNK A   1       9.230  -0.974  20.499  0.00  0.00    +0.145 HD
ATOM     38  H   UNK A   1       9.518   0.695  20.729  0.00  0.00    +0.145 HD
ENDBRANCH  33  34
BRANCH  33  39
ATOM     39  C   UNK A   1      10.888   0.165  24.557  0.00  0.00    +0.012 C 
ATOM     40  C   UNK A   1       9.752   0.754  25.395  0.00  0.00    +0.009 C 
ATOM     41  C   UNK A   1      12.241   0.465  25.206  0.00  0.00    +0.009 C 
ENDBRANCH  33  39
ENDBRANCH  30  33
ENDBRANCH  24  29
ENDBRANCH  21  22
BRANCH  21  42
ATOM     42  C   UNK A   1       8.215   3.654  24.707  0.00  0.00    +0.032 C 
BRANCH  42  43
ATOM     43  C   UNK A   1       7.218   2.627  25.255  0.00  0.00    +0.003 C 
BRANCH  43  44
ATOM     44  C   UNK A   1       6.966   2.750  26.758  0.00  0.00    +0.015 C 
BRANCH  44  45
ATOM     45  C   UNK A   1       5.554   3.290  27.002  0.00  0.00    +0.077 C 
BRANCH  45  46
ATOM     46  N   UNK A   1       4.562   2.495  26.296  0.00  0.00    -0.330 NA
ATOM     47  H   UNK A   1       5.037   1.781  25.741  0.00  0.00    +0.118 HD
ATOM     48  H   UNK A   1       3.984   1.989  26.967  0.00  0.00    +0.118 HD
ENDBRANCH  45  46
ENDBRANCH  44  45
ENDBRANCH  43  44
ENDBRANCH  42  43
ENDBRANCH  21  42
ENDBRANCH  18  21
ENDBRANCH  16  17
ENDBRANCH  13  16
ENDBRANCH  11  12
BRANCH  11  49
ATOM     49  C   UNK A   1       0.459   5.504  24.339  0.00  0.00    +0.069 C 
BRANCH  49  50
ATOM     50  C   UNK A   1       0.824   5.573  22.886  0.00  0.00    -0.020 A 
ATOM     51  C   UNK A   1       1.076   4.490  21.975  0.00  0.00    +0.003 A 
ATOM     52  C   UNK A   1       1.255   5.054  20.710  0.00  0.00    +0.047 A 
ATOM     53  C   UNK A   1       1.490   4.295  19.558  0.00  0.00    +0.026 A 
ATOM     54  C   UNK A   1       1.628   2.914  19.710  0.00  0.00    +0.002 A 
ATOM     55  C   UNK A   1       1.485   2.317  20.959  0.00  0.00    +0.001 A 
ATOM     56  N   UNK A   1       1.169   6.417  20.857  0.00  0.00    -0.360 N 
ATOM     57  H   UNK A   1       1.251   7.080  20.099  0.00  0.00    +0.165 HD
ATOM     58  C   UNK A   1       1.176   3.085  22.093  0.00  0.00    +0.010 A 
ATOM     59  C   UNK A   1       1.027   6.741  22.176  0.00  0.00    +0.087 A 
ENDBRANCH  49  50
ENDBRANCH  11  49
ENDBRANCH   8  11
ENDBRANCH   6   7
BRANCH   6  60
ATOM     60  C   UNK A   1       0.443   3.594  29.187  0.00  0.00    +0.035 C 
BRANCH  60  61
ATOM     61  C   UNK A   1       0.996   4.980  28.819  0.00  0.00    +0.039 C 
BRANCH  61  62
ATOM     62  C   UNK A   1       0.925   5.962  29.987  0.00  0.00    +0.196 C 
BRANCH  62  63
ATOM     63  N   UNK A   1       2.182   6.668  30.134  0.00  0.00    -0.276 N 
ATOM     64  H   UNK A   1       2.130   7.667  29.975  0.00  0.00    +0.258 HD
ATOM     65  C   UNK A   1       3.388   6.153  29.819  0.00  0.00    +0.376 C 
ATOM     66  N   UNK A   1       3.693   4.934  29.577  0.00  0.00    -0.130 NA
ATOM     67  H   UNK A   1       2.852   4.361  29.653  0.00  0.00    +0.306 HD
ATOM     68  N   UNK A   1       4.342   7.103  29.795  0.00  0.00    -0.289 N 
ATOM     69  H   UNK A   1       5.253   6.661  29.761  0.00  0.00    +0.255 HD
ATOM     70  H   UNK A   1       4.282   7.755  30.566  0.00  0.00    +0.255 HD
ENDBRANCH  62  63
ENDBRANCH  61  62
ENDBRANCH  60  61
ENDBRANCH   6  60
ENDBRANCH   3   6
ENDBRANCH   1   2
BRANCH   1  72
ATOM     71  C   UNK A   1       1.050  -2.529  29.045  0.00  0.00    +0.234 C 
ATOM     72  N   UNK A   1       2.211  -2.091  29.657  0.00  0.00    -0.302 N 
ATOM     73  H   UNK A   1       2.825  -2.754  30.119  0.00  0.00    +0.150 HD
ATOM     74  O   UNK A   1       0.448  -1.799  28.253  0.00  0.00    -0.274 OA
BRANCH  71  75
ATOM     75  C   UNK A   1       0.567  -4.002  29.287  0.00  0.00    +0.165 C 
BRANCH  75  77
ATOM     76  C   UNK A   1       1.490  -5.089  27.244  0.00  0.00    +0.234 C 
ATOM     77  N   UNK A   1       0.447  -4.937  28.149  0.00  0.00    -0.302 N 
ATOM     78  H   UNK A   1      -0.326  -5.600  28.145  0.00  0.00    +0.150 HD
ATOM     79  O   UNK A   1       2.524  -4.423  27.300  0.00  0.00    -0.274 OA
BRANCH  76  80
ATOM     80  C   UNK A   1       1.319  -6.177  26.161  0.00  0.00    +0.159 C 
BRANCH  80  82
ATOM     81  C   UNK A   1       3.647  -5.719  25.357  0.00  0.00    +0.234 C 
ATOM     82  N   UNK A   1       2.660  -6.612  25.725  0.00  0.00    -0.302 N 
ATOM     83  H   UNK A   1       2.869  -7.612  25.689  0.00  0.00    +0.150 HD
ATOM     84  O   UNK A   1       3.437  -4.508  25.356  0.00  0.00    -0.274 OA
BRANCH  81  85
ATOM     85  C   UNK A   1       5.026  -6.344  25.010  0.00  0.00    +0.159 C 
BRANCH  85  86
ATOM     86  N   UNK A   1       5.783  -5.463  24.118  0.00  0.00    -0.302 N 
ATOM     87  H   UNK A   1       6.602  -4.978  24.493  0.00  0.00    +0.150 HD
ATOM     88  C   UNK A   1       5.453  -5.225  22.807  0.00  0.00    +0.236 C 
ATOM     89  O   UNK A   1       4.368  -5.575  22.343  0.00  0.00    -0.274 OA
BRANCH  88  90
ATOM     90  C   UNK A   1       6.428  -4.310  22.027  0.00  0.00    +0.184 C 
BRANCH  90  91
ATOM     91  N   UNK A   1       6.210  -2.940  22.511  0.00  0.00    -0.301 N 
ATOM     92  H   UNK A   1       5.420  -2.815  23.136  0.00  0.00    +0.150 HD
ATOM     93  C   UNK A   1       6.717  -1.836  21.858  0.00  0.00    +0.234 C 
ATOM     94  O   UNK A   1       7.459  -1.937  20.883  0.00  0.00    -0.274 OA
BRANCH  93  95
ATOM     95  C   UNK A   1       6.292  -0.468  22.423  0.00  0.00    +0.163 C 
BRANCH  95  96
ATOM     96  N   UNK A   1       6.425  -0.517  23.885  0.00  0.00    -0.302 N 
ATOM     97  H   UNK A   1       7.361  -0.322  24.246  0.00  0.00    +0.150 HD
ATOM     98  C   UNK A   1       5.707  -1.403  24.658  0.00  0.00    +0.236 C 
ATOM     99  O   UNK A   1       4.908  -2.208  24.174  0.00  0.00    -0.274 OA
BRANCH  98 100
ATOM    100  C   UNK A   1       5.902  -1.273  26.193  0.00  0.00    +0.184 C 
BRANCH 100 101
ATOM    101  N   UNK A   1       7.277  -1.531  26.636  0.00  0.00    -0.302 N 
ATOM    102  H   UNK A   1       7.619  -0.987  27.418  0.00  0.00    +0.150 HD
ATOM    103  C   UNK A   0       8.052  -2.559  26.167  0.00  0.00    +0.211 C 
ATOM    104  O   UNK A   0       7.669  -3.336  25.299  0.00  0.00    -0.276 OA
ATOM    105  C   UNK A   0       9.441  -2.632  26.745  0.00  0.00    +0.109 C 
ENDBRANCH 100 101
BRANCH 100 106
ATOM    106  C   UNK A   1       5.234  -0.049  26.845  0.00  0.00    +0.187 C 
BRANCH 106 107
ATOM    107  O   UNK A   1       4.100  -0.361  27.650  0.00  0.00    -0.393 OA
ATOM    108  H   UNK A   1       3.983  -1.340  27.638  0.00  0.00    +0.209 HD
ENDBRANCH 106 107
ENDBRANCH 100 106
ENDBRANCH  98 100
ENDBRANCH  95  96
BRANCH  95 109
ATOM    109  C   UNK A   1       7.191   0.615  21.804  0.00  0.00    +0.067 C 
BRANCH 109 110
ATOM    110  C   UNK A   1       6.663   2.023  21.959  0.00  0.00    -0.045 A 
ATOM    111  C   UNK A   1       5.354   2.251  22.406  0.00  0.00    +0.007 A 
ATOM    112  C   UNK A   1       4.871   3.557  22.525  0.00  0.00    +0.045 A 
ATOM    113  C   UNK A   1       5.696   4.630  22.213  0.00  0.00    +0.117 A 
ATOM    114  C   UNK A   1       6.999   4.422  21.771  0.00  0.00    +0.045 A 
ATOM    115  C   UNK A   1       7.479   3.119  21.645  0.00  0.00    +0.007 A 
BRANCH 113 116
ATOM    116  O   UNK A   1       5.184   5.886  22.345  0.00  0.00    -0.507 OA
ATOM    117  H   UNK A   1       4.620   5.908  23.135  0.00  0.00    +0.292 HD
ENDBRANCH 113 116
ENDBRANCH 109 110
ENDBRANCH  95 109
ENDBRANCH  93  95
ENDBRANCH  90  91
BRANCH  90 118
ATOM    118  C   UNK A   1       7.878  -4.821  22.131  0.00  0.00    +0.187 C 
BRANCH 118 119
ATOM    119  O   UNK A   1       8.053  -5.598  23.324  0.00  0.00    -0.393 OA
ATOM    120  H   UNK A   1       8.216  -6.512  23.010  0.00  0.00    +0.209 HD
ENDBRANCH 118 119
ENDBRANCH  90 118
ENDBRANCH  88  90
ENDBRANCH  85  86
BRANCH  85 121
ATOM    121  C   UNK A   1       5.886  -6.631  26.256  0.00  0.00    +0.032 C 
BRANCH 121 122
ATOM    122  C   UNK A   1       6.347  -5.410  27.061  0.00  0.00    +0.002 C 
BRANCH 122 124
ATOM    123  C   UNK A   1       6.335  -6.509  29.318  0.00  0.00    +0.004 C 
ATOM    124  C   UNK A   1       5.797  -5.356  28.485  0.00  0.00    -0.003 C 
ENDBRANCH 122 124
ENDBRANCH 121 122
ENDBRANCH  85 121
ENDBRANCH  81  85
ENDBRANCH  80  82
BRANCH  80 125
ATOM    125  C   UNK A   1       0.522  -7.362  26.746  0.00  0.00    +0.043 C 
BRANCH 125 126
ATOM    126  C   UNK A   1       1.354  -8.447  27.418  0.00  0.00    +0.123 C 
BRANCH 126 127
ATOM    127  C   UNK A   1       1.161  -9.785  26.763  0.00  0.00    +0.305 C 
ATOM    128  O   UNK A   1       0.905 -10.793  27.410  0.00  0.00    -0.251 OA
BRANCH 127 129
ATOM    129  O   UNK A   1       1.182  -9.744  25.415  0.00  0.00    -0.481 OA
ATOM    130  H   UNK A   1       1.337 -10.604  24.973  0.00  0.00    +0.295 HD
ENDBRANCH 127 129
ENDBRANCH 126 127
ENDBRANCH 125 126
ENDBRANCH  80 125
ENDBRANCH  76  80
ENDBRANCH  75  77
BRANCH  75 131
ATOM    131  C   UNK A   1       1.352  -4.605  30.484  0.00  0.00    +0.086 C 
BRANCH 131 132
ATOM    132  C   UNK A   1       1.730  -6.045  30.339  0.00  0.00    +0.038 A 
ATOM    133  N   UNK A   1       0.845  -7.090  30.456  0.00  0.00    -0.348 N 
ATOM    134  H   UNK A   1      -0.145  -7.018  30.610  0.00  0.00    +0.166 HD
ATOM    135  C   UNK A   1       1.559  -8.250  30.378  0.00  0.00    +0.196 A 
ATOM    136  N   UNK A   1       2.836  -8.017  30.195  0.00  0.00    -0.244 NA
ATOM    137  C   UNK A   1       2.956  -6.651  30.186  0.00  0.00    +0.133 A 
ENDBRANCH 131 132
ENDBRANCH  75 131
ENDBRANCH  71  75
ENDBRANCH   1  72
BRANCH   1 138
ATOM    138  C   UNK A   1       3.365   0.011  30.483  0.00  0.00    +0.067 C 
BRANCH 138 139
ATOM    139  C   UNK A   1       4.662   0.771  30.276  0.00  0.00    -0.045 A 
ATOM    140  C   UNK A   1       4.613   2.153  30.028  0.00  0.00    +0.004 A 
ATOM    141  C   UNK A   1       5.782   2.916  29.994  0.00  0.00    +0.000 A 
ATOM    142  C   UNK A   1       7.017   2.302  30.183  0.00  0.00    +0.000 A 
ATOM    143  C   UNK A   1       7.086   0.917  30.315  0.00  0.00    +0.000 A 
ATOM    144  C   UNK A   1       5.916   0.152  30.328  0.00  0.00    +0.004 A 
ENDBRANCH 138 139
ENDBRANCH   1 138
TORSDOF 55
ENDMDL
