MODEL 1
REMARK VINA RESULT:      -7.2      0.000      0.000
REMARK  Name = 
REMARK  15 active torsions:
REMARK  status: ('A' for Active; 'I' for Inactive)
REMARK    1  A    between atoms: C_1  and  N_2
REMARK    2  A    between atoms: N_4  and  C_5
REMARK    3  A    between atoms: C_8  and  C_10
REMARK    4  A    between atoms: C_10  and  O_11
REMARK    5  A    between atoms: O_11  and  P_12
REMARK    6  A    between atoms: P_12  and  O_13
REMARK    7  A    between atoms: P_12  and  O_15
REMARK    8  A    between atoms: O_15  and  P_16
REMARK    9  A    between atoms: P_16  and  O_17
REMARK   10  A    between atoms: P_16  and  O_19
REMARK   11  A    between atoms: O_19  and  P_20
REMARK   12  A    between atoms: P_20  and  O_21
REMARK   13  A    between atoms: P_20  and  O_22
REMARK   14  A    between atoms: C_24  and  O_26
REMARK   15  A    between atoms: C_27  and  O_29
REMARK                            x       y       z     vdW  Elec       q    Type
REMARK                         _______ _______ _______ _____ _____    ______ ____
ROOT
ATOM      1  C   UNL     1       9.172  -2.668  23.531  0.00  0.00    +0.240 C 
ATOM      2  C   UNL     1       8.857  -1.784  22.299  0.00  0.00    +0.193 C 
ATOM      3  C   UNL     1       8.699  -0.377  22.869  0.00  0.00    +0.178 C 
ATOM      4  C   UNL     1       9.073  -0.530  24.344  0.00  0.00    +0.178 C 
ATOM      5  O   UNL     1       9.800  -1.764  24.462  0.00  0.00    -0.348 OA
ENDROOT
BRANCH   1  19
ATOM      6  C   UNL     1       6.289  -4.692  27.043  0.00  0.00    +0.131 C 
ATOM      7  N   UNL     1       6.956  -4.459  25.790  0.00  0.00    -0.310 N 
ATOM      8  C   UNL     1       6.578  -4.928  24.542  0.00  0.00    +0.136 A 
ATOM      9  C   UNL     1       5.609  -5.971  24.172  0.00  0.00    +0.276 A 
ATOM     10  N   UNL     1       5.545  -6.202  22.818  0.00  0.00    -0.294 N 
ATOM     11  H   UNL     1       4.863  -6.872  22.509  0.00  0.00    +0.172 HD
ATOM     12  C   UNL     1       6.285  -5.501  21.910  0.00  0.00    +0.195 A 
ATOM     13  N   UNL     1       7.132  -4.581  22.239  0.00  0.00    -0.199 NA
ATOM     14  N   UNL     1       6.125  -5.811  20.600  0.00  0.00    -0.329 N 
ATOM     15  H   UNL     1       6.838  -5.358  20.035  0.00  0.00    +0.145 HD
ATOM     16  H   UNL     1       6.033  -6.794  20.379  0.00  0.00    +0.145 HD
ATOM     17  O   UNL     1       4.915  -6.582  24.977  0.00  0.00    -0.266 OA
ATOM     18  C   UNL     1       7.243  -4.287  23.560  0.00  0.00    +0.155 A 
ATOM     19  N   UNL     1       8.021  -3.289  24.153  0.00  0.00    -0.270 N 
ATOM     20  C   UNL     1       7.951  -3.400  25.616  0.00  0.00    +0.217 C 
ENDBRANCH   1  19
BRANCH   2  21
ATOM     21  O   UNL     1       9.965  -1.796  21.367  0.00  0.00    -0.385 OA
ATOM     22  H   UNL     1       9.662  -2.222  20.548  0.00  0.00    +0.210 HD
ENDBRANCH   2  21
BRANCH   3  23
ATOM     23  O   UNL     1       7.362   0.104  22.720  0.00  0.00    -0.386 OA
ATOM     24  H   UNL     1       7.288   0.932  23.226  0.00  0.00    +0.210 HD
ENDBRANCH   3  23
BRANCH   4  25
ATOM     25  C   UNL     1       9.910   0.635  24.864  0.00  0.00    +0.206 C 
BRANCH  25  26
ATOM     26  O   UNL     1      10.691   1.176  23.810  0.00  0.00    -0.284 OA
BRANCH  26  27
ATOM     27  P   UNL     1      10.300   2.617  23.222  0.00  0.00    +0.483 P 
ATOM     28  O   UNL     1      11.256   3.714  23.556  0.00  0.00    -0.227 OA
BRANCH  27  29
ATOM     29  O   UNL     1      10.257   2.360  21.637  0.00  0.00    -0.302 OA
ATOM     30  H   UNL     1      10.996   2.825  21.197  0.00  0.00    +0.222 HD
ENDBRANCH  27  29
BRANCH  27  31
ATOM     31  O   UNL     1       8.771   2.904  23.588  0.00  0.00    -0.186 OA
BRANCH  31  32
ATOM     32  P   UNL     1       8.416   4.406  24.143  0.00  0.00    +0.492 P 
ATOM     33  O   UNL     1       7.865   3.805  25.406  0.00  0.00    -0.226 OA
BRANCH  32  34
ATOM     34  O   UNL     1       8.649   4.720  22.598  0.00  0.00    -0.302 OA
ATOM     35  H   UNL     1       8.332   3.969  22.060  0.00  0.00    +0.222 HD
ENDBRANCH  32  34
BRANCH  32  36
ATOM     36  O   UNL     1       6.873   4.726  23.685  0.00  0.00    -0.186 OA
BRANCH  36  37
ATOM     37  P   UNL     1       5.943   3.539  23.156  0.00  0.00    +0.481 P 
ATOM     38  O   UNL     1       4.500   3.849  22.955  0.00  0.00    -0.227 OA
BRANCH  37  39
ATOM     39  O   UNL     1       6.211   2.346  24.186  0.00  0.00    -0.302 OA
ATOM     40  H   UNL     1       6.582   2.644  25.041  0.00  0.00    +0.222 HD
ENDBRANCH  37  39
BRANCH  37  41
ATOM     41  O   UNL     1       6.726   2.980  21.877  0.00  0.00    -0.302 OA
ATOM     42  H   UNL     1       6.149   2.871  21.103  0.00  0.00    +0.222 HD
ENDBRANCH  37  41
ENDBRANCH  36  37
ENDBRANCH  32  36
ENDBRANCH  31  32
ENDBRANCH  27  31
ENDBRANCH  26  27
ENDBRANCH  25  26
ENDBRANCH   4  25
TORSDOF 14
ENDMDL
MODEL 2
REMARK VINA RESULT:      -7.0      2.214      3.870
REMARK  Name = 
REMARK  15 active torsions:
REMARK  status: ('A' for Active; 'I' for Inactive)
REMARK    1  A    between atoms: C_1  and  N_2
REMARK    2  A    between atoms: N_4  and  C_5
REMARK    3  A    between atoms: C_8  and  C_10
REMARK    4  A    between atoms: C_10  and  O_11
REMARK    5  A    between atoms: O_11  and  P_12
REMARK    6  A    between atoms: P_12  and  O_13
REMARK    7  A    between atoms: P_12  and  O_15
REMARK    8  A    between atoms: O_15  and  P_16
REMARK    9  A    between atoms: P_16  and  O_17
REMARK   10  A    between atoms: P_16  and  O_19
REMARK   11  A    between atoms: O_19  and  P_20
REMARK   12  A    between atoms: P_20  and  O_21
REMARK   13  A    between atoms: P_20  and  O_22
REMARK   14  A    between atoms: C_24  and  O_26
REMARK   15  A    between atoms: C_27  and  O_29
REMARK                            x       y       z     vdW  Elec       q    Type
REMARK                         _______ _______ _______ _____ _____    ______ ____
ROOT
ATOM      1  C   UNL     1       7.975  -5.260  26.240  0.00  0.00    +0.240 C 
ATOM      2  C   UNL     1       8.863  -5.109  24.980  0.00  0.00    +0.193 C 
ATOM      3  C   UNL     1       8.944  -3.602  24.747  0.00  0.00    +0.178 C 
ATOM      4  C   UNL     1       8.228  -3.001  25.958  0.00  0.00    +0.178 C 
ATOM      5  O   UNL     1       8.177  -4.027  26.963  0.00  0.00    -0.348 OA
ENDROOT
BRANCH   1  19
ATOM      6  C   UNL     1       3.258  -6.700  26.891  0.00  0.00    +0.131 C 
ATOM      7  N   UNL     1       4.534  -6.435  26.281  0.00  0.00    -0.310 N 
ATOM      8  C   UNL     1       4.802  -6.292  24.929  0.00  0.00    +0.136 A 
ATOM      9  C   UNL     1       3.977  -6.625  23.757  0.00  0.00    +0.276 A 
ATOM     10  N   UNL     1       4.610  -6.392  22.560  0.00  0.00    -0.294 N 
ATOM     11  H   UNL     1       4.072  -6.558  21.728  0.00  0.00    +0.172 HD
ATOM     12  C   UNL     1       5.869  -5.867  22.475  0.00  0.00    +0.195 A 
ATOM     13  N   UNL     1       6.587  -5.571  23.508  0.00  0.00    -0.199 NA
ATOM     14  N   UNL     1       6.382  -5.671  21.236  0.00  0.00    -0.329 N 
ATOM     15  H   UNL     1       7.371  -5.443  21.290  0.00  0.00    +0.145 HD
ATOM     16  H   UNL     1       6.195  -6.392  20.552  0.00  0.00    +0.145 HD
ATOM     17  O   UNL     1       2.834  -7.065  23.823  0.00  0.00    -0.266 OA
ATOM     18  C   UNL     1       6.024  -5.762  24.729  0.00  0.00    +0.155 A 
ATOM     19  N   UNL     1       6.563  -5.447  25.979  0.00  0.00    -0.270 N 
ATOM     20  C   UNL     1       5.681  -5.940  27.045  0.00  0.00    +0.217 C 
ENDBRANCH   1  19
BRANCH   2  21
ATOM     21  O   UNL     1      10.193  -5.622  25.231  0.00  0.00    -0.385 OA
ATOM     22  H   UNL     1      10.814  -4.877  25.186  0.00  0.00    +0.210 HD
ENDBRANCH   2  21
BRANCH   3  23
ATOM     23  O   UNL     1       8.307  -3.224  23.527  0.00  0.00    -0.386 OA
ATOM     24  H   UNL     1       7.923  -4.027  23.132  0.00  0.00    +0.210 HD
ENDBRANCH   3  23
BRANCH   4  25
ATOM     25  C   UNL     1       8.927  -1.758  26.499  0.00  0.00    +0.206 C 
BRANCH  25  26
ATOM     26  O   UNL     1       7.970  -0.872  27.060  0.00  0.00    -0.284 OA
BRANCH  26  27
ATOM     27  P   UNL     1       7.241   0.184  26.098  0.00  0.00    +0.483 P 
ATOM     28  O   UNL     1       5.767  -0.006  25.954  0.00  0.00    -0.227 OA
BRANCH  27  29
ATOM     29  O   UNL     1       7.569   1.593  26.794  0.00  0.00    -0.302 OA
ATOM     30  H   UNL     1       7.754   1.467  27.746  0.00  0.00    +0.222 HD
ENDBRANCH  27  29
BRANCH  27  31
ATOM     31  O   UNL     1       8.060   0.254  24.726  0.00  0.00    -0.186 OA
BRANCH  31  32
ATOM     32  P   UNL     1       7.190   0.520  23.361  0.00  0.00    +0.492 P 
ATOM     33  O   UNL     1       7.815  -0.692  22.731  0.00  0.00    -0.226 OA
BRANCH  32  34
ATOM     34  O   UNL     1       7.028   1.932  24.084  0.00  0.00    -0.302 OA
ATOM     35  H   UNL     1       7.124   2.649  23.427  0.00  0.00    +0.222 HD
ENDBRANCH  32  34
BRANCH  32  36
ATOM     36  O   UNL     1       8.123   1.447  22.380  0.00  0.00    -0.186 OA
BRANCH  36  37
ATOM     37  P   UNL     1       9.596   1.859  22.847  0.00  0.00    +0.481 P 
ATOM     38  O   UNL     1       9.703   2.906  23.900  0.00  0.00    -0.227 OA
BRANCH  37  39
ATOM     39  O   UNL     1      10.344   2.232  21.485  0.00  0.00    -0.302 OA
ATOM     40  H   UNL     1       9.949   2.995  21.017  0.00  0.00    +0.222 HD
ENDBRANCH  37  39
BRANCH  37  41
ATOM     41  O   UNL     1      10.299   0.459  23.174  0.00  0.00    -0.302 OA
ATOM     42  H   UNL     1      11.165   0.365  22.743  0.00  0.00    +0.222 HD
ENDBRANCH  37  41
ENDBRANCH  36  37
ENDBRANCH  32  36
ENDBRANCH  31  32
ENDBRANCH  27  31
ENDBRANCH  26  27
ENDBRANCH  25  26
ENDBRANCH   4  25
TORSDOF 14
ENDMDL
MODEL 3
REMARK VINA RESULT:      -7.0      1.950      3.173
REMARK  Name = 
REMARK  15 active torsions:
REMARK  status: ('A' for Active; 'I' for Inactive)
REMARK    1  A    between atoms: C_1  and  N_2
REMARK    2  A    between atoms: N_4  and  C_5
REMARK    3  A    between atoms: C_8  and  C_10
REMARK    4  A    between atoms: C_10  and  O_11
REMARK    5  A    between atoms: O_11  and  P_12
REMARK    6  A    between atoms: P_12  and  O_13
REMARK    7  A    between atoms: P_12  and  O_15
REMARK    8  A    between atoms: O_15  and  P_16
REMARK    9  A    between atoms: P_16  and  O_17
REMARK   10  A    between atoms: P_16  and  O_19
REMARK   11  A    between atoms: O_19  and  P_20
REMARK   12  A    between atoms: P_20  and  O_21
REMARK   13  A    between atoms: P_20  and  O_22
REMARK   14  A    between atoms: C_24  and  O_26
REMARK   15  A    between atoms: C_27  and  O_29
REMARK                            x       y       z     vdW  Elec       q    Type
REMARK                         _______ _______ _______ _____ _____    ______ ____
ROOT
ATOM      1  C   UNL     1       7.964  -5.172  26.213  0.00  0.00    +0.240 C 
ATOM      2  C   UNL     1       8.844  -5.156  24.939  0.00  0.00    +0.193 C 
ATOM      3  C   UNL     1       8.936  -3.681  24.556  0.00  0.00    +0.178 C 
ATOM      4  C   UNL     1       8.234  -2.956  25.706  0.00  0.00    +0.178 C 
ATOM      5  O   UNL     1       8.182  -3.876  26.808  0.00  0.00    -0.348 OA
ENDROOT
BRANCH   1  19
ATOM      6  C   UNL     1       3.261  -6.594  26.992  0.00  0.00    +0.131 C 
ATOM      7  N   UNL     1       4.527  -6.351  26.353  0.00  0.00    -0.310 N 
ATOM      8  C   UNL     1       4.773  -6.259  24.993  0.00  0.00    +0.136 A 
ATOM      9  C   UNL     1       3.931  -6.638  23.847  0.00  0.00    +0.276 A 
ATOM     10  N   UNL     1       4.545  -6.450  22.632  0.00  0.00    -0.294 N 
ATOM     11  H   UNL     1       3.995  -6.649  21.816  0.00  0.00    +0.172 HD
ATOM     12  C   UNL     1       5.801  -5.927  22.508  0.00  0.00    +0.195 A 
ATOM     13  N   UNL     1       6.535  -5.591  23.517  0.00  0.00    -0.199 NA
ATOM     14  N   UNL     1       6.294  -5.778  21.254  0.00  0.00    -0.329 N 
ATOM     15  H   UNL     1       7.285  -5.547  21.284  0.00  0.00    +0.145 HD
ATOM     16  H   UNL     1       6.098  -6.525  20.601  0.00  0.00    +0.145 HD
ATOM     17  O   UNL     1       2.791  -7.077  23.947  0.00  0.00    -0.266 OA
ATOM     18  C   UNL     1       5.992  -5.736  24.753  0.00  0.00    +0.155 A 
ATOM     19  N   UNL     1       6.549  -5.372  25.982  0.00  0.00    -0.270 N 
ATOM     20  C   UNL     1       5.685  -5.824  27.080  0.00  0.00    +0.217 C 
ENDBRANCH   1  19
BRANCH   2  21
ATOM     21  O   UNL     1      10.172  -5.654  25.231  0.00  0.00    -0.385 OA
ATOM     22  H   UNL     1      10.492  -5.200  26.027  0.00  0.00    +0.210 HD
ENDBRANCH   2  21
BRANCH   3  23
ATOM     23  O   UNL     1       8.293  -3.420  23.308  0.00  0.00    -0.386 OA
ATOM     24  H   UNL     1       8.618  -2.561  22.983  0.00  0.00    +0.210 HD
ENDBRANCH   3  23
BRANCH   4  25
ATOM     25  C   UNL     1       8.948  -1.671  26.116  0.00  0.00    +0.206 C 
BRANCH  25  26
ATOM     26  O   UNL     1       8.582  -0.615  25.241  0.00  0.00    -0.284 OA
BRANCH  26  27
ATOM     27  P   UNL     1       9.732   0.120  24.397  0.00  0.00    +0.483 P 
ATOM     28  O   UNL     1      10.976   0.428  25.162  0.00  0.00    -0.227 OA
BRANCH  27  29
ATOM     29  O   UNL     1      10.033  -0.922  23.213  0.00  0.00    -0.302 OA
ATOM     30  H   UNL     1       9.849  -0.512  22.345  0.00  0.00    +0.222 HD
ENDBRANCH  27  29
BRANCH  27  31
ATOM     31  O   UNL     1       9.071   1.360  23.635  0.00  0.00    -0.186 OA
BRANCH  31  32
ATOM     32  P   UNL     1       8.697   1.138  22.053  0.00  0.00    +0.492 P 
ATOM     33  O   UNL     1       9.960   1.852  21.658  0.00  0.00    -0.226 OA
BRANCH  32  34
ATOM     34  O   UNL     1       7.286   0.828  22.726  0.00  0.00    -0.302 OA
ATOM     35  H   UNL     1       6.571   1.001  22.083  0.00  0.00    +0.222 HD
ENDBRANCH  32  34
BRANCH  32  36
ATOM     36  O   UNL     1       7.860   2.466  21.575  0.00  0.00    -0.186 OA
BRANCH  36  37
ATOM     37  P   UNL     1       7.614   3.660  22.609  0.00  0.00    +0.481 P 
ATOM     38  O   UNL     1       6.603   3.431  23.678  0.00  0.00    -0.227 OA
BRANCH  37  39
ATOM     39  O   UNL     1       7.296   4.920  21.678  0.00  0.00    -0.302 OA
ATOM     40  H   UNL     1       6.853   4.684  20.838  0.00  0.00    +0.222 HD
ENDBRANCH  37  39
BRANCH  37  41
ATOM     41  O   UNL     1       9.086   4.047  23.104  0.00  0.00    -0.302 OA
ATOM     42  H   UNL     1       9.773   3.481  22.714  0.00  0.00    +0.222 HD
ENDBRANCH  37  41
ENDBRANCH  36  37
ENDBRANCH  32  36
ENDBRANCH  31  32
ENDBRANCH  27  31
ENDBRANCH  26  27
ENDBRANCH  25  26
ENDBRANCH   4  25
TORSDOF 14
ENDMDL
MODEL 4
REMARK VINA RESULT:      -6.9      2.120      3.346
REMARK  Name = 
REMARK  15 active torsions:
REMARK  status: ('A' for Active; 'I' for Inactive)
REMARK    1  A    between atoms: C_1  and  N_2
REMARK    2  A    between atoms: N_4  and  C_5
REMARK    3  A    between atoms: C_8  and  C_10
REMARK    4  A    between atoms: C_10  and  O_11
REMARK    5  A    between atoms: O_11  and  P_12
REMARK    6  A    between atoms: P_12  and  O_13
REMARK    7  A    between atoms: P_12  and  O_15
REMARK    8  A    between atoms: O_15  and  P_16
REMARK    9  A    between atoms: P_16  and  O_17
REMARK   10  A    between atoms: P_16  and  O_19
REMARK   11  A    between atoms: O_19  and  P_20
REMARK   12  A    between atoms: P_20  and  O_21
REMARK   13  A    between atoms: P_20  and  O_22
REMARK   14  A    between atoms: C_24  and  O_26
REMARK   15  A    between atoms: C_27  and  O_29
REMARK                            x       y       z     vdW  Elec       q    Type
REMARK                         _______ _______ _______ _____ _____    ______ ____
ROOT
ATOM      1  C   UNL     1       7.490  -5.393  23.925  0.00  0.00    +0.240 C 
ATOM      2  C   UNL     1       6.975  -4.609  22.693  0.00  0.00    +0.193 C 
ATOM      3  C   UNL     1       7.597  -3.221  22.836  0.00  0.00    +0.178 C 
ATOM      4  C   UNL     1       8.527  -3.355  24.043  0.00  0.00    +0.178 C 
ATOM      5  O   UNL     1       8.746  -4.761  24.246  0.00  0.00    -0.348 OA
ENDROOT
BRANCH   1  19
ATOM      6  C   UNL     1       6.055  -5.276  28.687  0.00  0.00    +0.131 C 
ATOM      7  N   UNL     1       6.134  -5.618  27.291  0.00  0.00    -0.310 N 
ATOM      8  C   UNL     1       5.141  -6.190  26.513  0.00  0.00    +0.136 A 
ATOM      9  C   UNL     1       3.882  -6.844  26.908  0.00  0.00    +0.276 A 
ATOM     10  N   UNL     1       3.172  -7.347  25.844  0.00  0.00    -0.294 N 
ATOM     11  H   UNL     1       2.282  -7.761  26.055  0.00  0.00    +0.172 HD
ATOM     12  C   UNL     1       3.583  -7.217  24.548  0.00  0.00    +0.195 A 
ATOM     13  N   UNL     1       4.686  -6.637  24.206  0.00  0.00    -0.199 NA
ATOM     14  N   UNL     1       2.789  -7.745  23.585  0.00  0.00    -0.329 N 
ATOM     15  H   UNL     1       3.266  -7.744  22.687  0.00  0.00    +0.145 HD
ATOM     16  H   UNL     1       2.368  -8.641  23.790  0.00  0.00    +0.145 HD
ATOM     17  O   UNL     1       3.489  -6.936  28.065  0.00  0.00    -0.266 OA
ATOM     18  C   UNL     1       5.439  -6.102  25.202  0.00  0.00    +0.155 A 
ATOM     19  N   UNL     1       6.619  -5.364  25.081  0.00  0.00    -0.270 N 
ATOM     20  C   UNL     1       7.178  -5.089  26.411  0.00  0.00    +0.217 C 
ENDBRANCH   1  19
BRANCH   2  21
ATOM     21  O   UNL     1       7.449  -5.217  21.468  0.00  0.00    -0.385 OA
ATOM     22  H   UNL     1       8.420  -5.201  21.483  0.00  0.00    +0.210 HD
ENDBRANCH   2  21
BRANCH   3  23
ATOM     23  O   UNL     1       6.604  -2.219  23.054  0.00  0.00    -0.386 OA
ATOM     24  H   UNL     1       5.929  -2.596  23.646  0.00  0.00    +0.210 HD
ENDBRANCH   3  23
BRANCH   4  25
ATOM     25  C   UNL     1       9.855  -2.630  23.847  0.00  0.00    +0.206 C 
BRANCH  25  26
ATOM     26  O   UNL     1       9.623  -1.330  23.328  0.00  0.00    -0.284 OA
BRANCH  26  27
ATOM     27  P   UNL     1       9.688  -0.077  24.328  0.00  0.00    +0.483 P 
ATOM     28  O   UNL     1       9.258  -0.366  25.729  0.00  0.00    -0.227 OA
BRANCH  27  29
ATOM     29  O   UNL     1      11.238   0.342  24.282  0.00  0.00    -0.302 OA
ATOM     30  H   UNL     1      11.806  -0.444  24.408  0.00  0.00    +0.222 HD
ENDBRANCH  27  29
BRANCH  27  31
ATOM     31  O   UNL     1       8.954   1.157  23.626  0.00  0.00    -0.186 OA
BRANCH  31  32
ATOM     32  P   UNL     1       8.710   1.046  22.007  0.00  0.00    +0.492 P 
ATOM     33  O   UNL     1       9.995   1.789  21.767  0.00  0.00    -0.226 OA
BRANCH  32  34
ATOM     34  O   UNL     1       7.252   0.685  22.541  0.00  0.00    -0.302 OA
ATOM     35  H   UNL     1       6.771   1.507  22.760  0.00  0.00    +0.222 HD
ENDBRANCH  32  34
BRANCH  32  36
ATOM     36  O   UNL     1       7.903   2.401  21.558  0.00  0.00    -0.186 OA
BRANCH  36  37
ATOM     37  P   UNL     1       7.641   3.559  22.629  0.00  0.00    +0.481 P 
ATOM     38  O   UNL     1       6.638   3.280  23.694  0.00  0.00    -0.227 OA
BRANCH  37  39
ATOM     39  O   UNL     1       7.301   4.842  21.739  0.00  0.00    -0.302 OA
ATOM     40  H   UNL     1       7.575   4.753  20.804  0.00  0.00    +0.222 HD
ENDBRANCH  37  39
BRANCH  37  41
ATOM     41  O   UNL     1       9.109   3.953  23.132  0.00  0.00    -0.302 OA
ATOM     42  H   UNL     1       9.803   3.408  22.726  0.00  0.00    +0.222 HD
ENDBRANCH  37  41
ENDBRANCH  36  37
ENDBRANCH  32  36
ENDBRANCH  31  32
ENDBRANCH  27  31
ENDBRANCH  26  27
ENDBRANCH  25  26
ENDBRANCH   4  25
TORSDOF 14
ENDMDL
MODEL 5
REMARK VINA RESULT:      -6.9      5.043      8.776
REMARK  Name = 
REMARK  15 active torsions:
REMARK  status: ('A' for Active; 'I' for Inactive)
REMARK    1  A    between atoms: C_1  and  N_2
REMARK    2  A    between atoms: N_4  and  C_5
REMARK    3  A    between atoms: C_8  and  C_10
REMARK    4  A    between atoms: C_10  and  O_11
REMARK    5  A    between atoms: O_11  and  P_12
REMARK    6  A    between atoms: P_12  and  O_13
REMARK    7  A    between atoms: P_12  and  O_15
REMARK    8  A    between atoms: O_15  and  P_16
REMARK    9  A    between atoms: P_16  and  O_17
REMARK   10  A    between atoms: P_16  and  O_19
REMARK   11  A    between atoms: O_19  and  P_20
REMARK   12  A    between atoms: P_20  and  O_21
REMARK   13  A    between atoms: P_20  and  O_22
REMARK   14  A    between atoms: C_24  and  O_26
REMARK   15  A    between atoms: C_27  and  O_29
REMARK                            x       y       z     vdW  Elec       q    Type
REMARK                         _______ _______ _______ _____ _____    ______ ____
ROOT
ATOM      1  C   UNL     1       8.415   0.811  22.778  0.00  0.00    +0.240 C 
ATOM      2  C   UNL     1       9.928   0.532  22.599  0.00  0.00    +0.193 C 
ATOM      3  C   UNL     1      10.354  -0.120  23.912  0.00  0.00    +0.178 C 
ATOM      4  C   UNL     1       9.043  -0.299  24.680  0.00  0.00    +0.178 C 
ATOM      5  O   UNL     1       7.980  -0.193  23.718  0.00  0.00    -0.348 OA
ENDROOT
BRANCH   1  19
ATOM      6  C   UNL     1       5.796   4.939  23.698  0.00  0.00    +0.131 C 
ATOM      7  N   UNL     1       6.878   4.056  23.352  0.00  0.00    -0.310 N 
ATOM      8  C   UNL     1       8.234   4.338  23.396  0.00  0.00    +0.136 A 
ATOM      9  C   UNL     1       8.934   5.626  23.526  0.00  0.00    +0.276 A 
ATOM     10  N   UNL     1      10.302   5.512  23.473  0.00  0.00    -0.294 N 
ATOM     11  H   UNL     1      10.828   6.358  23.604  0.00  0.00    +0.172 HD
ATOM     12  C   UNL     1      10.943   4.312  23.348  0.00  0.00    +0.195 A 
ATOM     13  N   UNL     1      10.325   3.183  23.240  0.00  0.00    -0.199 NA
ATOM     14  N   UNL     1      12.298   4.328  23.320  0.00  0.00    -0.329 N 
ATOM     15  H   UNL     1      12.661   3.416  23.055  0.00  0.00    +0.145 HD
ATOM     16  H   UNL     1      12.729   5.076  22.793  0.00  0.00    +0.145 HD
ATOM     17  O   UNL     1       8.368   6.704  23.672  0.00  0.00    -0.266 OA
ATOM     18  C   UNL     1       8.968   3.212  23.296  0.00  0.00    +0.155 A 
ATOM     19  N   UNL     1       8.087   2.128  23.282  0.00  0.00    -0.270 N 
ATOM     20  C   UNL     1       6.700   2.608  23.228  0.00  0.00    +0.217 C 
ENDBRANCH   1  19
BRANCH   2  21
ATOM     21  O   UNL     1      10.149  -0.399  21.513  0.00  0.00    -0.385 OA
ATOM     22  H   UNL     1       9.321  -0.885  21.363  0.00  0.00    +0.210 HD
ENDBRANCH   2  21
BRANCH   3  23
ATOM     23  O   UNL     1      11.271   0.701  24.635  0.00  0.00    -0.386 OA
ATOM     24  H   UNL     1      11.593   0.186  25.395  0.00  0.00    +0.210 HD
ENDBRANCH   3  23
BRANCH   4  25
ATOM     25  C   UNL     1       8.967  -1.634  25.415  0.00  0.00    +0.206 C 
BRANCH  25  26
ATOM     26  O   UNL     1       9.209  -2.698  24.508  0.00  0.00    -0.284 OA
BRANCH  26  27
ATOM     27  P   UNL     1       8.771  -4.183  24.927  0.00  0.00    +0.483 P 
ATOM     28  O   UNL     1       7.928  -4.899  23.924  0.00  0.00    -0.227 OA
BRANCH  27  29
ATOM     29  O   UNL     1      10.178  -4.931  25.128  0.00  0.00    -0.302 OA
ATOM     30  H   UNL     1      10.169  -5.455  25.953  0.00  0.00    +0.222 HD
ENDBRANCH  27  29
BRANCH  27  31
ATOM     31  O   UNL     1       8.172  -4.125  26.408  0.00  0.00    -0.186 OA
BRANCH  31  32
ATOM     32  P   UNL     1       6.856  -5.057  26.709  0.00  0.00    +0.492 P 
ATOM     33  O   UNL     1       6.032  -3.818  26.920  0.00  0.00    -0.226 OA
BRANCH  32  34
ATOM     34  O   UNL     1       8.015  -6.142  26.855  0.00  0.00    -0.302 OA
ATOM     35  H   UNL     1       8.249  -6.246  27.798  0.00  0.00    +0.222 HD
ENDBRANCH  32  34
BRANCH  32  36
ATOM     36  O   UNL     1       6.810  -5.300  28.330  0.00  0.00    -0.186 OA
BRANCH  36  37
ATOM     37  P   UNL     1       5.859  -6.435  28.934  0.00  0.00    +0.481 P 
ATOM     38  O   UNL     1       4.845  -6.004  29.935  0.00  0.00    -0.227 OA
BRANCH  37  39
ATOM     39  O   UNL     1       6.874  -7.544  29.476  0.00  0.00    -0.302 OA
ATOM     40  H   UNL     1       6.750  -7.758  30.423  0.00  0.00    +0.222 HD
ENDBRANCH  37  39
BRANCH  37  41
ATOM     41  O   UNL     1       5.294  -7.188  27.640  0.00  0.00    -0.302 OA
ATOM     42  H   UNL     1       6.000  -7.497  27.048  0.00  0.00    +0.222 HD
ENDBRANCH  37  41
ENDBRANCH  36  37
ENDBRANCH  32  36
ENDBRANCH  31  32
ENDBRANCH  27  31
ENDBRANCH  26  27
ENDBRANCH  25  26
ENDBRANCH   4  25
TORSDOF 14
ENDMDL
MODEL 6
REMARK VINA RESULT:      -6.8      4.602      7.822
REMARK  Name = 
REMARK  15 active torsions:
REMARK  status: ('A' for Active; 'I' for Inactive)
REMARK    1  A    between atoms: C_1  and  N_2
REMARK    2  A    between atoms: N_4  and  C_5
REMARK    3  A    between atoms: C_8  and  C_10
REMARK    4  A    between atoms: C_10  and  O_11
REMARK    5  A    between atoms: O_11  and  P_12
REMARK    6  A    between atoms: P_12  and  O_13
REMARK    7  A    between atoms: P_12  and  O_15
REMARK    8  A    between atoms: O_15  and  P_16
REMARK    9  A    between atoms: P_16  and  O_17
REMARK   10  A    between atoms: P_16  and  O_19
REMARK   11  A    between atoms: O_19  and  P_20
REMARK   12  A    between atoms: P_20  and  O_21
REMARK   13  A    between atoms: P_20  and  O_22
REMARK   14  A    between atoms: C_24  and  O_26
REMARK   15  A    between atoms: C_27  and  O_29
REMARK                            x       y       z     vdW  Elec       q    Type
REMARK                         _______ _______ _______ _____ _____    ______ ____
ROOT
ATOM      1  C   UNL     1       8.691   0.564  22.656  0.00  0.00    +0.240 C 
ATOM      2  C   UNL     1      10.057  -0.073  23.010  0.00  0.00    +0.193 C 
ATOM      3  C   UNL     1       9.979  -0.334  24.513  0.00  0.00    +0.178 C 
ATOM      4  C   UNL     1       8.540   0.032  24.878  0.00  0.00    +0.178 C 
ATOM      5  O   UNL     1       7.789   0.040  23.653  0.00  0.00    -0.348 OA
ENDROOT
BRANCH   1  19
ATOM      6  C   UNL     1       9.996   5.242  23.735  0.00  0.00    +0.131 C 
ATOM      7  N   UNL     1       9.205   4.060  23.514  0.00  0.00    -0.310 N 
ATOM      8  C   UNL     1       7.850   4.002  23.232  0.00  0.00    +0.136 A 
ATOM      9  C   UNL     1       6.810   5.037  23.345  0.00  0.00    +0.276 A 
ATOM     10  N   UNL     1       5.552   4.584  23.027  0.00  0.00    -0.294 N 
ATOM     11  H   UNL     1       4.813   5.265  23.042  0.00  0.00    +0.172 HD
ATOM     12  C   UNL     1       5.306   3.307  22.611  0.00  0.00    +0.195 A 
ATOM     13  N   UNL     1       6.223   2.402  22.508  0.00  0.00    -0.199 NA
ATOM     14  N   UNL     1       4.024   2.983  22.313  0.00  0.00    -0.329 N 
ATOM     15  H   UNL     1       3.929   1.979  22.184  0.00  0.00    +0.145 HD
ATOM     16  H   UNL     1       3.311   3.356  22.926  0.00  0.00    +0.145 HD
ATOM     17  O   UNL     1       7.027   6.195  23.685  0.00  0.00    -0.266 OA
ATOM     18  C   UNL     1       7.497   2.777  22.795  0.00  0.00    +0.155 A 
ATOM     19  N   UNL     1       8.661   2.012  22.683  0.00  0.00    -0.270 N 
ATOM     20  C   UNL     1       9.806   2.758  23.220  0.00  0.00    +0.217 C 
ENDBRANCH   1  19
BRANCH   2  21
ATOM     21  O   UNL     1      10.226  -1.333  22.318  0.00  0.00    -0.385 OA
ATOM     22  H   UNL     1      11.130  -1.361  21.965  0.00  0.00    +0.210 HD
ENDBRANCH   2  21
BRANCH   3  23
ATOM     23  O   UNL     1      10.918   0.464  25.235  0.00  0.00    -0.386 OA
ATOM     24  H   UNL     1      10.632   0.486  26.166  0.00  0.00    +0.210 HD
ENDBRANCH   3  23
BRANCH   4  25
ATOM     25  C   UNL     1       7.920  -0.941  25.878  0.00  0.00    +0.206 C 
BRANCH  25  26
ATOM     26  O   UNL     1       8.832  -1.992  26.156  0.00  0.00    -0.284 OA
BRANCH  26  27
ATOM     27  P   UNL     1       8.355  -3.507  25.927  0.00  0.00    +0.483 P 
ATOM     28  O   UNL     1       9.012  -4.515  26.811  0.00  0.00    -0.227 OA
BRANCH  27  29
ATOM     29  O   UNL     1       6.777  -3.436  26.217  0.00  0.00    -0.302 OA
ATOM     30  H   UNL     1       6.586  -2.757  26.895  0.00  0.00    +0.222 HD
ENDBRANCH  27  29
BRANCH  27  31
ATOM     31  O   UNL     1       8.426  -3.818  24.361  0.00  0.00    -0.186 OA
BRANCH  31  32
ATOM     32  P   UNL     1       6.995  -3.950  23.570  0.00  0.00    +0.492 P 
ATOM     33  O   UNL     1       6.762  -5.285  24.222  0.00  0.00    -0.226 OA
BRANCH  32  34
ATOM     34  O   UNL     1       7.677  -2.778  22.733  0.00  0.00    -0.302 OA
ATOM     35  H   UNL     1       7.120  -2.561  21.959  0.00  0.00    +0.222 HD
ENDBRANCH  32  34
BRANCH  32  36
ATOM     36  O   UNL     1       7.301  -4.747  22.169  0.00  0.00    -0.186 OA
BRANCH  36  37
ATOM     37  P   UNL     1       6.157  -5.642  21.501  0.00  0.00    +0.481 P 
ATOM     38  O   UNL     1       6.068  -5.625  20.015  0.00  0.00    -0.227 OA
BRANCH  37  39
ATOM     39  O   UNL     1       4.818  -5.171  22.235  0.00  0.00    -0.302 OA
ATOM     40  H   UNL     1       4.000  -5.463  21.782  0.00  0.00    +0.222 HD
ENDBRANCH  37  39
BRANCH  37  41
ATOM     41  O   UNL     1       6.352  -7.079  22.178  0.00  0.00    -0.302 OA
ATOM     42  H   UNL     1       6.469  -7.788  21.523  0.00  0.00    +0.222 HD
ENDBRANCH  37  41
ENDBRANCH  36  37
ENDBRANCH  32  36
ENDBRANCH  31  32
ENDBRANCH  27  31
ENDBRANCH  26  27
ENDBRANCH  25  26
ENDBRANCH   4  25
TORSDOF 14
ENDMDL
MODEL 7
REMARK VINA RESULT:      -6.8      4.474      7.946
REMARK  Name = 
REMARK  15 active torsions:
REMARK  status: ('A' for Active; 'I' for Inactive)
REMARK    1  A    between atoms: C_1  and  N_2
REMARK    2  A    between atoms: N_4  and  C_5
REMARK    3  A    between atoms: C_8  and  C_10
REMARK    4  A    between atoms: C_10  and  O_11
REMARK    5  A    between atoms: O_11  and  P_12
REMARK    6  A    between atoms: P_12  and  O_13
REMARK    7  A    between atoms: P_12  and  O_15
REMARK    8  A    between atoms: O_15  and  P_16
REMARK    9  A    between atoms: P_16  and  O_17
REMARK   10  A    between atoms: P_16  and  O_19
REMARK   11  A    between atoms: O_19  and  P_20
REMARK   12  A    between atoms: P_20  and  O_21
REMARK   13  A    between atoms: P_20  and  O_22
REMARK   14  A    between atoms: C_24  and  O_26
REMARK   15  A    between atoms: C_27  and  O_29
REMARK                            x       y       z     vdW  Elec       q    Type
REMARK                         _______ _______ _______ _____ _____    ______ ____
ROOT
ATOM      1  C   UNL     1       7.358  -0.095  23.625  0.00  0.00    +0.240 C 
ATOM      2  C   UNL     1       7.150  -1.074  22.443  0.00  0.00    +0.193 C 
ATOM      3  C   UNL     1       8.390  -1.965  22.461  0.00  0.00    +0.178 C 
ATOM      4  C   UNL     1       9.138  -1.533  23.723  0.00  0.00    +0.178 C 
ATOM      5  O   UNL     1       8.194  -0.827  24.545  0.00  0.00    -0.348 OA
ENDROOT
BRANCH   1  19
ATOM      6  C   UNL     1      10.640   3.643  23.671  0.00  0.00    +0.131 C 
ATOM      7  N   UNL     1       9.400   2.913  23.639  0.00  0.00    -0.310 N 
ATOM      8  C   UNL     1       8.175   3.368  23.181  0.00  0.00    +0.136 A 
ATOM      9  C   UNL     1       7.722   4.734  22.871  0.00  0.00    +0.276 A 
ATOM     10  N   UNL     1       6.403   4.799  22.492  0.00  0.00    -0.294 N 
ATOM     11  H   UNL     1       6.058   5.703  22.223  0.00  0.00    +0.172 HD
ATOM     12  C   UNL     1       5.607   3.695  22.380  0.00  0.00    +0.195 A 
ATOM     13  N   UNL     1       6.010   2.496  22.648  0.00  0.00    -0.199 NA
ATOM     14  N   UNL     1       4.325   3.886  21.984  0.00  0.00    -0.329 N 
ATOM     15  H   UNL     1       3.783   3.033  22.100  0.00  0.00    +0.145 HD
ATOM     16  H   UNL     1       3.851   4.693  22.368  0.00  0.00    +0.145 HD
ATOM     17  O   UNL     1       8.438   5.726  22.936  0.00  0.00    -0.266 OA
ATOM     18  C   UNL     1       7.308   2.349  23.019  0.00  0.00    +0.155 A 
ATOM     19  N   UNL     1       7.994   1.160  23.280  0.00  0.00    -0.270 N 
ATOM     20  C   UNL     1       9.344   1.457  23.777  0.00  0.00    +0.217 C 
ENDBRANCH   1  19
BRANCH   2  21
ATOM     21  O   UNL     1       5.975  -1.891  22.661  0.00  0.00    -0.385 OA
ATOM     22  H   UNL     1       5.194  -1.356  22.444  0.00  0.00    +0.210 HD
ENDBRANCH   2  21
BRANCH   3  23
ATOM     23  O   UNL     1       9.190  -1.777  21.293  0.00  0.00    -0.386 OA
ATOM     24  H   UNL     1       9.913  -2.428  21.323  0.00  0.00    +0.210 HD
ENDBRANCH   3  23
BRANCH   4  25
ATOM     25  C   UNL     1       9.735  -2.711  24.487  0.00  0.00    +0.206 C 
BRANCH  25  26
ATOM     26  O   UNL     1       8.740  -3.312  25.301  0.00  0.00    -0.284 OA
BRANCH  26  27
ATOM     27  P   UNL     1       8.490  -4.892  25.174  0.00  0.00    +0.483 P 
ATOM     28  O   UNL     1       9.566  -5.645  24.463  0.00  0.00    -0.227 OA
BRANCH  27  29
ATOM     29  O   UNL     1       8.380  -5.364  26.705  0.00  0.00    -0.302 OA
ATOM     30  H   UNL     1       7.508  -5.773  26.873  0.00  0.00    +0.222 HD
ENDBRANCH  27  29
BRANCH  27  31
ATOM     31  O   UNL     1       7.010  -5.117  24.614  0.00  0.00    -0.186 OA
BRANCH  31  32
ATOM     32  P   UNL     1       5.775  -4.805  25.648  0.00  0.00    +0.492 P 
ATOM     33  O   UNL     1       5.635  -6.277  25.918  0.00  0.00    -0.226 OA
BRANCH  32  34
ATOM     34  O   UNL     1       5.859  -3.414  24.875  0.00  0.00    -0.302 OA
ATOM     35  H   UNL     1       5.042  -2.902  25.033  0.00  0.00    +0.222 HD
ENDBRANCH  32  34
BRANCH  32  36
ATOM     36  O   UNL     1       4.392  -4.888  24.770  0.00  0.00    -0.186 OA
BRANCH  36  37
ATOM     37  P   UNL     1       4.453  -5.349  23.240  0.00  0.00    +0.481 P 
ATOM     38  O   UNL     1       5.057  -4.394  22.270  0.00  0.00    -0.227 OA
BRANCH  37  39
ATOM     39  O   UNL     1       2.945  -5.753  22.896  0.00  0.00    -0.302 OA
ATOM     40  H   UNL     1       2.874  -6.514  22.284  0.00  0.00    +0.222 HD
ENDBRANCH  37  39
BRANCH  37  41
ATOM     41  O   UNL     1       5.120  -6.802  23.304  0.00  0.00    -0.302 OA
ATOM     42  H   UNL     1       5.971  -6.845  22.837  0.00  0.00    +0.222 HD
ENDBRANCH  37  41
ENDBRANCH  36  37
ENDBRANCH  32  36
ENDBRANCH  31  32
ENDBRANCH  27  31
ENDBRANCH  26  27
ENDBRANCH  25  26
ENDBRANCH   4  25
TORSDOF 14
ENDMDL
MODEL 8
REMARK VINA RESULT:      -6.8      4.614      8.079
REMARK  Name = 
REMARK  15 active torsions:
REMARK  status: ('A' for Active; 'I' for Inactive)
REMARK    1  A    between atoms: C_1  and  N_2
REMARK    2  A    between atoms: N_4  and  C_5
REMARK    3  A    between atoms: C_8  and  C_10
REMARK    4  A    between atoms: C_10  and  O_11
REMARK    5  A    between atoms: O_11  and  P_12
REMARK    6  A    between atoms: P_12  and  O_13
REMARK    7  A    between atoms: P_12  and  O_15
REMARK    8  A    between atoms: O_15  and  P_16
REMARK    9  A    between atoms: P_16  and  O_17
REMARK   10  A    between atoms: P_16  and  O_19
REMARK   11  A    between atoms: O_19  and  P_20
REMARK   12  A    between atoms: P_20  and  O_21
REMARK   13  A    between atoms: P_20  and  O_22
REMARK   14  A    between atoms: C_24  and  O_26
REMARK   15  A    between atoms: C_27  and  O_29
REMARK                            x       y       z     vdW  Elec       q    Type
REMARK                         _______ _______ _______ _____ _____    ______ ____
ROOT
ATOM      1  C   UNL     1       6.617  -0.046  24.828  0.00  0.00    +0.240 C 
ATOM      2  C   UNL     1       7.258  -0.698  23.578  0.00  0.00    +0.193 C 
ATOM      3  C   UNL     1       8.256  -1.707  24.143  0.00  0.00    +0.178 C 
ATOM      4  C   UNL     1       8.012  -1.664  25.652  0.00  0.00    +0.178 C 
ATOM      5  O   UNL     1       6.722  -1.061  25.848  0.00  0.00    -0.348 OA
ENDROOT
BRANCH   1  19
ATOM      6  C   UNL     1       7.251   4.300  27.164  0.00  0.00    +0.131 C 
ATOM      7  N   UNL     1       7.275   3.275  26.154  0.00  0.00    -0.310 N 
ATOM      8  C   UNL     1       8.115   3.203  25.055  0.00  0.00    +0.136 A 
ATOM      9  C   UNL     1       8.992   4.224  24.460  0.00  0.00    +0.276 A 
ATOM     10  N   UNL     1       9.639   3.795  23.326  0.00  0.00    -0.294 N 
ATOM     11  H   UNL     1      10.286   4.440  22.908  0.00  0.00    +0.172 HD
ATOM     12  C   UNL     1       9.503   2.531  22.827  0.00  0.00    +0.195 A 
ATOM     13  N   UNL     1       8.736   1.636  23.356  0.00  0.00    -0.199 NA
ATOM     14  N   UNL     1      10.203   2.223  21.708  0.00  0.00    -0.329 N 
ATOM     15  H   UNL     1       9.900   1.328  21.332  0.00  0.00    +0.145 HD
ATOM     16  H   UNL     1      10.251   2.938  20.995  0.00  0.00    +0.145 HD
ATOM     17  O   UNL     1       9.146   5.350  24.920  0.00  0.00    -0.266 OA
ATOM     18  C   UNL     1       8.072   1.981  24.489  0.00  0.00    +0.155 A 
ATOM     19  N   UNL     1       7.254   1.172  25.283  0.00  0.00    -0.270 N 
ATOM     20  C   UNL     1       6.628   1.975  26.341  0.00  0.00    +0.217 C 
ENDBRANCH   1  19
BRANCH   2  21
ATOM     21  O   UNL     1       6.259  -1.402  22.803  0.00  0.00    -0.385 OA
ATOM     22  H   UNL     1       6.643  -1.603  21.933  0.00  0.00    +0.210 HD
ENDBRANCH   2  21
BRANCH   3  23
ATOM     23  O   UNL     1       9.601  -1.351  23.824  0.00  0.00    -0.386 OA
ATOM     24  H   UNL     1      10.184  -2.041  24.189  0.00  0.00    +0.210 HD
ENDBRANCH   3  23
BRANCH   4  25
ATOM     25  C   UNL     1       8.058  -3.047  26.296  0.00  0.00    +0.206 C 
BRANCH  25  26
ATOM     26  O   UNL     1       6.741  -3.555  26.441  0.00  0.00    -0.284 OA
BRANCH  26  27
ATOM     27  P   UNL     1       6.478  -5.110  26.147  0.00  0.00    +0.483 P 
ATOM     28  O   UNL     1       7.449  -6.046  26.788  0.00  0.00    -0.227 OA
BRANCH  27  29
ATOM     29  O   UNL     1       4.997  -5.342  26.725  0.00  0.00    -0.302 OA
ATOM     30  H   UNL     1       5.021  -5.420  27.699  0.00  0.00    +0.222 HD
ENDBRANCH  27  29
BRANCH  27  31
ATOM     31  O   UNL     1       6.289  -5.293  24.570  0.00  0.00    -0.186 OA
BRANCH  31  32
ATOM     32  P   UNL     1       4.747  -5.300  24.009  0.00  0.00    +0.492 P 
ATOM     33  O   UNL     1       4.811  -6.794  23.862  0.00  0.00    -0.226 OA
BRANCH  32  34
ATOM     34  O   UNL     1       5.099  -3.752  23.860  0.00  0.00    -0.302 OA
ATOM     35  H   UNL     1       6.066  -3.642  23.779  0.00  0.00    +0.222 HD
ENDBRANCH  32  34
BRANCH  32  36
ATOM     36  O   UNL     1       4.840  -5.188  22.375  0.00  0.00    -0.186 OA
BRANCH  36  37
ATOM     37  P   UNL     1       6.272  -5.169  21.663  0.00  0.00    +0.481 P 
ATOM     38  O   UNL     1       7.085  -3.931  21.816  0.00  0.00    -0.227 OA
BRANCH  37  39
ATOM     39  O   UNL     1       5.955  -5.551  20.144  0.00  0.00    -0.302 OA
ATOM     40  H   UNL     1       6.116  -6.494  19.936  0.00  0.00    +0.222 HD
ENDBRANCH  37  39
BRANCH  37  41
ATOM     41  O   UNL     1       6.960  -6.528  22.152  0.00  0.00    -0.302 OA
ATOM     42  H   UNL     1       6.573  -6.869  22.975  0.00  0.00    +0.222 HD
ENDBRANCH  37  41
ENDBRANCH  36  37
ENDBRANCH  32  36
ENDBRANCH  31  32
ENDBRANCH  27  31
ENDBRANCH  26  27
ENDBRANCH  25  26
ENDBRANCH   4  25
TORSDOF 14
ENDMDL
MODEL 9
REMARK VINA RESULT:      -6.8      4.719      8.769
REMARK  Name = 
REMARK  15 active torsions:
REMARK  status: ('A' for Active; 'I' for Inactive)
REMARK    1  A    between atoms: C_1  and  N_2
REMARK    2  A    between atoms: N_4  and  C_5
REMARK    3  A    between atoms: C_8  and  C_10
REMARK    4  A    between atoms: C_10  and  O_11
REMARK    5  A    between atoms: O_11  and  P_12
REMARK    6  A    between atoms: P_12  and  O_13
REMARK    7  A    between atoms: P_12  and  O_15
REMARK    8  A    between atoms: O_15  and  P_16
REMARK    9  A    between atoms: P_16  and  O_17
REMARK   10  A    between atoms: P_16  and  O_19
REMARK   11  A    between atoms: O_19  and  P_20
REMARK   12  A    between atoms: P_20  and  O_21
REMARK   13  A    between atoms: P_20  and  O_22
REMARK   14  A    between atoms: C_24  and  O_26
REMARK   15  A    between atoms: C_27  and  O_29
REMARK                            x       y       z     vdW  Elec       q    Type
REMARK                         _______ _______ _______ _____ _____    ______ ____
ROOT
ATOM      1  C   UNL     1       5.827  -2.921  23.922  0.00  0.00    +0.240 C 
ATOM      2  C   UNL     1       5.660  -4.118  22.954  0.00  0.00    +0.193 C 
ATOM      3  C   UNL     1       6.482  -5.239  23.586  0.00  0.00    +0.178 C 
ATOM      4  C   UNL     1       6.934  -4.657  24.926  0.00  0.00    +0.178 C 
ATOM      5  O   UNL     1       6.077  -3.537  25.203  0.00  0.00    -0.348 OA
ENDROOT
BRANCH   1  19
ATOM      6  C   UNL     1       9.850  -1.073  21.653  0.00  0.00    +0.131 C 
ATOM      7  N   UNL     1       8.913  -1.457  22.676  0.00  0.00    -0.310 N 
ATOM      8  C   UNL     1       8.813  -0.937  23.956  0.00  0.00    +0.136 A 
ATOM      9  C   UNL     1       9.748  -0.090  24.714  0.00  0.00    +0.276 A 
ATOM     10  N   UNL     1       9.325   0.181  25.993  0.00  0.00    -0.294 N 
ATOM     11  H   UNL     1       9.905   0.795  26.537  0.00  0.00    +0.172 HD
ATOM     12  C   UNL     1       8.134  -0.264  26.492  0.00  0.00    +0.195 A 
ATOM     13  N   UNL     1       7.313  -1.003  25.820  0.00  0.00    -0.199 NA
ATOM     14  N   UNL     1       7.821   0.080  27.764  0.00  0.00    -0.329 N 
ATOM     15  H   UNL     1       7.008  -0.439  28.087  0.00  0.00    +0.145 HD
ATOM     16  H   UNL     1       8.577   0.057  28.436  0.00  0.00    +0.145 HD
ATOM     17  O   UNL     1      10.803   0.342  24.264  0.00  0.00    -0.266 OA
ATOM     18  C   UNL     1       7.656  -1.305  24.541  0.00  0.00    +0.155 A 
ATOM     19  N   UNL     1       6.907  -2.013  23.598  0.00  0.00    -0.270 N 
ATOM     20  C   UNL     1       7.703  -2.227  22.382  0.00  0.00    +0.217 C 
ENDBRANCH   1  19
BRANCH   2  21
ATOM     21  O   UNL     1       4.273  -4.528  22.886  0.00  0.00    -0.385 OA
ATOM     22  H   UNL     1       4.223  -5.460  23.153  0.00  0.00    +0.210 HD
ENDBRANCH   2  21
BRANCH   3  23
ATOM     23  O   UNL     1       7.599  -5.597  22.772  0.00  0.00    -0.386 OA
ATOM     24  H   UNL     1       7.551  -6.556  22.610  0.00  0.00    +0.210 HD
ENDBRANCH   3  23
BRANCH   4  25
ATOM     25  C   UNL     1       6.868  -5.672  26.063  0.00  0.00    +0.206 C 
BRANCH  25  26
ATOM     26  O   UNL     1       5.900  -5.265  27.018  0.00  0.00    -0.284 OA
BRANCH  26  27
ATOM     27  P   UNL     1       4.964  -6.381  27.690  0.00  0.00    +0.483 P 
ATOM     28  O   UNL     1       5.692  -7.448  28.439  0.00  0.00    -0.227 OA
BRANCH  27  29
ATOM     29  O   UNL     1       4.033  -5.523  28.678  0.00  0.00    -0.302 OA
ATOM     30  H   UNL     1       3.418  -6.110  29.161  0.00  0.00    +0.222 HD
ENDBRANCH  27  29
BRANCH  27  31
ATOM     31  O   UNL     1       3.937  -6.901  26.580  0.00  0.00    -0.186 OA
BRANCH  31  32
ATOM     32  P   UNL     1       2.508  -6.104  26.466  0.00  0.00    +0.492 P 
ATOM     33  O   UNL     1       1.811  -7.268  27.113  0.00  0.00    -0.226 OA
BRANCH  32  34
ATOM     34  O   UNL     1       3.395  -5.247  25.456  0.00  0.00    -0.302 OA
ATOM     35  H   UNL     1       2.872  -5.040  24.657  0.00  0.00    +0.222 HD
ENDBRANCH  32  34
BRANCH  32  36
ATOM     36  O   UNL     1       1.828  -6.555  25.043  0.00  0.00    -0.186 OA
BRANCH  36  37
ATOM     37  P   UNL     1       2.402  -7.825  24.259  0.00  0.00    +0.481 P 
ATOM     38  O   UNL     1       1.601  -8.327  23.109  0.00  0.00    -0.227 OA
BRANCH  37  39
ATOM     39  O   UNL     1       2.643  -8.913  25.405  0.00  0.00    -0.302 OA
ATOM     40  H   UNL     1       1.862  -9.058  25.977  0.00  0.00    +0.222 HD
ENDBRANCH  37  39
BRANCH  37  41
ATOM     41  O   UNL     1       3.918  -7.422  23.938  0.00  0.00    -0.302 OA
ATOM     42  H   UNL     1       4.513  -7.572  24.691  0.00  0.00    +0.222 HD
ENDBRANCH  37  41
ENDBRANCH  36  37
ENDBRANCH  32  36
ENDBRANCH  31  32
ENDBRANCH  27  31
ENDBRANCH  26  27
ENDBRANCH  25  26
ENDBRANCH   4  25
TORSDOF 14
ENDMDL
