MODEL 1
REMARK VINA RESULT:      -7.5      0.000      0.000
REMARK  Name = 
REMARK  13 active torsions:
REMARK  status: ('A' for Active; 'I' for Inactive)
REMARK    1  A    between atoms: C_1  and  N_2
REMARK    2  A    between atoms: N_2  and  C_3
REMARK    3  A    between atoms: N_2  and  C_11
REMARK    4  A    between atoms: C_3  and  C_4
REMARK    5  A    between atoms: C_4  and  CA_5
REMARK    6  A    between atoms: CA_5  and  N_7
REMARK    7  A    between atoms: CA_5  and  C_8
REMARK    8  A    between atoms: C_8  and  O_9
REMARK    9  A    between atoms: C_11  and  C_12
REMARK   10  A    between atoms: C_15  and  N_23
REMARK   11  A    between atoms: C_17  and  O_19
REMARK   12  A    between atoms: C_20  and  O_22
REMARK   13  A    between atoms: C_27  and  N_28
REMARK                            x       y       z     vdW  Elec       q    Type
REMARK                         _______ _______ _______ _____ _____    ______ ____
ROOT
ATOM      1  C   UNL     1       9.193   1.617  23.713  0.00  0.00    +0.166 C 
ATOM      2  C   UNL     1       9.025   1.458  22.204  0.00  0.00    +0.177 C 
ATOM      3  C   UNL     1       8.793  -0.040  22.010  0.00  0.00    +0.195 C 
ATOM      4  C   UNL     1       8.902  -0.625  23.425  0.00  0.00    +0.253 C 
ATOM      5  O   UNL     1       8.619   0.453  24.332  0.00  0.00    -0.347 OA
ENDROOT
BRANCH   4   6
ATOM      6  N   UNL     1       8.027  -1.750  23.694  0.00  0.00    -0.286 N 
ATOM      7  C   UNL     1       8.440  -2.956  24.198  0.00  0.00    +0.167 A 
ATOM      8  C   UNL     1       7.281  -3.581  24.625  0.00  0.00    +0.147 A 
ATOM      9  C   UNL     1       7.440  -4.797  25.311  0.00  0.00    +0.147 A 
ATOM     10  N   UNL     1       8.684  -5.321  25.414  0.00  0.00    -0.219 NA
ATOM     11  C   UNL     1       9.720  -4.621  24.908  0.00  0.00    +0.225 A 
ATOM     12  N   UNL     1       6.172  -2.825  24.303  0.00  0.00    -0.231 NA
ATOM     13  N   UNL     1       9.703  -3.409  24.311  0.00  0.00    -0.216 NA
ATOM     14  C   UNL     1       6.657  -1.738  23.737  0.00  0.00    +0.203 A 
BRANCH   9  15
ATOM     15  N   UNL     1       6.393  -5.475  25.913  0.00  0.00    -0.341 N 
ATOM     16  H   UNL     1       5.502  -5.006  25.832  0.00  0.00    +0.144 HD
ATOM     17  H   UNL     1       6.628  -5.941  26.781  0.00  0.00    +0.144 HD
ENDBRANCH   9  15
ENDBRANCH   4   6
BRANCH   2  18
ATOM     18  O   UNL     1      10.184   1.926  21.515  0.00  0.00    -0.386 OA
ATOM     19  H   UNL     1      10.459   1.185  20.936  0.00  0.00    +0.210 HD
ENDBRANCH   2  18
BRANCH   3  20
ATOM     20  O   UNL     1       9.751  -0.587  21.096  0.00  0.00    -0.385 OA
ATOM     21  H   UNL     1       9.241  -1.169  20.490  0.00  0.00    +0.210 HD
ENDBRANCH   3  20
BRANCH   1  22
ATOM     22  C   UNL     1       8.631   2.937  24.275  0.00  0.00    +0.118 C 
BRANCH  22  24
ATOM     23  C   UNL     1       7.723   4.842  23.050  0.00  0.00    +0.105 C 
ATOM     24  N   UNL     1       8.945   4.170  23.519  0.00  0.00    -0.303 NA
BRANCH  24  25
ATOM     25  C   UNL     1       9.705   5.136  24.339  0.00  0.00    +0.086 C 
BRANCH  25  26
ATOM     26  C   UNL     1      10.778   5.946  23.586  0.00  0.00    +0.045 C 
BRANCH  26  27
ATOM     27  CA  UNL     1      12.206   5.625  24.052  0.00  0.00    +0.162 C 
BRANCH  27  28
ATOM     28  N   UNL     1      12.782   6.743  24.858  0.00  0.00    -0.318 NA
ATOM     29  H1  UNL     1      12.045   7.437  25.007  0.00  0.00    +0.119 HD
ATOM     30  H2  UNL     1      12.978   6.382  25.800  0.00  0.00    +0.119 HD
ENDBRANCH  27  28
BRANCH  27  31
ATOM     31  C   UNL     1      13.122   5.363  22.847  0.00  0.00    +0.322 C 
ATOM     32  OXT UNL     1      12.819   5.542  21.678  0.00  0.00    -0.249 OA
BRANCH  31  33
ATOM     33  O   UNL     1      14.346   4.927  23.251  0.00  0.00    -0.480 OA
ATOM     34  H   UNL     1      14.337   3.943  23.150  0.00  0.00    +0.295 HD
ENDBRANCH  31  33
ENDBRANCH  27  31
ENDBRANCH  26  27
ENDBRANCH  25  26
ENDBRANCH  24  25
ENDBRANCH  22  24
ENDBRANCH   1  22
TORSDOF 12
ENDMDL
MODEL 2
REMARK VINA RESULT:      -7.0      1.838      2.683
REMARK  Name = 
REMARK  13 active torsions:
REMARK  status: ('A' for Active; 'I' for Inactive)
REMARK    1  A    between atoms: C_1  and  N_2
REMARK    2  A    between atoms: N_2  and  C_3
REMARK    3  A    between atoms: N_2  and  C_11
REMARK    4  A    between atoms: C_3  and  C_4
REMARK    5  A    between atoms: C_4  and  CA_5
REMARK    6  A    between atoms: CA_5  and  N_7
REMARK    7  A    between atoms: CA_5  and  C_8
REMARK    8  A    between atoms: C_8  and  O_9
REMARK    9  A    between atoms: C_11  and  C_12
REMARK   10  A    between atoms: C_15  and  N_23
REMARK   11  A    between atoms: C_17  and  O_19
REMARK   12  A    between atoms: C_20  and  O_22
REMARK   13  A    between atoms: C_27  and  N_28
REMARK                            x       y       z     vdW  Elec       q    Type
REMARK                         _______ _______ _______ _____ _____    ______ ____
ROOT
ATOM      1  C   UNL     1       8.686   0.638  23.699  0.00  0.00    +0.166 C 
ATOM      2  C   UNL     1       9.016   0.404  22.227  0.00  0.00    +0.177 C 
ATOM      3  C   UNL     1       9.245  -1.104  22.131  0.00  0.00    +0.195 C 
ATOM      4  C   UNL     1       9.081  -1.603  23.573  0.00  0.00    +0.253 C 
ATOM      5  O   UNL     1       8.275  -0.624  24.251  0.00  0.00    -0.347 OA
ENDROOT
BRANCH   4   6
ATOM      6  N   UNL     1       8.486  -2.920  23.703  0.00  0.00    -0.286 N 
ATOM      7  C   UNL     1       7.361  -3.336  23.040  0.00  0.00    +0.167 A 
ATOM      8  C   UNL     1       7.360  -4.715  23.168  0.00  0.00    +0.147 A 
ATOM      9  C   UNL     1       6.367  -5.410  22.458  0.00  0.00    +0.147 A 
ATOM     10  N   UNL     1       5.428  -4.695  21.794  0.00  0.00    -0.219 NA
ATOM     11  C   UNL     1       5.527  -3.349  21.794  0.00  0.00    +0.225 A 
ATOM     12  N   UNL     1       8.402  -5.131  23.971  0.00  0.00    -0.231 NA
ATOM     13  N   UNL     1       6.481  -2.578  22.360  0.00  0.00    -0.216 NA
ATOM     14  C   UNL     1       9.051  -4.027  24.282  0.00  0.00    +0.203 A 
BRANCH   9  15
ATOM     15  N   UNL     1       6.313  -6.792  22.377  0.00  0.00    -0.341 N 
ATOM     16  H   UNL     1       5.444  -7.146  22.003  0.00  0.00    +0.144 HD
ATOM     17  H   UNL     1       6.755  -7.283  23.144  0.00  0.00    +0.144 HD
ENDBRANCH   9  15
ENDBRANCH   4   6
BRANCH   2  18
ATOM     18  O   UNL     1      10.164   1.158  21.840  0.00  0.00    -0.386 OA
ATOM     19  H   UNL     1      10.927   0.558  21.978  0.00  0.00    +0.210 HD
ENDBRANCH   2  18
BRANCH   3  20
ATOM     20  O   UNL     1      10.537  -1.385  21.579  0.00  0.00    -0.385 OA
ATOM     21  H   UNL     1      10.654  -2.359  21.657  0.00  0.00    +0.210 HD
ENDBRANCH   3  20
BRANCH   1  22
ATOM     22  C   UNL     1       7.663   1.764  23.945  0.00  0.00    +0.118 C 
BRANCH  22  24
ATOM     23  C   UNL     1       6.964   3.229  22.123  0.00  0.00    +0.105 C 
ATOM     24  N   UNL     1       7.901   3.045  23.243  0.00  0.00    -0.303 NA
BRANCH  24  25
ATOM     25  C   UNL     1       7.752   4.202  24.151  0.00  0.00    +0.086 C 
BRANCH  25  26
ATOM     26  C   UNL     1       9.040   4.653  24.866  0.00  0.00    +0.045 C 
BRANCH  26  27
ATOM     27  CA  UNL     1       9.889   5.614  24.022  0.00  0.00    +0.162 C 
BRANCH  27  28
ATOM     28  N   UNL     1       9.159   6.054  22.795  0.00  0.00    -0.318 NA
ATOM     29  H1  UNL     1       8.464   6.750  23.073  0.00  0.00    +0.119 HD
ATOM     30  H2  UNL     1       9.819   6.580  22.209  0.00  0.00    +0.119 HD
ENDBRANCH  27  28
BRANCH  27  31
ATOM     31  C   UNL     1      11.205   4.944  23.599  0.00  0.00    +0.322 C 
ATOM     32  OXT UNL     1      12.321   5.407  23.773  0.00  0.00    -0.249 OA
BRANCH  31  33
ATOM     33  O   UNL     1      10.973   3.733  23.024  0.00  0.00    -0.480 OA
ATOM     34  H   UNL     1      11.007   3.067  23.755  0.00  0.00    +0.295 HD
ENDBRANCH  31  33
ENDBRANCH  27  31
ENDBRANCH  26  27
ENDBRANCH  25  26
ENDBRANCH  24  25
ENDBRANCH  22  24
ENDBRANCH   1  22
TORSDOF 12
ENDMDL
MODEL 3
REMARK VINA RESULT:      -7.0      4.497      7.923
REMARK  Name = 
REMARK  13 active torsions:
REMARK  status: ('A' for Active; 'I' for Inactive)
REMARK    1  A    between atoms: C_1  and  N_2
REMARK    2  A    between atoms: N_2  and  C_3
REMARK    3  A    between atoms: N_2  and  C_11
REMARK    4  A    between atoms: C_3  and  C_4
REMARK    5  A    between atoms: C_4  and  CA_5
REMARK    6  A    between atoms: CA_5  and  N_7
REMARK    7  A    between atoms: CA_5  and  C_8
REMARK    8  A    between atoms: C_8  and  O_9
REMARK    9  A    between atoms: C_11  and  C_12
REMARK   10  A    between atoms: C_15  and  N_23
REMARK   11  A    between atoms: C_17  and  O_19
REMARK   12  A    between atoms: C_20  and  O_22
REMARK   13  A    between atoms: C_27  and  N_28
REMARK                            x       y       z     vdW  Elec       q    Type
REMARK                         _______ _______ _______ _____ _____    ______ ____
ROOT
ATOM      1  C   UNL     1       4.858  -3.531  24.507  0.00  0.00    +0.166 C 
ATOM      2  C   UNL     1       5.171  -4.470  23.344  0.00  0.00    +0.177 C 
ATOM      3  C   UNL     1       6.125  -3.666  22.461  0.00  0.00    +0.195 C 
ATOM      4  C   UNL     1       6.237  -2.308  23.166  0.00  0.00    +0.253 C 
ATOM      5  O   UNL     1       5.896  -2.537  24.544  0.00  0.00    -0.347 OA
ENDROOT
BRANCH   4   6
ATOM      6  N   UNL     1       7.537  -1.671  23.070  0.00  0.00    -0.286 N 
ATOM      7  C   UNL     1       7.842  -0.440  23.590  0.00  0.00    +0.167 A 
ATOM      8  C   UNL     1       9.226  -0.386  23.592  0.00  0.00    +0.147 A 
ATOM      9  C   UNL     1       9.809   0.736  24.205  0.00  0.00    +0.147 A 
ATOM     10  N   UNL     1       8.996   1.723  24.650  0.00  0.00    -0.219 NA
ATOM     11  C   UNL     1       7.662   1.555  24.541  0.00  0.00    +0.225 A 
ATOM     12  N   UNL     1       9.759  -1.512  22.997  0.00  0.00    -0.231 NA
ATOM     13  N   UNL     1       6.987   0.489  24.056  0.00  0.00    -0.216 NA
ATOM     14  C   UNL     1       8.716  -2.256  22.688  0.00  0.00    +0.203 A 
BRANCH   9  15
ATOM     15  N   UNL     1      11.173   0.873  24.403  0.00  0.00    -0.341 N 
ATOM     16  H   UNL     1      11.526   0.344  25.188  0.00  0.00    +0.144 HD
ATOM     17  H   UNL     1      11.540   1.801  24.230  0.00  0.00    +0.144 HD
ENDBRANCH   9  15
ENDBRANCH   4   6
BRANCH   2  18
ATOM     18  O   UNL     1       3.975  -4.843  22.660  0.00  0.00    -0.386 OA
ATOM     19  H   UNL     1       3.250  -4.681  23.299  0.00  0.00    +0.210 HD
ENDBRANCH   2  18
BRANCH   3  20
ATOM     20  O   UNL     1       5.618  -3.570  21.125  0.00  0.00    -0.385 OA
ATOM     21  H   UNL     1       5.277  -4.466  20.904  0.00  0.00    +0.210 HD
ENDBRANCH   3  20
BRANCH   1  22
ATOM     22  C   UNL     1       4.660  -4.245  25.858  0.00  0.00    +0.118 C 
BRANCH  22  24
ATOM     23  C   UNL     1       4.540  -3.222  28.071  0.00  0.00    +0.105 C 
ATOM     24  N   UNL     1       5.429  -3.718  27.008  0.00  0.00    -0.303 NA
BRANCH  24  25
ATOM     25  C   UNL     1       6.306  -4.751  27.598  0.00  0.00    +0.086 C 
BRANCH  25  26
ATOM     26  C   UNL     1       7.235  -5.478  26.608  0.00  0.00    +0.045 C 
BRANCH  26  27
ATOM     27  CA  UNL     1       8.552  -4.729  26.362  0.00  0.00    +0.162 C 
BRANCH  27  28
ATOM     28  N   UNL     1       8.332  -3.256  26.259  0.00  0.00    -0.318 NA
ATOM     29  H1  UNL     1       9.235  -2.792  26.384  0.00  0.00    +0.119 HD
ATOM     30  H2  UNL     1       8.076  -3.044  25.287  0.00  0.00    +0.119 HD
ENDBRANCH  27  28
BRANCH  27  31
ATOM     31  C   UNL     1       9.220  -5.220  25.068  0.00  0.00    +0.322 C 
ATOM     32  OXT UNL     1       8.638  -5.474  24.026  0.00  0.00    -0.249 OA
BRANCH  31  33
ATOM     33  O   UNL     1      10.569  -5.308  25.219  0.00  0.00    -0.480 OA
ATOM     34  H   UNL     1      10.753  -5.131  26.175  0.00  0.00    +0.295 HD
ENDBRANCH  31  33
ENDBRANCH  27  31
ENDBRANCH  26  27
ENDBRANCH  25  26
ENDBRANCH  24  25
ENDBRANCH  22  24
ENDBRANCH   1  22
TORSDOF 12
ENDMDL
MODEL 4
REMARK VINA RESULT:      -6.9      3.421      5.414
REMARK  Name = 
REMARK  13 active torsions:
REMARK  status: ('A' for Active; 'I' for Inactive)
REMARK    1  A    between atoms: C_1  and  N_2
REMARK    2  A    between atoms: N_2  and  C_3
REMARK    3  A    between atoms: N_2  and  C_11
REMARK    4  A    between atoms: C_3  and  C_4
REMARK    5  A    between atoms: C_4  and  CA_5
REMARK    6  A    between atoms: CA_5  and  N_7
REMARK    7  A    between atoms: CA_5  and  C_8
REMARK    8  A    between atoms: C_8  and  O_9
REMARK    9  A    between atoms: C_11  and  C_12
REMARK   10  A    between atoms: C_15  and  N_23
REMARK   11  A    between atoms: C_17  and  O_19
REMARK   12  A    between atoms: C_20  and  O_22
REMARK   13  A    between atoms: C_27  and  N_28
REMARK                            x       y       z     vdW  Elec       q    Type
REMARK                         _______ _______ _______ _____ _____    ______ ____
ROOT
ATOM      1  C   UNL     1       8.045  -2.643  25.069  0.00  0.00    +0.166 C 
ATOM      2  C   UNL     1       8.685  -3.588  24.055  0.00  0.00    +0.177 C 
ATOM      3  C   UNL     1       8.318  -4.983  24.560  0.00  0.00    +0.195 C 
ATOM      4  C   UNL     1       7.541  -4.721  25.857  0.00  0.00    +0.253 C 
ATOM      5  O   UNL     1       7.023  -3.384  25.757  0.00  0.00    -0.347 OA
ENDROOT
BRANCH   4   6
ATOM      6  N   UNL     1       6.466  -5.657  26.128  0.00  0.00    -0.286 N 
ATOM      7  C   UNL     1       6.116  -6.102  27.376  0.00  0.00    +0.167 A 
ATOM      8  C   UNL     1       4.861  -6.666  27.217  0.00  0.00    +0.147 A 
ATOM      9  C   UNL     1       4.210  -7.089  28.387  0.00  0.00    +0.147 A 
ATOM     10  N   UNL     1       4.881  -7.018  29.561  0.00  0.00    -0.219 NA
ATOM     11  C   UNL     1       6.121  -6.485  29.560  0.00  0.00    +0.225 A 
ATOM     12  N   UNL     1       4.489  -6.658  25.887  0.00  0.00    -0.231 NA
ATOM     13  N   UNL     1       6.811  -5.966  28.521  0.00  0.00    -0.216 NA
ATOM     14  C   UNL     1       5.479  -6.054  25.263  0.00  0.00    +0.203 A 
BRANCH   9  15
ATOM     15  N   UNL     1       2.904  -7.550  28.409  0.00  0.00    -0.341 N 
ATOM     16  H   UNL     1       2.349  -7.168  29.162  0.00  0.00    +0.144 HD
ATOM     17  H   UNL     1       2.789  -8.524  28.157  0.00  0.00    +0.144 HD
ENDBRANCH   9  15
ENDBRANCH   4   6
BRANCH   2  18
ATOM     18  O   UNL     1      10.097  -3.382  23.993  0.00  0.00    -0.386 OA
ATOM     19  H   UNL     1      10.486  -4.089  24.549  0.00  0.00    +0.210 HD
ENDBRANCH   2  18
BRANCH   3  20
ATOM     20  O   UNL     1       9.494  -5.777  24.755  0.00  0.00    -0.385 OA
ATOM     21  H   UNL     1       9.785  -5.600  25.677  0.00  0.00    +0.210 HD
ENDBRANCH   3  20
BRANCH   1  22
ATOM     22  C   UNL     1       7.528  -1.324  24.465  0.00  0.00    +0.118 C 
BRANCH  22  24
ATOM     23  C   UNL     1       9.299  -0.275  25.775  0.00  0.00    +0.105 C 
ATOM     24  N   UNL     1       8.015  -0.071  25.086  0.00  0.00    -0.303 NA
BRANCH  24  25
ATOM     25  C   UNL     1       8.204   0.999  24.085  0.00  0.00    +0.086 C 
BRANCH  25  26
ATOM     26  C   UNL     1       9.656   1.474  23.888  0.00  0.00    +0.045 C 
BRANCH  26  27
ATOM     27  CA  UNL     1      10.145   1.321  22.440  0.00  0.00    +0.162 C 
BRANCH  27  28
ATOM     28  N   UNL     1       9.452   2.277  21.526  0.00  0.00    -0.318 NA
ATOM     29  H1  UNL     1      10.002   2.347  20.667  0.00  0.00    +0.119 HD
ATOM     30  H2  UNL     1       8.572   1.839  21.223  0.00  0.00    +0.119 HD
ENDBRANCH  27  28
BRANCH  27  31
ATOM     31  C   UNL     1       9.902  -0.109  21.935  0.00  0.00    +0.322 C 
ATOM     32  OXT UNL     1       9.161  -0.417  21.016  0.00  0.00    -0.249 OA
BRANCH  31  33
ATOM     33  O   UNL     1      10.652  -1.006  22.632  0.00  0.00    -0.480 OA
ATOM     34  H   UNL     1      11.055  -1.611  21.961  0.00  0.00    +0.295 HD
ENDBRANCH  31  33
ENDBRANCH  27  31
ENDBRANCH  26  27
ENDBRANCH  25  26
ENDBRANCH  24  25
ENDBRANCH  22  24
ENDBRANCH   1  22
TORSDOF 12
ENDMDL
MODEL 5
REMARK VINA RESULT:      -6.9      4.618      8.807
REMARK  Name = 
REMARK  13 active torsions:
REMARK  status: ('A' for Active; 'I' for Inactive)
REMARK    1  A    between atoms: C_1  and  N_2
REMARK    2  A    between atoms: N_2  and  C_3
REMARK    3  A    between atoms: N_2  and  C_11
REMARK    4  A    between atoms: C_3  and  C_4
REMARK    5  A    between atoms: C_4  and  CA_5
REMARK    6  A    between atoms: CA_5  and  N_7
REMARK    7  A    between atoms: CA_5  and  C_8
REMARK    8  A    between atoms: C_8  and  O_9
REMARK    9  A    between atoms: C_11  and  C_12
REMARK   10  A    between atoms: C_15  and  N_23
REMARK   11  A    between atoms: C_17  and  O_19
REMARK   12  A    between atoms: C_20  and  O_22
REMARK   13  A    between atoms: C_27  and  N_28
REMARK                            x       y       z     vdW  Elec       q    Type
REMARK                         _______ _______ _______ _____ _____    ______ ____
ROOT
ATOM      1  C   UNL     1       6.677  -4.727  25.483  0.00  0.00    +0.166 C 
ATOM      2  C   UNL     1       7.362  -4.781  26.847  0.00  0.00    +0.177 C 
ATOM      3  C   UNL     1       8.558  -3.841  26.703  0.00  0.00    +0.195 C 
ATOM      4  C   UNL     1       8.490  -3.367  25.245  0.00  0.00    +0.253 C 
ATOM      5  O   UNL     1       7.123  -3.527  24.829  0.00  0.00    -0.347 OA
ENDROOT
BRANCH   4   6
ATOM      6  N   UNL     1       8.925  -2.001  25.022  0.00  0.00    -0.286 N 
ATOM      7  C   UNL     1       9.179  -1.454  23.792  0.00  0.00    +0.167 A 
ATOM      8  C   UNL     1       9.208  -0.086  24.006  0.00  0.00    +0.147 A 
ATOM      9  C   UNL     1       9.324   0.726  22.866  0.00  0.00    +0.147 A 
ATOM     10  N   UNL     1       9.504   0.128  21.664  0.00  0.00    -0.219 NA
ATOM     11  C   UNL     1       9.501  -1.220  21.610  0.00  0.00    +0.225 A 
ATOM     12  N   UNL     1       9.074   0.199  25.350  0.00  0.00    -0.231 NA
ATOM     13  N   UNL     1       9.310  -2.100  22.618  0.00  0.00    -0.216 NA
ATOM     14  C   UNL     1       8.916  -0.974  25.930  0.00  0.00    +0.203 A 
BRANCH   9  15
ATOM     15  N   UNL     1       9.236   2.107  22.901  0.00  0.00    -0.341 N 
ATOM     16  H   UNL     1       8.389   2.473  22.489  0.00  0.00    +0.144 HD
ATOM     17  H   UNL     1      10.109   2.597  22.748  0.00  0.00    +0.144 HD
ENDBRANCH   9  15
ENDBRANCH   4   6
BRANCH   2  18
ATOM     18  O   UNL     1       7.751  -6.118  27.165  0.00  0.00    -0.386 OA
ATOM     19  H   UNL     1       8.113  -6.073  28.074  0.00  0.00    +0.210 HD
ENDBRANCH   2  18
BRANCH   3  20
ATOM     20  O   UNL     1       9.777  -4.521  27.020  0.00  0.00    -0.385 OA
ATOM     21  H   UNL     1      10.458  -4.144  26.419  0.00  0.00    +0.210 HD
ENDBRANCH   3  20
BRANCH   1  22
ATOM     22  C   UNL     1       5.142  -4.846  25.542  0.00  0.00    +0.118 C 
BRANCH  22  24
ATOM     23  C   UNL     1       3.191  -6.249  25.967  0.00  0.00    +0.105 C 
ATOM     24  N   UNL     1       4.577  -6.212  25.473  0.00  0.00    -0.303 NA
BRANCH  24  25
ATOM     25  C   UNL     1       4.577  -6.734  24.090  0.00  0.00    +0.086 C 
BRANCH  25  26
ATOM     26  C   UNL     1       4.348  -5.685  22.985  0.00  0.00    +0.045 C 
BRANCH  26  27
ATOM     27  CA  UNL     1       5.415  -5.735  21.882  0.00  0.00    +0.162 C 
BRANCH  27  28
ATOM     28  N   UNL     1       6.467  -6.751  22.185  0.00  0.00    -0.318 NA
ATOM     29  H1  UNL     1       6.572  -6.803  23.201  0.00  0.00    +0.119 HD
ATOM     30  H2  UNL     1       6.096  -7.674  21.926  0.00  0.00    +0.119 HD
ENDBRANCH  27  28
BRANCH  27  31
ATOM     31  C   UNL     1       6.087  -4.363  21.717  0.00  0.00    +0.322 C 
ATOM     32  OXT UNL     1       5.526  -3.341  21.357  0.00  0.00    -0.249 OA
BRANCH  31  33
ATOM     33  O   UNL     1       7.403  -4.421  22.058  0.00  0.00    -0.480 OA
ATOM     34  H   UNL     1       7.519  -5.257  22.575  0.00  0.00    +0.295 HD
ENDBRANCH  31  33
ENDBRANCH  27  31
ENDBRANCH  26  27
ENDBRANCH  25  26
ENDBRANCH  24  25
ENDBRANCH  22  24
ENDBRANCH   1  22
TORSDOF 12
ENDMDL
MODEL 6
REMARK VINA RESULT:      -6.8      1.895      2.715
REMARK  Name = 
REMARK  13 active torsions:
REMARK  status: ('A' for Active; 'I' for Inactive)
REMARK    1  A    between atoms: C_1  and  N_2
REMARK    2  A    between atoms: N_2  and  C_3
REMARK    3  A    between atoms: N_2  and  C_11
REMARK    4  A    between atoms: C_3  and  C_4
REMARK    5  A    between atoms: C_4  and  CA_5
REMARK    6  A    between atoms: CA_5  and  N_7
REMARK    7  A    between atoms: CA_5  and  C_8
REMARK    8  A    between atoms: C_8  and  O_9
REMARK    9  A    between atoms: C_11  and  C_12
REMARK   10  A    between atoms: C_15  and  N_23
REMARK   11  A    between atoms: C_17  and  O_19
REMARK   12  A    between atoms: C_20  and  O_22
REMARK   13  A    between atoms: C_27  and  N_28
REMARK                            x       y       z     vdW  Elec       q    Type
REMARK                         _______ _______ _______ _____ _____    ______ ____
ROOT
ATOM      1  C   UNL     1       8.579   0.324  23.520  0.00  0.00    +0.166 C 
ATOM      2  C   UNL     1       9.556  -0.516  24.340  0.00  0.00    +0.177 C 
ATOM      3  C   UNL     1       8.815  -1.833  24.568  0.00  0.00    +0.195 C 
ATOM      4  C   UNL     1       7.449  -1.617  23.903  0.00  0.00    +0.253 C 
ATOM      5  O   UNL     1       7.633  -0.580  22.925  0.00  0.00    -0.347 OA
ENDROOT
BRANCH   4   6
ATOM      6  N   UNL     1       6.875  -2.796  23.282  0.00  0.00    -0.286 N 
ATOM      7  C   UNL     1       6.425  -3.896  23.965  0.00  0.00    +0.167 A 
ATOM      8  C   UNL     1       5.653  -4.594  23.052  0.00  0.00    +0.147 A 
ATOM      9  C   UNL     1       4.960  -5.713  23.543  0.00  0.00    +0.147 A 
ATOM     10  N   UNL     1       5.171  -6.092  24.825  0.00  0.00    -0.219 NA
ATOM     11  C   UNL     1       5.989  -5.340  25.591  0.00  0.00    +0.225 A 
ATOM     12  N   UNL     1       5.705  -3.994  21.811  0.00  0.00    -0.231 NA
ATOM     13  N   UNL     1       6.636  -4.201  25.260  0.00  0.00    -0.216 NA
ATOM     14  C   UNL     1       6.454  -2.923  21.984  0.00  0.00    +0.203 A 
BRANCH   9  15
ATOM     15  N   UNL     1       4.048  -6.434  22.790  0.00  0.00    -0.341 N 
ATOM     16  H   UNL     1       4.095  -7.433  22.938  0.00  0.00    +0.144 HD
ATOM     17  H   UNL     1       3.892  -6.082  21.854  0.00  0.00    +0.144 HD
ENDBRANCH   9  15
ENDBRANCH   4   6
BRANCH   2  18
ATOM     18  O   UNL     1       9.888   0.144  25.562  0.00  0.00    -0.386 OA
ATOM     19  H   UNL     1      10.107  -0.573  26.192  0.00  0.00    +0.210 HD
ENDBRANCH   2  18
BRANCH   3  20
ATOM     20  O   UNL     1       8.724  -2.127  25.966  0.00  0.00    -0.385 OA
ATOM     21  H   UNL     1       8.938  -3.084  26.053  0.00  0.00    +0.210 HD
ENDBRANCH   3  20
BRANCH   1  22
ATOM     22  C   UNL     1       9.254   1.252  22.491  0.00  0.00    +0.118 C 
BRANCH  22  24
ATOM     23  C   UNL     1       7.692   3.039  23.054  0.00  0.00    +0.105 C 
ATOM     24  N   UNL     1       9.079   2.708  22.693  0.00  0.00    -0.303 NA
BRANCH  24  25
ATOM     25  C   UNL     1       9.959   3.221  23.764  0.00  0.00    +0.086 C 
BRANCH  25  26
ATOM     26  C   UNL     1      11.421   3.482  23.353  0.00  0.00    +0.045 C 
BRANCH  26  27
ATOM     27  CA  UNL     1      11.816   4.962  23.458  0.00  0.00    +0.162 C 
BRANCH  27  28
ATOM     28  N   UNL     1      10.720   5.856  22.980  0.00  0.00    -0.318 NA
ATOM     29  H1  UNL     1      11.112   6.790  22.840  0.00  0.00    +0.119 HD
ATOM     30  H2  UNL     1      10.456   5.552  22.035  0.00  0.00    +0.119 HD
ENDBRANCH  27  28
BRANCH  27  31
ATOM     31  C   UNL     1      13.079   5.244  22.628  0.00  0.00    +0.322 C 
ATOM     32  OXT UNL     1      13.092   5.688  21.492  0.00  0.00    -0.249 OA
BRANCH  31  33
ATOM     33  O   UNL     1      14.203   4.961  23.341  0.00  0.00    -0.480 OA
ATOM     34  H   UNL     1      14.556   5.829  23.659  0.00  0.00    +0.295 HD
ENDBRANCH  31  33
ENDBRANCH  27  31
ENDBRANCH  26  27
ENDBRANCH  25  26
ENDBRANCH  24  25
ENDBRANCH  22  24
ENDBRANCH   1  22
TORSDOF 12
ENDMDL
MODEL 7
REMARK VINA RESULT:      -6.8      4.570      9.132
REMARK  Name = 
REMARK  13 active torsions:
REMARK  status: ('A' for Active; 'I' for Inactive)
REMARK    1  A    between atoms: C_1  and  N_2
REMARK    2  A    between atoms: N_2  and  C_3
REMARK    3  A    between atoms: N_2  and  C_11
REMARK    4  A    between atoms: C_3  and  C_4
REMARK    5  A    between atoms: C_4  and  CA_5
REMARK    6  A    between atoms: CA_5  and  N_7
REMARK    7  A    between atoms: CA_5  and  C_8
REMARK    8  A    between atoms: C_8  and  O_9
REMARK    9  A    between atoms: C_11  and  C_12
REMARK   10  A    between atoms: C_15  and  N_23
REMARK   11  A    between atoms: C_17  and  O_19
REMARK   12  A    between atoms: C_20  and  O_22
REMARK   13  A    between atoms: C_27  and  N_28
REMARK                            x       y       z     vdW  Elec       q    Type
REMARK                         _______ _______ _______ _____ _____    ______ ____
ROOT
ATOM      1  C   UNL     1       7.339  -4.964  25.799  0.00  0.00    +0.166 C 
ATOM      2  C   UNL     1       8.837  -4.757  26.011  0.00  0.00    +0.177 C 
ATOM      3  C   UNL     1       9.176  -3.555  25.131  0.00  0.00    +0.195 C 
ATOM      4  C   UNL     1       7.850  -3.205  24.443  0.00  0.00    +0.253 C 
ATOM      5  O   UNL     1       6.807  -3.733  25.280  0.00  0.00    -0.347 OA
ENDROOT
BRANCH   4   6
ATOM      6  N   UNL     1       7.635  -1.790  24.206  0.00  0.00    -0.286 N 
ATOM      7  C   UNL     1       8.295  -1.049  23.261  0.00  0.00    +0.167 A 
ATOM      8  C   UNL     1       7.552   0.113  23.133  0.00  0.00    +0.147 A 
ATOM      9  C   UNL     1       7.946   1.001  22.119  0.00  0.00    +0.147 A 
ATOM     10  N   UNL     1       9.068   0.721  21.416  0.00  0.00    -0.219 NA
ATOM     11  C   UNL     1       9.721  -0.430  21.680  0.00  0.00    +0.225 A 
ATOM     12  N   UNL     1       6.517   0.131  24.046  0.00  0.00    -0.231 NA
ATOM     13  N   UNL     1       9.392  -1.398  22.562  0.00  0.00    -0.216 NA
ATOM     14  C   UNL     1       6.603  -1.021  24.679  0.00  0.00    +0.203 A 
BRANCH   9  15
ATOM     15  N   UNL     1       7.229   2.137  21.780  0.00  0.00    -0.341 N 
ATOM     16  H   UNL     1       7.498   2.960  22.299  0.00  0.00    +0.144 HD
ATOM     17  H   UNL     1       6.249   1.980  21.578  0.00  0.00    +0.144 HD
ENDBRANCH   9  15
ENDBRANCH   4   6
BRANCH   2  18
ATOM     18  O   UNL     1       9.566  -5.928  25.643  0.00  0.00    -0.386 OA
ATOM     19  H   UNL     1       9.609  -5.910  24.664  0.00  0.00    +0.210 HD
ENDBRANCH   2  18
BRANCH   3  20
ATOM     20  O   UNL     1      10.223  -3.882  24.209  0.00  0.00    -0.385 OA
ATOM     21  H   UNL     1      10.189  -3.191  23.510  0.00  0.00    +0.210 HD
ENDBRANCH   3  20
BRANCH   1  22
ATOM     22  C   UNL     1       6.588  -5.464  27.048  0.00  0.00    +0.118 C 
BRANCH  22  24
ATOM     23  C   UNL     1       5.065  -7.036  28.127  0.00  0.00    +0.105 C 
ATOM     24  N   UNL     1       5.639  -6.583  26.850  0.00  0.00    -0.303 NA
BRANCH  24  25
ATOM     25  C   UNL     1       4.521  -6.200  25.963  0.00  0.00    +0.086 C 
BRANCH  25  26
ATOM     26  C   UNL     1       4.536  -6.840  24.562  0.00  0.00    +0.045 C 
BRANCH  26  27
ATOM     27  CA  UNL     1       4.154  -5.854  23.449  0.00  0.00    +0.162 C 
BRANCH  27  28
ATOM     28  N   UNL     1       3.066  -6.400  22.585  0.00  0.00    -0.318 NA
ATOM     29  H1  UNL     1       2.180  -6.287  23.083  0.00  0.00    +0.119 HD
ATOM     30  H2  UNL     1       2.973  -5.782  21.769  0.00  0.00    +0.119 HD
ENDBRANCH  27  28
BRANCH  27  31
ATOM     31  C   UNL     1       5.371  -5.535  22.567  0.00  0.00    +0.322 C 
ATOM     32  OXT UNL     1       6.330  -6.270  22.394  0.00  0.00    -0.249 OA
BRANCH  31  33
ATOM     33  O   UNL     1       5.233  -4.322  21.966  0.00  0.00    -0.480 OA
ATOM     34  H   UNL     1       5.699  -4.389  21.096  0.00  0.00    +0.295 HD
ENDBRANCH  31  33
ENDBRANCH  27  31
ENDBRANCH  26  27
ENDBRANCH  25  26
ENDBRANCH  24  25
ENDBRANCH  22  24
ENDBRANCH   1  22
TORSDOF 12
ENDMDL
MODEL 8
REMARK VINA RESULT:      -6.8      3.000      5.052
REMARK  Name = 
REMARK  13 active torsions:
REMARK  status: ('A' for Active; 'I' for Inactive)
REMARK    1  A    between atoms: C_1  and  N_2
REMARK    2  A    between atoms: N_2  and  C_3
REMARK    3  A    between atoms: N_2  and  C_11
REMARK    4  A    between atoms: C_3  and  C_4
REMARK    5  A    between atoms: C_4  and  CA_5
REMARK    6  A    between atoms: CA_5  and  N_7
REMARK    7  A    between atoms: CA_5  and  C_8
REMARK    8  A    between atoms: C_8  and  O_9
REMARK    9  A    between atoms: C_11  and  C_12
REMARK   10  A    between atoms: C_15  and  N_23
REMARK   11  A    between atoms: C_17  and  O_19
REMARK   12  A    between atoms: C_20  and  O_22
REMARK   13  A    between atoms: C_27  and  N_28
REMARK                            x       y       z     vdW  Elec       q    Type
REMARK                         _______ _______ _______ _____ _____    ______ ____
ROOT
ATOM      1  C   UNL     1       8.213  -2.511  24.925  0.00  0.00    +0.166 C 
ATOM      2  C   UNL     1       8.879  -3.476  23.947  0.00  0.00    +0.177 C 
ATOM      3  C   UNL     1       8.467  -4.860  24.450  0.00  0.00    +0.195 C 
ATOM      4  C   UNL     1       7.642  -4.572  25.711  0.00  0.00    +0.253 C 
ATOM      5  O   UNL     1       7.151  -3.228  25.577  0.00  0.00    -0.347 OA
ENDROOT
BRANCH   4   6
ATOM      6  N   UNL     1       6.541  -5.488  25.946  0.00  0.00    -0.286 N 
ATOM      7  C   UNL     1       6.203  -6.002  27.171  0.00  0.00    +0.167 A 
ATOM      8  C   UNL     1       4.926  -6.512  27.005  0.00  0.00    +0.147 A 
ATOM      9  C   UNL     1       4.287  -6.990  28.161  0.00  0.00    +0.147 A 
ATOM     10  N   UNL     1       4.986  -7.018  29.320  0.00  0.00    -0.219 NA
ATOM     11  C   UNL     1       6.243  -6.528  29.325  0.00  0.00    +0.225 A 
ATOM     12  N   UNL     1       4.526  -6.404  25.689  0.00  0.00    -0.231 NA
ATOM     13  N   UNL     1       6.928  -5.965  28.305  0.00  0.00    -0.216 NA
ATOM     14  C   UNL     1       5.523  -5.793  25.081  0.00  0.00    +0.203 A 
BRANCH   9  15
ATOM     15  N   UNL     1       2.966  -7.407  28.184  0.00  0.00    -0.341 N 
ATOM     16  H   UNL     1       2.319  -6.736  27.796  0.00  0.00    +0.144 HD
ATOM     17  H   UNL     1       2.697  -7.931  29.008  0.00  0.00    +0.144 HD
ENDBRANCH   9  15
ENDBRANCH   4   6
BRANCH   2  18
ATOM     18  O   UNL     1      10.294  -3.294  23.942  0.00  0.00    -0.386 OA
ATOM     19  H   UNL     1      10.470  -2.653  23.222  0.00  0.00    +0.210 HD
ENDBRANCH   2  18
BRANCH   3  20
ATOM     20  O   UNL     1       9.621  -5.670  24.701  0.00  0.00    -0.385 OA
ATOM     21  H   UNL     1      10.357  -5.250  24.200  0.00  0.00    +0.210 HD
ENDBRANCH   3  20
BRANCH   1  22
ATOM     22  C   UNL     1       7.743  -1.189  24.287  0.00  0.00    +0.118 C 
BRANCH  22  24
ATOM     23  C   UNL     1       7.992   0.205  26.274  0.00  0.00    +0.105 C 
ATOM     24  N   UNL     1       8.312   0.058  24.845  0.00  0.00    -0.303 NA
BRANCH  24  25
ATOM     25  C   UNL     1       9.783   0.099  24.705  0.00  0.00    +0.086 C 
BRANCH  25  26
ATOM     26  C   UNL     1      10.357   1.400  24.111  0.00  0.00    +0.045 C 
BRANCH  26  27
ATOM     27  CA  UNL     1       9.438   2.032  23.055  0.00  0.00    +0.162 C 
BRANCH  27  28
ATOM     28  N   UNL     1      10.150   2.223  21.756  0.00  0.00    -0.318 NA
ATOM     29  H1  UNL     1      10.534   1.319  21.470  0.00  0.00    +0.119 HD
ATOM     30  H2  UNL     1       9.443   2.431  21.039  0.00  0.00    +0.119 HD
ENDBRANCH  27  28
BRANCH  27  31
ATOM     31  C   UNL     1       8.917   3.395  23.537  0.00  0.00    +0.322 C 
ATOM     32  OXT UNL     1       8.952   3.796  24.689  0.00  0.00    -0.249 OA
BRANCH  31  33
ATOM     33  O   UNL     1       8.431   4.125  22.498  0.00  0.00    -0.480 OA
ATOM     34  H   UNL     1       8.639   5.071  22.702  0.00  0.00    +0.295 HD
ENDBRANCH  31  33
ENDBRANCH  27  31
ENDBRANCH  26  27
ENDBRANCH  25  26
ENDBRANCH  24  25
ENDBRANCH  22  24
ENDBRANCH   1  22
TORSDOF 12
ENDMDL
MODEL 9
REMARK VINA RESULT:      -6.8      2.466      3.497
REMARK  Name = 
REMARK  13 active torsions:
REMARK  status: ('A' for Active; 'I' for Inactive)
REMARK    1  A    between atoms: C_1  and  N_2
REMARK    2  A    between atoms: N_2  and  C_3
REMARK    3  A    between atoms: N_2  and  C_11
REMARK    4  A    between atoms: C_3  and  C_4
REMARK    5  A    between atoms: C_4  and  CA_5
REMARK    6  A    between atoms: CA_5  and  N_7
REMARK    7  A    between atoms: CA_5  and  C_8
REMARK    8  A    between atoms: C_8  and  O_9
REMARK    9  A    between atoms: C_11  and  C_12
REMARK   10  A    between atoms: C_15  and  N_23
REMARK   11  A    between atoms: C_17  and  O_19
REMARK   12  A    between atoms: C_20  and  O_22
REMARK   13  A    between atoms: C_27  and  N_28
REMARK                            x       y       z     vdW  Elec       q    Type
REMARK                         _______ _______ _______ _____ _____    ______ ____
ROOT
ATOM      1  C   UNL     1       7.734  -0.647  23.680  0.00  0.00    +0.166 C 
ATOM      2  C   UNL     1       8.895  -1.290  22.924  0.00  0.00    +0.177 C 
ATOM      3  C   UNL     1       8.882  -2.746  23.387  0.00  0.00    +0.195 C 
ATOM      4  C   UNL     1       7.744  -2.804  24.415  0.00  0.00    +0.253 C 
ATOM      5  O   UNL     1       6.865  -1.708  24.110  0.00  0.00    -0.347 OA
ENDROOT
BRANCH   4   6
ATOM      6  N   UNL     1       7.002  -4.051  24.440  0.00  0.00    -0.286 N 
ATOM      7  C   UNL     1       6.775  -4.800  25.565  0.00  0.00    +0.167 A 
ATOM      8  C   UNL     1       5.758  -5.673  25.214  0.00  0.00    +0.147 A 
ATOM      9  C   UNL     1       5.240  -6.478  26.243  0.00  0.00    +0.147 A 
ATOM     10  N   UNL     1       5.828  -6.425  27.461  0.00  0.00    -0.219 NA
ATOM     11  C   UNL     1       6.844  -5.557  27.648  0.00  0.00    +0.225 A 
ATOM     12  N   UNL     1       5.435  -5.534  23.880  0.00  0.00    -0.231 NA
ATOM     13  N   UNL     1       7.366  -4.675  26.767  0.00  0.00    -0.216 NA
ATOM     14  C   UNL     1       6.207  -4.558  23.445  0.00  0.00    +0.203 A 
BRANCH   9  15
ATOM     15  N   UNL     1       4.139  -7.302  26.084  0.00  0.00    -0.341 N 
ATOM     16  H   UNL     1       3.975  -7.921  26.865  0.00  0.00    +0.144 HD
ATOM     17  H   UNL     1       3.996  -7.649  25.143  0.00  0.00    +0.144 HD
ENDBRANCH   9  15
ENDBRANCH   4   6
BRANCH   2  18
ATOM     18  O   UNL     1      10.124  -0.630  23.229  0.00  0.00    -0.386 OA
ATOM     19  H   UNL     1       9.901   0.024  23.923  0.00  0.00    +0.210 HD
ENDBRANCH   2  18
BRANCH   3  20
ATOM     20  O   UNL     1      10.154  -3.116  23.930  0.00  0.00    -0.385 OA
ATOM     21  H   UNL     1      10.647  -3.539  23.191  0.00  0.00    +0.210 HD
ENDBRANCH   3  20
BRANCH   1  22
ATOM     22  C   UNL     1       6.998   0.451  22.889  0.00  0.00    +0.118 C 
BRANCH  22  24
ATOM     23  C   UNL     1       5.577   2.099  23.995  0.00  0.00    +0.105 C 
ATOM     24  N   UNL     1       6.934   1.792  23.515  0.00  0.00    -0.303 NA
BRANCH  24  25
ATOM     25  C   UNL     1       7.856   1.903  24.664  0.00  0.00    +0.086 C 
BRANCH  25  26
ATOM     26  C   UNL     1       8.496   3.289  24.869  0.00  0.00    +0.045 C 
BRANCH  26  27
ATOM     27  CA  UNL     1       9.292   3.768  23.646  0.00  0.00    +0.162 C 
BRANCH  27  28
ATOM     28  N   UNL     1       8.387   4.175  22.530  0.00  0.00    -0.318 NA
ATOM     29  H1  UNL     1       8.966   4.385  21.714  0.00  0.00    +0.119 HD
ATOM     30  H2  UNL     1       7.847   3.348  22.246  0.00  0.00    +0.119 HD
ENDBRANCH  27  28
BRANCH  27  31
ATOM     31  C   UNL     1      10.228   2.658  23.141  0.00  0.00    +0.322 C 
ATOM     32  OXT UNL     1      11.147   2.168  23.777  0.00  0.00    -0.249 OA
BRANCH  31  33
ATOM     33  O   UNL     1       9.881   2.261  21.887  0.00  0.00    -0.480 OA
ATOM     34  H   UNL     1       9.868   3.079  21.331  0.00  0.00    +0.295 HD
ENDBRANCH  31  33
ENDBRANCH  27  31
ENDBRANCH  26  27
ENDBRANCH  25  26
ENDBRANCH  24  25
ENDBRANCH  22  24
ENDBRANCH   1  22
TORSDOF 12
ENDMDL
