MODEL 1
REMARK VINA RESULT:      -5.4      0.000      0.000
REMARK  Name = 
REMARK  8 active torsions:
REMARK  status: ('A' for Active; 'I' for Inactive)
REMARK    1  A    between atoms: CA_2  and  CB_3
REMARK    2  A    between atoms: CA_2  and  N_7
REMARK    3  A    between atoms: CA_2  and  C_15
REMARK    4  A    between atoms: CB_3  and  CG_4
REMARK    5  A    between atoms: CG_4  and  CD1_5
REMARK    6  A    between atoms: CG_4  and  CD2_6
REMARK    7  A    between atoms: C_8  and  C_10
REMARK    8  A    between atoms: C_15  and  O_16
REMARK                            x       y       z     vdW  Elec       q    Type
REMARK                         _______ _______ _______ _____ _____    ______ ____
ROOT
ATOM      1  CA  LEU A   1       7.602  -4.097  23.122  0.00  0.00    +0.182 C 
ENDROOT
BRANCH   1   2
ATOM      2  N   LEU A   1       8.030  -2.729  22.841  0.00  0.00    -0.296 N 
ATOM      3  H   LEU A   1       7.390  -2.078  22.395  0.00  0.00    +0.150 HD
ATOM      4  C   UNK A   0       9.275  -2.281  23.224  0.00  0.00    +0.280 C 
ATOM      5  O   UNK A   0      10.064  -3.019  23.813  0.00  0.00    -0.267 OA
BRANCH   4   6
ATOM      6  C   UNK A   0       9.592  -0.915  22.866  0.00  0.00    +0.189 A 
ATOM      7  O   UNK A   0      10.032  -0.030  23.815  0.00  0.00    -0.458 OA
ATOM      8  C   UNK A   0      10.215   1.166  23.189  0.00  0.00    +0.196 A 
ATOM      9  C   UNK A   0       9.906   1.065  21.852  0.00  0.00    +0.042 A 
ATOM     10  C   UNK A   0       9.510  -0.276  21.643  0.00  0.00    +0.054 A 
ENDBRANCH   4   6
ENDBRANCH   1   2
BRANCH   1  11
ATOM     11  C   LEU A   1       6.794  -4.605  21.925  0.00  0.00    +0.325 C 
ATOM     12  OXT LEU A   1       5.859  -3.996  21.422  0.00  0.00    -0.249 OA
BRANCH  11  13
ATOM     13  O   LEU A   1       7.233  -5.786  21.427  0.00  0.00    -0.479 OA
ATOM     14  H   LEU A   1       8.185  -5.809  21.207  0.00  0.00    +0.295 HD
ENDBRANCH  11  13
ENDBRANCH   1  11
BRANCH   1  15
ATOM     15  CB  LEU A   1       6.780  -4.166  24.418  0.00  0.00    +0.036 C 
BRANCH  15  16
ATOM     16  CG  LEU A   1       7.275  -5.206  25.446  0.00  0.00    -0.015 C 
ATOM     17  CD2 LEU A   1       6.083  -5.781  26.216  0.00  0.00    +0.007 C 
ATOM     18  CD1 LEU A   1       8.288  -4.627  26.435  0.00  0.00    +0.007 C 
ENDBRANCH  15  16
ENDBRANCH   1  15
TORSDOF 6
ENDMDL
MODEL 2
REMARK VINA RESULT:      -5.4      2.189      3.306
REMARK  Name = 
REMARK  8 active torsions:
REMARK  status: ('A' for Active; 'I' for Inactive)
REMARK    1  A    between atoms: CA_2  and  CB_3
REMARK    2  A    between atoms: CA_2  and  N_7
REMARK    3  A    between atoms: CA_2  and  C_15
REMARK    4  A    between atoms: CB_3  and  CG_4
REMARK    5  A    between atoms: CG_4  and  CD1_5
REMARK    6  A    between atoms: CG_4  and  CD2_6
REMARK    7  A    between atoms: C_8  and  C_10
REMARK    8  A    between atoms: C_15  and  O_16
REMARK                            x       y       z     vdW  Elec       q    Type
REMARK                         _______ _______ _______ _____ _____    ______ ____
ROOT
ATOM      1  CA  LEU A   1       7.695  -4.130  25.060  0.00  0.00    +0.182 C 
ENDROOT
BRANCH   1   2
ATOM      2  N   LEU A   1       8.395  -2.981  24.493  0.00  0.00    -0.296 N 
ATOM      3  H   LEU A   1       8.603  -2.954  23.498  0.00  0.00    +0.150 HD
ATOM      4  C   UNK A   0       8.734  -1.898  25.273  0.00  0.00    +0.280 C 
ATOM      5  O   UNK A   0       8.456  -1.864  26.471  0.00  0.00    -0.267 OA
BRANCH   4   6
ATOM      6  C   UNK A   0       9.449  -0.834  24.601  0.00  0.00    +0.189 A 
ATOM      7  O   UNK A   0       9.422  -0.730  23.235  0.00  0.00    -0.458 OA
ATOM      8  C   UNK A   0      10.201   0.337  22.902  0.00  0.00    +0.196 A 
ATOM      9  C   UNK A   0      10.724   0.925  24.029  0.00  0.00    +0.042 A 
ATOM     10  C   UNK A   0      10.236   0.175  25.124  0.00  0.00    +0.054 A 
ENDBRANCH   4   6
ENDBRANCH   1   2
BRANCH   1  11
ATOM     11  C   LEU A   1       8.732  -5.190  25.437  0.00  0.00    +0.325 C 
ATOM     12  OXT LEU A   1       9.778  -5.372  24.828  0.00  0.00    -0.249 OA
BRANCH  11  13
ATOM     13  O   LEU A   1       8.416  -5.898  26.548  0.00  0.00    -0.479 OA
ATOM     14  H   LEU A   1       8.424  -5.381  27.378  0.00  0.00    +0.295 HD
ENDBRANCH  11  13
ENDBRANCH   1  11
BRANCH   1  15
ATOM     15  CB  LEU A   1       6.658  -4.690  24.074  0.00  0.00    +0.036 C 
BRANCH  15  16
ATOM     16  CG  LEU A   1       7.004  -4.486  22.583  0.00  0.00    -0.015 C 
ATOM     17  CD2 LEU A   1       5.924  -3.633  21.912  0.00  0.00    +0.007 C 
ATOM     18  CD1 LEU A   1       7.155  -5.806  21.824  0.00  0.00    +0.007 C 
ENDBRANCH  15  16
ENDBRANCH   1  15
TORSDOF 6
ENDMDL
MODEL 3
REMARK VINA RESULT:      -5.4      1.858      3.060
REMARK  Name = 
REMARK  8 active torsions:
REMARK  status: ('A' for Active; 'I' for Inactive)
REMARK    1  A    between atoms: CA_2  and  CB_3
REMARK    2  A    between atoms: CA_2  and  N_7
REMARK    3  A    between atoms: CA_2  and  C_15
REMARK    4  A    between atoms: CB_3  and  CG_4
REMARK    5  A    between atoms: CG_4  and  CD1_5
REMARK    6  A    between atoms: CG_4  and  CD2_6
REMARK    7  A    between atoms: C_8  and  C_10
REMARK    8  A    between atoms: C_15  and  O_16
REMARK                            x       y       z     vdW  Elec       q    Type
REMARK                         _______ _______ _______ _____ _____    ______ ____
ROOT
ATOM      1  CA  LEU A   1       7.876  -4.764  24.087  0.00  0.00    +0.182 C 
ENDROOT
BRANCH   1   2
ATOM      2  N   LEU A   1       8.651  -3.568  23.770  0.00  0.00    -0.296 N 
ATOM      3  H   LEU A   1       9.646  -3.538  23.976  0.00  0.00    +0.150 HD
ATOM      4  C   UNK A   0       8.070  -2.490  23.139  0.00  0.00    +0.280 C 
ATOM      5  O   UNK A   0       6.881  -2.502  22.824  0.00  0.00    -0.267 OA
BRANCH   4   6
ATOM      6  C   UNK A   0       8.936  -1.355  22.902  0.00  0.00    +0.189 A 
ATOM      7  O   UNK A   0       9.741  -0.872  23.899  0.00  0.00    -0.458 OA
ATOM      8  C   UNK A   0      10.406   0.202  23.388  0.00  0.00    +0.196 A 
ATOM      9  C   UNK A   0      10.046   0.416  22.078  0.00  0.00    +0.042 A 
ATOM     10  C   UNK A   0       9.103  -0.590  21.763  0.00  0.00    +0.054 A 
ENDBRANCH   4   6
ENDBRANCH   1   2
BRANCH   1  11
ATOM     11  C   LEU A   1       8.505  -5.438  25.310  0.00  0.00    +0.325 C 
ATOM     12  OXT LEU A   1       7.887  -5.726  26.326  0.00  0.00    -0.249 OA
BRANCH  11  13
ATOM     13  O   LEU A   1       9.818  -5.735  25.159  0.00  0.00    -0.479 OA
ATOM     14  H   LEU A   1      10.354  -5.643  25.971  0.00  0.00    +0.295 HD
ENDBRANCH  11  13
ENDBRANCH   1  11
BRANCH   1  15
ATOM     15  CB  LEU A   1       7.822  -5.724  22.888  0.00  0.00    +0.036 C 
BRANCH  15  16
ATOM     16  CG  LEU A   1       6.400  -6.100  22.421  0.00  0.00    -0.015 C 
ATOM     17  CD2 LEU A   1       6.186  -5.629  20.979  0.00  0.00    +0.007 C 
ATOM     18  CD1 LEU A   1       5.307  -5.512  23.314  0.00  0.00    +0.007 C 
ENDBRANCH  15  16
ENDBRANCH   1  15
TORSDOF 6
ENDMDL
MODEL 4
REMARK VINA RESULT:      -5.2      2.041      5.367
REMARK  Name = 
REMARK  8 active torsions:
REMARK  status: ('A' for Active; 'I' for Inactive)
REMARK    1  A    between atoms: CA_2  and  CB_3
REMARK    2  A    between atoms: CA_2  and  N_7
REMARK    3  A    between atoms: CA_2  and  C_15
REMARK    4  A    between atoms: CB_3  and  CG_4
REMARK    5  A    between atoms: CG_4  and  CD1_5
REMARK    6  A    between atoms: CG_4  and  CD2_6
REMARK    7  A    between atoms: C_8  and  C_10
REMARK    8  A    between atoms: C_15  and  O_16
REMARK                            x       y       z     vdW  Elec       q    Type
REMARK                         _______ _______ _______ _____ _____    ______ ____
ROOT
ATOM      1  CA  LEU A   1       8.270  -0.742  22.422  0.00  0.00    +0.182 C 
ENDROOT
BRANCH   1   2
ATOM      2  N   LEU A   1       8.063  -2.172  22.211  0.00  0.00    -0.296 N 
ATOM      3  H   LEU A   1       8.857  -2.777  22.014  0.00  0.00    +0.150 HD
ATOM      4  C   UNK A   0       6.812  -2.735  22.328  0.00  0.00    +0.280 C 
ATOM      5  O   UNK A   0       5.830  -2.051  22.615  0.00  0.00    -0.267 OA
BRANCH   4   6
ATOM      6  C   UNK A   0       6.732  -4.157  22.070  0.00  0.00    +0.189 A 
ATOM      7  O   UNK A   0       5.925  -4.641  21.074  0.00  0.00    -0.458 OA
ATOM      8  C   UNK A   0       6.039  -5.998  21.095  0.00  0.00    +0.196 A 
ATOM      9  C   UNK A   0       6.908  -6.397  22.083  0.00  0.00    +0.042 A 
ATOM     10  C   UNK A   0       7.359  -5.211  22.708  0.00  0.00    +0.054 A 
ENDBRANCH   4   6
ENDBRANCH   1   2
BRANCH   1  11
ATOM     11  C   LEU A   1       9.636  -0.361  21.845  0.00  0.00    +0.325 C 
ATOM     12  OXT LEU A   1      10.037   0.791  21.740  0.00  0.00    -0.249 OA
BRANCH  11  13
ATOM     13  O   LEU A   1      10.399  -1.423  21.493  0.00  0.00    -0.479 OA
ATOM     14  H   LEU A   1      10.529  -2.086  22.200  0.00  0.00    +0.295 HD
ENDBRANCH  11  13
ENDBRANCH   1  11
BRANCH   1  15
ATOM     15  CB  LEU A   1       8.174  -0.383  23.913  0.00  0.00    +0.036 C 
BRANCH  15  16
ATOM     16  CG  LEU A   1       9.318  -0.936  24.789  0.00  0.00    -0.015 C 
ATOM     17  CD2 LEU A   1       8.737  -1.628  26.025  0.00  0.00    +0.007 C 
ATOM     18  CD1 LEU A   1      10.304   0.147  25.230  0.00  0.00    +0.007 C 
ENDBRANCH  15  16
ENDBRANCH   1  15
TORSDOF 6
ENDMDL
MODEL 5
REMARK VINA RESULT:      -5.1      2.296      6.137
REMARK  Name = 
REMARK  8 active torsions:
REMARK  status: ('A' for Active; 'I' for Inactive)
REMARK    1  A    between atoms: CA_2  and  CB_3
REMARK    2  A    between atoms: CA_2  and  N_7
REMARK    3  A    between atoms: CA_2  and  C_15
REMARK    4  A    between atoms: CB_3  and  CG_4
REMARK    5  A    between atoms: CG_4  and  CD1_5
REMARK    6  A    between atoms: CG_4  and  CD2_6
REMARK    7  A    between atoms: C_8  and  C_10
REMARK    8  A    between atoms: C_15  and  O_16
REMARK                            x       y       z     vdW  Elec       q    Type
REMARK                         _______ _______ _______ _____ _____    ______ ____
ROOT
ATOM      1  CA  LEU A   1       8.569  -3.983  24.298  0.00  0.00    +0.182 C 
ENDROOT
BRANCH   1   2
ATOM      2  N   LEU A   1       7.197  -4.483  24.324  0.00  0.00    -0.296 N 
ATOM      3  H   LEU A   1       6.555  -4.166  25.045  0.00  0.00    +0.150 HD
ATOM      4  C   UNK A   0       6.734  -5.341  23.351  0.00  0.00    +0.280 C 
ATOM      5  O   UNK A   0       7.461  -5.710  22.430  0.00  0.00    -0.267 OA
BRANCH   4   6
ATOM      6  C   UNK A   0       5.365  -5.786  23.501  0.00  0.00    +0.189 A 
ATOM      7  O   UNK A   0       4.388  -5.333  22.655  0.00  0.00    -0.458 OA
ATOM      8  C   UNK A   0       3.217  -5.899  23.061  0.00  0.00    +0.196 A 
ATOM      9  C   UNK A   0       3.424  -6.713  24.149  0.00  0.00    +0.042 A 
ATOM     10  C   UNK A   0       4.809  -6.645  24.430  0.00  0.00    +0.054 A 
ENDBRANCH   4   6
ENDBRANCH   1   2
BRANCH   1  11
ATOM     11  C   LEU A   1       9.349  -4.652  25.434  0.00  0.00    +0.325 C 
ATOM     12  OXT LEU A   1       9.101  -4.491  26.621  0.00  0.00    -0.249 OA
BRANCH  11  13
ATOM     13  O   LEU A   1      10.327  -5.488  25.011  0.00  0.00    -0.479 OA
ATOM     14  H   LEU A   1      10.600  -6.161  25.665  0.00  0.00    +0.295 HD
ENDBRANCH  11  13
ENDBRANCH   1  11
BRANCH   1  15
ATOM     15  CB  LEU A   1       8.603  -2.452  24.425  0.00  0.00    +0.036 C 
BRANCH  15  16
ATOM     16  CG  LEU A   1       9.882  -1.784  23.878  0.00  0.00    -0.015 C 
ATOM     17  CD2 LEU A   1      10.083  -0.421  24.548  0.00  0.00    +0.007 C 
ATOM     18  CD1 LEU A   1       9.854  -1.603  22.359  0.00  0.00    +0.007 C 
ENDBRANCH  15  16
ENDBRANCH   1  15
TORSDOF 6
ENDMDL
MODEL 6
REMARK VINA RESULT:      -5.1      2.281      5.664
REMARK  Name = 
REMARK  8 active torsions:
REMARK  status: ('A' for Active; 'I' for Inactive)
REMARK    1  A    between atoms: CA_2  and  CB_3
REMARK    2  A    between atoms: CA_2  and  N_7
REMARK    3  A    between atoms: CA_2  and  C_15
REMARK    4  A    between atoms: CB_3  and  CG_4
REMARK    5  A    between atoms: CG_4  and  CD1_5
REMARK    6  A    between atoms: CG_4  and  CD2_6
REMARK    7  A    between atoms: C_8  and  C_10
REMARK    8  A    between atoms: C_15  and  O_16
REMARK                            x       y       z     vdW  Elec       q    Type
REMARK                         _______ _______ _______ _____ _____    ______ ____
ROOT
ATOM      1  CA  LEU A   1       8.188  -0.484  23.160  0.00  0.00    +0.182 C 
ENDROOT
BRANCH   1   2
ATOM      2  N   LEU A   1       7.787  -1.743  22.539  0.00  0.00    -0.296 N 
ATOM      3  H   LEU A   1       7.725  -1.813  21.527  0.00  0.00    +0.150 HD
ATOM      4  C   UNK A   0       7.543  -2.866  23.299  0.00  0.00    +0.280 C 
ATOM      5  O   UNK A   0       7.655  -2.842  24.524  0.00  0.00    -0.267 OA
BRANCH   4   6
ATOM      6  C   UNK A   0       7.128  -4.045  22.569  0.00  0.00    +0.189 A 
ATOM      7  O   UNK A   0       7.679  -5.267  22.847  0.00  0.00    -0.458 OA
ATOM      8  C   UNK A   0       7.117  -6.162  21.988  0.00  0.00    +0.196 A 
ATOM      9  C   UNK A   0       6.208  -5.539  21.166  0.00  0.00    +0.042 A 
ATOM     10  C   UNK A   0       6.210  -4.176  21.543  0.00  0.00    +0.054 A 
ENDBRANCH   4   6
ENDBRANCH   1   2
BRANCH   1  11
ATOM     11  C   LEU A   1       7.061   0.533  22.962  0.00  0.00    +0.325 C 
ATOM     12  OXT LEU A   1       7.106   1.456  22.159  0.00  0.00    -0.249 OA
BRANCH  11  13
ATOM     13  O   LEU A   1       5.969   0.300  23.729  0.00  0.00    -0.479 OA
ATOM     14  H   LEU A   1       6.095  -0.375  24.425  0.00  0.00    +0.295 HD
ENDBRANCH  11  13
ENDBRANCH   1  11
BRANCH   1  15
ATOM     15  CB  LEU A   1       9.511   0.028  22.571  0.00  0.00    +0.036 C 
BRANCH  15  16
ATOM     16  CG  LEU A   1      10.489   0.634  23.600  0.00  0.00    -0.015 C 
ATOM     17  CD2 LEU A   1      10.191   0.072  24.993  0.00  0.00    +0.007 C 
ATOM     18  CD1 LEU A   1      10.430   2.162  23.645  0.00  0.00    +0.007 C 
ENDBRANCH  15  16
ENDBRANCH   1  15
TORSDOF 6
ENDMDL
MODEL 7
REMARK VINA RESULT:      -5.0      1.842      5.865
REMARK  Name = 
REMARK  8 active torsions:
REMARK  status: ('A' for Active; 'I' for Inactive)
REMARK    1  A    between atoms: CA_2  and  CB_3
REMARK    2  A    between atoms: CA_2  and  N_7
REMARK    3  A    between atoms: CA_2  and  C_15
REMARK    4  A    between atoms: CB_3  and  CG_4
REMARK    5  A    between atoms: CG_4  and  CD1_5
REMARK    6  A    between atoms: CG_4  and  CD2_6
REMARK    7  A    between atoms: C_8  and  C_10
REMARK    8  A    between atoms: C_15  and  O_16
REMARK                            x       y       z     vdW  Elec       q    Type
REMARK                         _______ _______ _______ _____ _____    ______ ____
ROOT
ATOM      1  CA  LEU A   1       9.509  -1.713  24.386  0.00  0.00    +0.182 C 
ENDROOT
BRANCH   1   2
ATOM      2  N   LEU A   1       8.496  -2.589  23.804  0.00  0.00    -0.296 N 
ATOM      3  H   LEU A   1       7.742  -2.194  23.248  0.00  0.00    +0.150 HD
ATOM      4  C   UNK A   0       8.571  -3.957  23.948  0.00  0.00    +0.280 C 
ATOM      5  O   UNK A   0       9.494  -4.482  24.569  0.00  0.00    -0.267 OA
BRANCH   4   6
ATOM      6  C   UNK A   0       7.494  -4.715  23.348  0.00  0.00    +0.189 A 
ATOM      7  O   UNK A   0       6.464  -5.191  24.116  0.00  0.00    -0.458 OA
ATOM      8  C   UNK A   0       5.633  -5.879  23.284  0.00  0.00    +0.196 A 
ATOM      9  C   UNK A   0       6.107  -5.851  21.994  0.00  0.00    +0.042 A 
ATOM     10  C   UNK A   0       7.303  -5.097  22.033  0.00  0.00    +0.054 A 
ENDBRANCH   4   6
ENDBRANCH   1   2
BRANCH   1  11
ATOM     11  C   LEU A   1       8.822  -0.772  25.379  0.00  0.00    +0.325 C 
ATOM     12  OXT LEU A   1       7.609  -0.707  25.533  0.00  0.00    -0.249 OA
BRANCH  11  13
ATOM     13  O   LEU A   1       9.681  -0.032  26.120  0.00  0.00    -0.479 OA
ATOM     14  H   LEU A   1      10.362  -0.550  26.594  0.00  0.00    +0.295 HD
ENDBRANCH  11  13
ENDBRANCH   1  11
BRANCH   1  15
ATOM     15  CB  LEU A   1      10.253  -0.926  23.296  0.00  0.00    +0.036 C 
BRANCH  15  16
ATOM     16  CG  LEU A   1       9.448   0.228  22.663  0.00  0.00    -0.015 C 
ATOM     17  CD2 LEU A   1       9.229  -0.048  21.173  0.00  0.00    +0.007 C 
ATOM     18  CD1 LEU A   1      10.127   1.588  22.834  0.00  0.00    +0.007 C 
ENDBRANCH  15  16
ENDBRANCH   1  15
TORSDOF 6
ENDMDL
MODEL 8
REMARK VINA RESULT:      -4.9      3.715      5.634
REMARK  Name = 
REMARK  8 active torsions:
REMARK  status: ('A' for Active; 'I' for Inactive)
REMARK    1  A    between atoms: CA_2  and  CB_3
REMARK    2  A    between atoms: CA_2  and  N_7
REMARK    3  A    between atoms: CA_2  and  C_15
REMARK    4  A    between atoms: CB_3  and  CG_4
REMARK    5  A    between atoms: CG_4  and  CD1_5
REMARK    6  A    between atoms: CG_4  and  CD2_6
REMARK    7  A    between atoms: C_8  and  C_10
REMARK    8  A    between atoms: C_15  and  O_16
REMARK                            x       y       z     vdW  Elec       q    Type
REMARK                         _______ _______ _______ _____ _____    ______ ____
ROOT
ATOM      1  CA  LEU A   1       9.208   0.675  24.316  0.00  0.00    +0.182 C 
ENDROOT
BRANCH   1   2
ATOM      2  N   LEU A   1       9.829   1.993  24.414  0.00  0.00    -0.296 N 
ATOM      3  H   LEU A   1       9.960   2.427  25.324  0.00  0.00    +0.150 HD
ATOM      4  C   UNK A   0      10.297   2.644  23.294  0.00  0.00    +0.280 C 
ATOM      5  O   UNK A   0      10.208   2.135  22.178  0.00  0.00    -0.267 OA
BRANCH   4   6
ATOM      6  C   UNK A   0      10.868   3.955  23.518  0.00  0.00    +0.189 A 
ATOM      7  O   UNK A   0      10.097   4.979  24.001  0.00  0.00    -0.458 OA
ATOM      8  C   UNK A   0      10.897   6.079  24.075  0.00  0.00    +0.196 A 
ATOM      9  C   UNK A   0      12.172   5.780  23.654  0.00  0.00    +0.042 A 
ATOM     10  C   UNK A   0      12.155   4.411  23.300  0.00  0.00    +0.054 A 
ENDBRANCH   4   6
ENDBRANCH   1   2
BRANCH   1  11
ATOM     11  C   LEU A   1       8.136   0.564  25.403  0.00  0.00    +0.325 C 
ATOM     12  OXT LEU A   1       7.496  -0.454  25.631  0.00  0.00    -0.249 OA
BRANCH  11  13
ATOM     13  O   LEU A   1       7.979   1.691  26.137  0.00  0.00    -0.479 OA
ATOM     14  H   LEU A   1       7.738   2.486  25.620  0.00  0.00    +0.295 HD
ENDBRANCH  11  13
ENDBRANCH   1  11
BRANCH   1  15
ATOM     15  CB  LEU A   1      10.255  -0.442  24.448  0.00  0.00    +0.036 C 
BRANCH  15  16
ATOM     16  CG  LEU A   1      10.111  -1.591  23.429  0.00  0.00    -0.015 C 
ATOM     17  CD2 LEU A   1       9.170  -1.167  22.298  0.00  0.00    +0.007 C 
ATOM     18  CD1 LEU A   1       9.593  -2.884  24.062  0.00  0.00    +0.007 C 
ENDBRANCH  15  16
ENDBRANCH   1  15
TORSDOF 6
ENDMDL
MODEL 9
REMARK VINA RESULT:      -4.8      2.097      2.860
REMARK  Name = 
REMARK  8 active torsions:
REMARK  status: ('A' for Active; 'I' for Inactive)
REMARK    1  A    between atoms: CA_2  and  CB_3
REMARK    2  A    between atoms: CA_2  and  N_7
REMARK    3  A    between atoms: CA_2  and  C_15
REMARK    4  A    between atoms: CB_3  and  CG_4
REMARK    5  A    between atoms: CG_4  and  CD1_5
REMARK    6  A    between atoms: CG_4  and  CD2_6
REMARK    7  A    between atoms: C_8  and  C_10
REMARK    8  A    between atoms: C_15  and  O_16
REMARK                            x       y       z     vdW  Elec       q    Type
REMARK                         _______ _______ _______ _____ _____    ______ ____
ROOT
ATOM      1  CA  LEU A   1       8.069  -3.687  25.229  0.00  0.00    +0.182 C 
ENDROOT
BRANCH   1   2
ATOM      2  N   LEU A   1       8.446  -2.688  24.232  0.00  0.00    -0.296 N 
ATOM      3  H   LEU A   1       8.370  -2.905  23.242  0.00  0.00    +0.150 HD
ATOM      4  C   UNK A   0       8.852  -1.426  24.607  0.00  0.00    +0.280 C 
ATOM      5  O   UNK A   0       8.909  -1.102  25.792  0.00  0.00    -0.267 OA
BRANCH   4   6
ATOM      6  C   UNK A   0       9.223  -0.536  23.528  0.00  0.00    +0.189 A 
ATOM      7  O   UNK A   0       8.841  -0.803  22.240  0.00  0.00    -0.458 OA
ATOM      8  C   UNK A   0       9.359   0.185  21.458  0.00  0.00    +0.196 A 
ATOM      9  C   UNK A   0      10.063   1.087  22.221  0.00  0.00    +0.042 A 
ATOM     10  C   UNK A   0       9.972   0.627  23.555  0.00  0.00    +0.054 A 
ENDBRANCH   4   6
ENDBRANCH   1   2
BRANCH   1  11
ATOM     11  C   LEU A   1       9.268  -4.610  25.464  0.00  0.00    +0.325 C 
ATOM     12  OXT LEU A   1      10.207  -4.723  24.689  0.00  0.00    -0.249 OA
BRANCH  11  13
ATOM     13  O   LEU A   1       9.227  -5.273  26.645  0.00  0.00    -0.479 OA
ATOM     14  H   LEU A   1      10.077  -5.669  26.921  0.00  0.00    +0.295 HD
ENDBRANCH  11  13
ENDBRANCH   1  11
BRANCH   1  15
ATOM     15  CB  LEU A   1       6.833  -4.481  24.778  0.00  0.00    +0.036 C 
BRANCH  15  16
ATOM     16  CG  LEU A   1       5.736  -4.640  25.852  0.00  0.00    -0.015 C 
ATOM     17  CD2 LEU A   1       5.992  -3.663  27.003  0.00  0.00    +0.007 C 
ATOM     18  CD1 LEU A   1       5.648  -6.064  26.404  0.00  0.00    +0.007 C 
ENDBRANCH  15  16
ENDBRANCH   1  15
TORSDOF 6
ENDMDL
