MODEL 1
REMARK VINA RESULT:      -6.6      0.000      0.000
REMARK  Name = 
REMARK  10 active torsions:
REMARK  status: ('A' for Active; 'I' for Inactive)
REMARK    1  A    between atoms: C_1  and  C_2
REMARK    2  A    between atoms: C_2  and  N_4
REMARK    3  A    between atoms: C_2  and  C_14
REMARK    4  A    between atoms: N_4  and  C_5
REMARK    5  A    between atoms: C_5  and  C_6
REMARK    6  A    between atoms: C_6  and  C_7
REMARK    7  A    between atoms: C_10  and  O_11
REMARK    8  A    between atoms: C_14  and  O_16
REMARK    9  A    between atoms: C_14  and  C_17
REMARK   10  A    between atoms: C_20  and  O_21
REMARK                            x       y       z     vdW  Elec       q    Type
REMARK                         _______ _______ _______ _____ _____    ______ ____
ROOT
ATOM      1  C   UNL     1       6.093  -2.835  25.929  0.00  0.00    +0.027 C 
ATOM      2  C   UNL     1       7.057  -3.785  26.656  0.00  0.00    +0.084 C 
ENDROOT
BRANCH   2   3
ATOM      3  N   UNL     1       8.463  -3.331  26.542  0.00  0.00    -0.310 NA
ATOM      4  H   UNL     1       9.003  -4.103  26.141  0.00  0.00    +0.122 HD
BRANCH   3   5
ATOM      5  C   UNL     1       8.678  -2.116  25.757  0.00  0.00    +0.086 C 
BRANCH   5   6
ATOM      6  C   UNL     1       9.497  -2.353  24.480  0.00  0.00    +0.050 C 
BRANCH   6   7
ATOM      7  C   UNL     1       9.651  -1.070  23.705  0.00  0.00    -0.046 A 
ATOM      8  C   UNL     1      10.113   0.091  24.341  0.00  0.00    +0.007 A 
ATOM      9  C   UNL     1      10.319   1.255  23.604  0.00  0.00    +0.045 A 
ATOM     10  C   UNL     1      10.067   1.258  22.237  0.00  0.00    +0.117 A 
ATOM     11  C   UNL     1       9.592   0.120  21.592  0.00  0.00    +0.045 A 
ATOM     12  C   UNL     1       9.383  -1.044  22.328  0.00  0.00    +0.007 A 
BRANCH  10  13
ATOM     13  O   UNL     1      10.319   2.407  21.547  0.00  0.00    -0.507 OA
ATOM     14  H   UNL     1      11.052   2.871  21.986  0.00  0.00    +0.292 HD
ENDBRANCH  10  13
ENDBRANCH   6   7
ENDBRANCH   5   6
ENDBRANCH   3   5
ENDBRANCH   2   3
BRANCH   2  15
ATOM     15  C   UNL     1       6.987  -5.239  26.099  0.00  0.00    +0.161 C 
BRANCH  15  16
ATOM     16  C   UNL     1       6.673  -5.328  24.617  0.00  0.00    -0.017 A 
ATOM     17  C   UNL     1       7.669  -5.139  23.646  0.00  0.00    +0.010 A 
ATOM     18  C   UNL     1       7.374  -5.275  22.290  0.00  0.00    +0.046 A 
ATOM     19  C   UNL     1       6.084  -5.601  21.897  0.00  0.00    +0.117 A 
ATOM     20  C   UNL     1       5.069  -5.749  22.835  0.00  0.00    +0.046 A 
ATOM     21  C   UNL     1       5.363  -5.608  24.194  0.00  0.00    +0.010 A 
BRANCH  19  22
ATOM     22  O   UNL     1       5.853  -5.773  20.564  0.00  0.00    -0.507 OA
ATOM     23  H   UNL     1       5.102  -5.215  20.307  0.00  0.00    +0.292 HD
ENDBRANCH  19  22
ENDBRANCH  15  16
BRANCH  15  24
ATOM     24  O   UNL     1       8.200  -5.947  26.402  0.00  0.00    -0.386 OA
ATOM     25  H   UNL     1       8.688  -6.010  25.563  0.00  0.00    +0.210 HD
ENDBRANCH  15  24
ENDBRANCH   2  15
TORSDOF 9
ENDMDL
MODEL 2
REMARK VINA RESULT:      -6.6      2.830      5.049
REMARK  Name = 
REMARK  10 active torsions:
REMARK  status: ('A' for Active; 'I' for Inactive)
REMARK    1  A    between atoms: C_1  and  C_2
REMARK    2  A    between atoms: C_2  and  N_4
REMARK    3  A    between atoms: C_2  and  C_14
REMARK    4  A    between atoms: N_4  and  C_5
REMARK    5  A    between atoms: C_5  and  C_6
REMARK    6  A    between atoms: C_6  and  C_7
REMARK    7  A    between atoms: C_10  and  O_11
REMARK    8  A    between atoms: C_14  and  O_16
REMARK    9  A    between atoms: C_14  and  C_17
REMARK   10  A    between atoms: C_20  and  O_21
REMARK                            x       y       z     vdW  Elec       q    Type
REMARK                         _______ _______ _______ _____ _____    ______ ____
ROOT
ATOM      1  C   UNL     1       8.512  -3.762  26.334  0.00  0.00    +0.027 C 
ATOM      2  C   UNL     1       8.483  -2.470  25.504  0.00  0.00    +0.084 C 
ENDROOT
BRANCH   2   3
ATOM      3  N   UNL     1       7.104  -1.954  25.341  0.00  0.00    -0.310 NA
ATOM      4  H   UNL     1       6.507  -2.458  26.002  0.00  0.00    +0.122 HD
BRANCH   3   5
ATOM      5  C   UNL     1       6.940  -0.512  25.525  0.00  0.00    +0.086 C 
BRANCH   5   6
ATOM      6  C   UNL     1       6.072   0.145  24.442  0.00  0.00    +0.050 C 
BRANCH   6   7
ATOM      7  C   UNL     1       6.721   1.409  23.938  0.00  0.00    -0.046 A 
ATOM      8  C   UNL     1       6.470   1.864  22.637  0.00  0.00    +0.007 A 
ATOM      9  C   UNL     1       7.017   3.068  22.201  0.00  0.00    +0.045 A 
ATOM     10  C   UNL     1       7.811   3.816  23.064  0.00  0.00    +0.117 A 
ATOM     11  C   UNL     1       8.085   3.371  24.354  0.00  0.00    +0.045 A 
ATOM     12  C   UNL     1       7.540   2.165  24.789  0.00  0.00    +0.007 A 
BRANCH  10  13
ATOM     13  O   UNL     1       8.295   5.007  22.610  0.00  0.00    -0.507 OA
ATOM     14  H   UNL     1       7.711   5.715  22.930  0.00  0.00    +0.292 HD
ENDBRANCH  10  13
ENDBRANCH   6   7
ENDBRANCH   5   6
ENDBRANCH   3   5
ENDBRANCH   2   3
BRANCH   2  15
ATOM     15  C   UNL     1       9.081  -2.670  24.078  0.00  0.00    +0.161 C 
BRANCH  15  16
ATOM     16  C   UNL     1       9.479  -1.382  23.381  0.00  0.00    -0.017 A 
ATOM     17  C   UNL     1       9.099  -1.121  22.055  0.00  0.00    +0.010 A 
ATOM     18  C   UNL     1       9.429   0.089  21.445  0.00  0.00    +0.046 A 
ATOM     19  C   UNL     1      10.140   1.045  22.157  0.00  0.00    +0.117 A 
ATOM     20  C   UNL     1      10.567   0.795  23.456  0.00  0.00    +0.046 A 
ATOM     21  C   UNL     1      10.240  -0.420  24.065  0.00  0.00    +0.010 A 
BRANCH  19  22
ATOM     22  O   UNL     1      10.396   2.233  21.538  0.00  0.00    -0.507 OA
ATOM     23  H   UNL     1      11.284   2.192  21.150  0.00  0.00    +0.292 HD
ENDBRANCH  19  22
ENDBRANCH  15  16
BRANCH  15  24
ATOM     24  O   UNL     1      10.189  -3.582  24.126  0.00  0.00    -0.386 OA
ATOM     25  H   UNL     1      10.035  -4.226  23.414  0.00  0.00    +0.210 HD
ENDBRANCH  15  24
ENDBRANCH   2  15
TORSDOF 9
ENDMDL
MODEL 3
REMARK VINA RESULT:      -6.6      2.367      5.537
REMARK  Name = 
REMARK  10 active torsions:
REMARK  status: ('A' for Active; 'I' for Inactive)
REMARK    1  A    between atoms: C_1  and  C_2
REMARK    2  A    between atoms: C_2  and  N_4
REMARK    3  A    between atoms: C_2  and  C_14
REMARK    4  A    between atoms: N_4  and  C_5
REMARK    5  A    between atoms: C_5  and  C_6
REMARK    6  A    between atoms: C_6  and  C_7
REMARK    7  A    between atoms: C_10  and  O_11
REMARK    8  A    between atoms: C_14  and  O_16
REMARK    9  A    between atoms: C_14  and  C_17
REMARK   10  A    between atoms: C_20  and  O_21
REMARK                            x       y       z     vdW  Elec       q    Type
REMARK                         _______ _______ _______ _____ _____    ______ ____
ROOT
ATOM      1  C   UNL     1      10.193   0.033  24.940  0.00  0.00    +0.027 C 
ATOM      2  C   UNL     1       8.880  -0.752  24.797  0.00  0.00    +0.084 C 
ENDROOT
BRANCH   2   3
ATOM      3  N   UNL     1       7.901  -0.036  23.948  0.00  0.00    -0.310 NA
ATOM      4  H   UNL     1       8.411   0.688  23.434  0.00  0.00    +0.122 HD
BRANCH   3   5
ATOM      5  C   UNL     1       7.144  -0.866  23.011  0.00  0.00    +0.086 C 
BRANCH   5   6
ATOM      6  C   UNL     1       7.862  -2.169  22.634  0.00  0.00    +0.050 C 
BRANCH   6   7
ATOM      7  C   UNL     1       6.928  -3.344  22.761  0.00  0.00    -0.046 A 
ATOM      8  C   UNL     1       7.407  -4.651  22.597  0.00  0.00    +0.007 A 
ATOM      9  C   UNL     1       6.553  -5.736  22.784  0.00  0.00    +0.045 A 
ATOM     10  C   UNL     1       5.226  -5.515  23.136  0.00  0.00    +0.117 A 
ATOM     11  C   UNL     1       4.729  -4.224  23.285  0.00  0.00    +0.045 A 
ATOM     12  C   UNL     1       5.581  -3.138  23.096  0.00  0.00    +0.007 A 
BRANCH  10  13
ATOM     13  O   UNL     1       4.434  -6.605  23.346  0.00  0.00    -0.507 OA
ATOM     14  H   UNL     1       4.056  -6.539  24.239  0.00  0.00    +0.292 HD
ENDBRANCH  10  13
ENDBRANCH   6   7
ENDBRANCH   5   6
ENDBRANCH   3   5
ENDBRANCH   2   3
BRANCH   2  15
ATOM     15  C   UNL     1       8.199  -1.022  26.173  0.00  0.00    +0.161 C 
BRANCH  15  16
ATOM     16  C   UNL     1       7.685  -2.439  26.351  0.00  0.00    -0.017 A 
ATOM     17  C   UNL     1       6.353  -2.692  26.716  0.00  0.00    +0.010 A 
ATOM     18  C   UNL     1       5.883  -4.001  26.825  0.00  0.00    +0.046 A 
ATOM     19  C   UNL     1       6.740  -5.062  26.569  0.00  0.00    +0.117 A 
ATOM     20  C   UNL     1       8.074  -4.840  26.249  0.00  0.00    +0.046 A 
ATOM     21  C   UNL     1       8.546  -3.528  26.145  0.00  0.00    +0.010 A 
BRANCH  19  22
ATOM     22  O   UNL     1       6.224  -6.322  26.638  0.00  0.00    -0.507 OA
ATOM     23  H   UNL     1       5.437  -6.302  27.205  0.00  0.00    +0.292 HD
ENDBRANCH  19  22
ENDBRANCH  15  16
BRANCH  15  24
ATOM     24  O   UNL     1       9.086  -0.668  27.246  0.00  0.00    -0.386 OA
ATOM     25  H   UNL     1       9.402   0.230  27.044  0.00  0.00    +0.210 HD
ENDBRANCH  15  24
ENDBRANCH   2  15
TORSDOF 9
ENDMDL
MODEL 4
REMARK VINA RESULT:      -6.5      1.512      2.114
REMARK  Name = 
REMARK  10 active torsions:
REMARK  status: ('A' for Active; 'I' for Inactive)
REMARK    1  A    between atoms: C_1  and  C_2
REMARK    2  A    between atoms: C_2  and  N_4
REMARK    3  A    between atoms: C_2  and  C_14
REMARK    4  A    between atoms: N_4  and  C_5
REMARK    5  A    between atoms: C_5  and  C_6
REMARK    6  A    between atoms: C_6  and  C_7
REMARK    7  A    between atoms: C_10  and  O_11
REMARK    8  A    between atoms: C_14  and  O_16
REMARK    9  A    between atoms: C_14  and  C_17
REMARK   10  A    between atoms: C_20  and  O_21
REMARK                            x       y       z     vdW  Elec       q    Type
REMARK                         _______ _______ _______ _____ _____    ______ ____
ROOT
ATOM      1  C   UNL     1       8.521  -2.339  26.231  0.00  0.00    +0.027 C 
ATOM      2  C   UNL     1       8.864  -3.079  24.930  0.00  0.00    +0.084 C 
ENDROOT
BRANCH   2   3
ATOM      3  N   UNL     1       8.053  -2.591  23.790  0.00  0.00    -0.310 NA
ATOM      4  H   UNL     1       7.551  -1.756  24.106  0.00  0.00    +0.122 HD
BRANCH   3   5
ATOM      5  C   UNL     1       8.795  -2.288  22.566  0.00  0.00    +0.086 C 
BRANCH   5   6
ATOM      6  C   UNL     1      10.213  -1.762  22.827  0.00  0.00    +0.050 C 
BRANCH   6   7
ATOM      7  C   UNL     1      10.208  -0.258  22.931  0.00  0.00    -0.046 A 
ATOM      8  C   UNL     1      10.657   0.372  24.099  0.00  0.00    +0.007 A 
ATOM      9  C   UNL     1      10.715   1.763  24.163  0.00  0.00    +0.045 A 
ATOM     10  C   UNL     1      10.328   2.519  23.063  0.00  0.00    +0.117 A 
ATOM     11  C   UNL     1       9.863   1.910  21.901  0.00  0.00    +0.045 A 
ATOM     12  C   UNL     1       9.802   0.520  21.837  0.00  0.00    +0.007 A 
BRANCH  10  13
ATOM     13  O   UNL     1      10.437   3.876  23.155  0.00  0.00    -0.507 OA
ATOM     14  H   UNL     1       9.562   4.263  22.984  0.00  0.00    +0.292 HD
ENDBRANCH  10  13
ENDBRANCH   6   7
ENDBRANCH   5   6
ENDBRANCH   3   5
ENDBRANCH   2   3
BRANCH   2  15
ATOM     15  C   UNL     1       8.633  -4.616  25.044  0.00  0.00    +0.161 C 
BRANCH  15  16
ATOM     16  C   UNL     1       7.374  -5.113  24.357  0.00  0.00    -0.017 A 
ATOM     17  C   UNL     1       6.134  -5.113  25.015  0.00  0.00    +0.010 A 
ATOM     18  C   UNL     1       4.978  -5.525  24.353  0.00  0.00    +0.046 A 
ATOM     19  C   UNL     1       5.054  -5.938  23.030  0.00  0.00    +0.117 A 
ATOM     20  C   UNL     1       6.276  -5.991  22.369  0.00  0.00    +0.046 A 
ATOM     21  C   UNL     1       7.435  -5.583  23.035  0.00  0.00    +0.010 A 
BRANCH  19  22
ATOM     22  O   UNL     1       3.891  -6.283  22.407  0.00  0.00    -0.507 OA
ATOM     23  H   UNL     1       3.390  -5.474  22.222  0.00  0.00    +0.292 HD
ENDBRANCH  19  22
ENDBRANCH  15  16
BRANCH  15  24
ATOM     24  O   UNL     1       9.784  -5.330  24.567  0.00  0.00    -0.386 OA
ATOM     25  H   UNL     1      10.068  -5.899  25.303  0.00  0.00    +0.210 HD
ENDBRANCH  15  24
ENDBRANCH   2  15
TORSDOF 9
ENDMDL
MODEL 5
REMARK VINA RESULT:      -6.5      1.458      5.911
REMARK  Name = 
REMARK  10 active torsions:
REMARK  status: ('A' for Active; 'I' for Inactive)
REMARK    1  A    between atoms: C_1  and  C_2
REMARK    2  A    between atoms: C_2  and  N_4
REMARK    3  A    between atoms: C_2  and  C_14
REMARK    4  A    between atoms: N_4  and  C_5
REMARK    5  A    between atoms: C_5  and  C_6
REMARK    6  A    between atoms: C_6  and  C_7
REMARK    7  A    between atoms: C_10  and  O_11
REMARK    8  A    between atoms: C_14  and  O_16
REMARK    9  A    between atoms: C_14  and  C_17
REMARK   10  A    between atoms: C_20  and  O_21
REMARK                            x       y       z     vdW  Elec       q    Type
REMARK                         _______ _______ _______ _____ _____    ______ ____
ROOT
ATOM      1  C   UNL     1       8.411  -3.853  26.353  0.00  0.00    +0.027 C 
ATOM      2  C   UNL     1       8.573  -2.485  25.673  0.00  0.00    +0.084 C 
ENDROOT
BRANCH   2   3
ATOM      3  N   UNL     1       7.304  -1.721  25.667  0.00  0.00    -0.310 NA
ATOM      4  H   UNL     1       7.156  -1.380  24.713  0.00  0.00    +0.122 HD
BRANCH   3   5
ATOM      5  C   UNL     1       6.120  -2.451  26.121  0.00  0.00    +0.086 C 
BRANCH   5   6
ATOM      6  C   UNL     1       5.007  -2.522  25.066  0.00  0.00    +0.050 C 
BRANCH   6   7
ATOM      7  C   UNL     1       5.428  -3.395  23.912  0.00  0.00    -0.046 A 
ATOM      8  C   UNL     1       5.529  -4.784  24.074  0.00  0.00    +0.007 A 
ATOM      9  C   UNL     1       5.851  -5.592  22.986  0.00  0.00    +0.045 A 
ATOM     10  C   UNL     1       6.069  -5.014  21.741  0.00  0.00    +0.117 A 
ATOM     11  C   UNL     1       5.991  -3.636  21.565  0.00  0.00    +0.045 A 
ATOM     12  C   UNL     1       5.672  -2.827  22.653  0.00  0.00    +0.007 A 
BRANCH  10  13
ATOM     13  O   UNL     1       6.345  -5.845  20.694  0.00  0.00    -0.507 OA
ATOM     14  H   UNL     1       5.503  -6.172  20.336  0.00  0.00    +0.292 HD
ENDBRANCH  10  13
ENDBRANCH   6   7
ENDBRANCH   5   6
ENDBRANCH   3   5
ENDBRANCH   2   3
BRANCH   2  15
ATOM     15  C   UNL     1       9.051  -2.613  24.194  0.00  0.00    +0.161 C 
BRANCH  15  16
ATOM     16  C   UNL     1       9.350  -1.288  23.516  0.00  0.00    -0.017 A 
ATOM     17  C   UNL     1      10.031  -0.261  24.188  0.00  0.00    +0.010 A 
ATOM     18  C   UNL     1      10.343   0.931  23.535  0.00  0.00    +0.046 A 
ATOM     19  C   UNL     1       9.977   1.102  22.207  0.00  0.00    +0.117 A 
ATOM     20  C   UNL     1       9.263   0.119  21.532  0.00  0.00    +0.046 A 
ATOM     21  C   UNL     1       8.946  -1.073  22.188  0.00  0.00    +0.010 A 
BRANCH  19  22
ATOM     22  O   UNL     1      10.348   2.262  21.594  0.00  0.00    -0.507 OA
ATOM     23  H   UNL     1      10.695   2.048  20.713  0.00  0.00    +0.292 HD
ENDBRANCH  19  22
ENDBRANCH  15  16
BRANCH  15  24
ATOM     24  O   UNL     1      10.185  -3.490  24.111  0.00  0.00    -0.386 OA
ATOM     25  H   UNL     1      10.232  -3.777  23.183  0.00  0.00    +0.210 HD
ENDBRANCH  15  24
ENDBRANCH   2  15
TORSDOF 9
ENDMDL
MODEL 6
REMARK VINA RESULT:      -6.5      2.714      5.644
REMARK  Name = 
REMARK  10 active torsions:
REMARK  status: ('A' for Active; 'I' for Inactive)
REMARK    1  A    between atoms: C_1  and  C_2
REMARK    2  A    between atoms: C_2  and  N_4
REMARK    3  A    between atoms: C_2  and  C_14
REMARK    4  A    between atoms: N_4  and  C_5
REMARK    5  A    between atoms: C_5  and  C_6
REMARK    6  A    between atoms: C_6  and  C_7
REMARK    7  A    between atoms: C_10  and  O_11
REMARK    8  A    between atoms: C_14  and  O_16
REMARK    9  A    between atoms: C_14  and  C_17
REMARK   10  A    between atoms: C_20  and  O_21
REMARK                            x       y       z     vdW  Elec       q    Type
REMARK                         _______ _______ _______ _____ _____    ______ ____
ROOT
ATOM      1  C   UNL     1       8.510  -1.474  26.592  0.00  0.00    +0.027 C 
ATOM      2  C   UNL     1       7.973  -2.753  25.933  0.00  0.00    +0.084 C 
ENDROOT
BRANCH   2   3
ATOM      3  N   UNL     1       8.053  -3.917  26.847  0.00  0.00    -0.310 NA
ATOM      4  H   UNL     1       8.434  -3.583  27.736  0.00  0.00    +0.122 HD
BRANCH   3   5
ATOM      5  C   UNL     1       6.796  -4.627  27.083  0.00  0.00    +0.086 C 
BRANCH   5   6
ATOM      6  C   UNL     1       5.565  -3.880  26.551  0.00  0.00    +0.050 C 
BRANCH   6   7
ATOM      7  C   UNL     1       4.830  -4.724  25.541  0.00  0.00    -0.046 A 
ATOM      8  C   UNL     1       3.965  -4.126  24.614  0.00  0.00    +0.007 A 
ATOM      9  C   UNL     1       3.342  -4.903  23.640  0.00  0.00    +0.045 A 
ATOM     10  C   UNL     1       3.585  -6.271  23.591  0.00  0.00    +0.117 A 
ATOM     11  C   UNL     1       4.427  -6.884  24.514  0.00  0.00    +0.045 A 
ATOM     12  C   UNL     1       5.048  -6.108  25.490  0.00  0.00    +0.007 A 
BRANCH  10  13
ATOM     13  O   UNL     1       2.985  -6.987  22.598  0.00  0.00    -0.507 OA
ATOM     14  H   UNL     1       2.407  -6.388  22.097  0.00  0.00    +0.292 HD
ENDBRANCH  10  13
ENDBRANCH   6   7
ENDBRANCH   5   6
ENDBRANCH   3   5
ENDBRANCH   2   3
BRANCH   2  15
ATOM     15  C   UNL     1       8.753  -3.123  24.635  0.00  0.00    +0.161 C 
BRANCH  15  16
ATOM     16  C   UNL     1       7.913  -3.812  23.575  0.00  0.00    -0.017 A 
ATOM     17  C   UNL     1       7.080  -3.081  22.714  0.00  0.00    +0.010 A 
ATOM     18  C   UNL     1       6.354  -3.723  21.712  0.00  0.00    +0.046 A 
ATOM     19  C   UNL     1       6.458  -5.100  21.563  0.00  0.00    +0.117 A 
ATOM     20  C   UNL     1       7.241  -5.853  22.430  0.00  0.00    +0.046 A 
ATOM     21  C   UNL     1       7.965  -5.209  23.438  0.00  0.00    +0.010 A 
BRANCH  19  22
ATOM     22  O   UNL     1       5.770  -5.679  20.538  0.00  0.00    -0.507 OA
ATOM     23  H   UNL     1       5.227  -6.397  20.900  0.00  0.00    +0.292 HD
ENDBRANCH  19  22
ENDBRANCH  15  16
BRANCH  15  24
ATOM     24  O   UNL     1       9.396  -1.959  24.093  0.00  0.00    -0.386 OA
ATOM     25  H   UNL     1       8.802  -1.626  23.397  0.00  0.00    +0.210 HD
ENDBRANCH  15  24
ENDBRANCH   2  15
TORSDOF 9
ENDMDL
MODEL 7
REMARK VINA RESULT:      -6.4      2.836      6.456
REMARK  Name = 
REMARK  10 active torsions:
REMARK  status: ('A' for Active; 'I' for Inactive)
REMARK    1  A    between atoms: C_1  and  C_2
REMARK    2  A    between atoms: C_2  and  N_4
REMARK    3  A    between atoms: C_2  and  C_14
REMARK    4  A    between atoms: N_4  and  C_5
REMARK    5  A    between atoms: C_5  and  C_6
REMARK    6  A    between atoms: C_6  and  C_7
REMARK    7  A    between atoms: C_10  and  O_11
REMARK    8  A    between atoms: C_14  and  O_16
REMARK    9  A    between atoms: C_14  and  C_17
REMARK   10  A    between atoms: C_20  and  O_21
REMARK                            x       y       z     vdW  Elec       q    Type
REMARK                         _______ _______ _______ _____ _____    ______ ____
ROOT
ATOM      1  C   UNL     1       7.797   4.638  25.674  0.00  0.00    +0.027 C 
ATOM      2  C   UNL     1       8.044   3.288  24.984  0.00  0.00    +0.084 C 
ENDROOT
BRANCH   2   3
ATOM      3  N   UNL     1       8.138   2.180  25.962  0.00  0.00    -0.310 NA
ATOM      4  H   UNL     1       8.364   2.592  26.872  0.00  0.00    +0.122 HD
BRANCH   3   5
ATOM      5  C   UNL     1       6.950   1.335  26.082  0.00  0.00    +0.086 C 
BRANCH   5   6
ATOM      6  C   UNL     1       6.403   0.858  24.729  0.00  0.00    +0.050 C 
BRANCH   6   7
ATOM      7  C   UNL     1       6.947  -0.507  24.391  0.00  0.00    -0.046 A 
ATOM      8  C   UNL     1       7.795  -1.173  25.286  0.00  0.00    +0.007 A 
ATOM      9  C   UNL     1       8.239  -2.462  24.999  0.00  0.00    +0.045 A 
ATOM     10  C   UNL     1       7.835  -3.083  23.822  0.00  0.00    +0.117 A 
ATOM     11  C   UNL     1       7.007  -2.429  22.914  0.00  0.00    +0.045 A 
ATOM     12  C   UNL     1       6.566  -1.140  23.199  0.00  0.00    +0.007 A 
BRANCH  10  13
ATOM     13  O   UNL     1       8.261  -4.359  23.598  0.00  0.00    -0.507 OA
ATOM     14  H   UNL     1       8.954  -4.333  22.918  0.00  0.00    +0.292 HD
ENDBRANCH  10  13
ENDBRANCH   6   7
ENDBRANCH   5   6
ENDBRANCH   3   5
ENDBRANCH   2   3
BRANCH   2  15
ATOM     15  C   UNL     1       9.357   3.285  24.144  0.00  0.00    +0.161 C 
BRANCH  15  16
ATOM     16  C   UNL     1       9.610   1.997  23.382  0.00  0.00    -0.017 A 
ATOM     17  C   UNL     1      10.439   0.991  23.902  0.00  0.00    +0.010 A 
ATOM     18  C   UNL     1      10.620  -0.208  23.213  0.00  0.00    +0.046 A 
ATOM     19  C   UNL     1       9.974  -0.408  22.001  0.00  0.00    +0.117 A 
ATOM     20  C   UNL     1       9.183   0.589  21.442  0.00  0.00    +0.046 A 
ATOM     21  C   UNL     1       9.006   1.792  22.131  0.00  0.00    +0.010 A 
BRANCH  19  22
ATOM     22  O   UNL     1      10.139  -1.614  21.388  0.00  0.00    -0.507 OA
ATOM     23  H   UNL     1       9.721  -1.575  20.513  0.00  0.00    +0.292 HD
ENDBRANCH  19  22
ENDBRANCH  15  16
BRANCH  15  24
ATOM     24  O   UNL     1       9.382   4.412  23.254  0.00  0.00    -0.386 OA
ATOM     25  H   UNL     1       9.687   5.166  23.788  0.00  0.00    +0.210 HD
ENDBRANCH  15  24
ENDBRANCH   2  15
TORSDOF 9
ENDMDL
MODEL 8
REMARK VINA RESULT:      -6.4      2.033      5.185
REMARK  Name = 
REMARK  10 active torsions:
REMARK  status: ('A' for Active; 'I' for Inactive)
REMARK    1  A    between atoms: C_1  and  C_2
REMARK    2  A    between atoms: C_2  and  N_4
REMARK    3  A    between atoms: C_2  and  C_14
REMARK    4  A    between atoms: N_4  and  C_5
REMARK    5  A    between atoms: C_5  and  C_6
REMARK    6  A    between atoms: C_6  and  C_7
REMARK    7  A    between atoms: C_10  and  O_11
REMARK    8  A    between atoms: C_14  and  O_16
REMARK    9  A    between atoms: C_14  and  C_17
REMARK   10  A    between atoms: C_20  and  O_21
REMARK                            x       y       z     vdW  Elec       q    Type
REMARK                         _______ _______ _______ _____ _____    ______ ____
ROOT
ATOM      1  C   UNL     1       8.830   0.616  21.884  0.00  0.00    +0.027 C 
ATOM      2  C   UNL     1       8.311  -0.342  22.967  0.00  0.00    +0.084 C 
ENDROOT
BRANCH   2   3
ATOM      3  N   UNL     1       8.773   0.055  24.318  0.00  0.00    -0.310 NA
ATOM      4  H   UNL     1       8.840   1.076  24.332  0.00  0.00    +0.122 HD
BRANCH   3   5
ATOM      5  C   UNL     1       7.945  -0.403  25.433  0.00  0.00    +0.086 C 
BRANCH   5   6
ATOM      6  C   UNL     1       8.669  -1.384  26.366  0.00  0.00    +0.050 C 
BRANCH   6   7
ATOM      7  C   UNL     1       7.952  -2.710  26.398  0.00  0.00    -0.046 A 
ATOM      8  C   UNL     1       6.553  -2.760  26.323  0.00  0.00    +0.007 A 
ATOM      9  C   UNL     1       5.901  -3.990  26.284  0.00  0.00    +0.045 A 
ATOM     10  C   UNL     1       6.644  -5.165  26.317  0.00  0.00    +0.117 A 
ATOM     11  C   UNL     1       8.032  -5.134  26.410  0.00  0.00    +0.045 A 
ATOM     12  C   UNL     1       8.685  -3.904  26.452  0.00  0.00    +0.007 A 
BRANCH  10  13
ATOM     13  O   UNL     1       5.967  -6.347  26.238  0.00  0.00    -0.507 OA
ATOM     14  H   UNL     1       5.473  -6.470  27.066  0.00  0.00    +0.292 HD
ENDBRANCH  10  13
ENDBRANCH   6   7
ENDBRANCH   5   6
ENDBRANCH   3   5
ENDBRANCH   2   3
BRANCH   2  15
ATOM     15  C   UNL     1       8.770  -1.812  22.727  0.00  0.00    +0.161 C 
BRANCH  15  16
ATOM     16  C   UNL     1       7.640  -2.825  22.707  0.00  0.00    -0.017 A 
ATOM     17  C   UNL     1       6.298  -2.421  22.630  0.00  0.00    +0.010 A 
ATOM     18  C   UNL     1       5.274  -3.366  22.561  0.00  0.00    +0.046 A 
ATOM     19  C   UNL     1       5.586  -4.718  22.567  0.00  0.00    +0.117 A 
ATOM     20  C   UNL     1       6.903  -5.145  22.688  0.00  0.00    +0.046 A 
ATOM     21  C   UNL     1       7.928  -4.198  22.763  0.00  0.00    +0.010 A 
BRANCH  19  22
ATOM     22  O   UNL     1       4.557  -5.605  22.447  0.00  0.00    -0.507 OA
ATOM     23  H   UNL     1       3.839  -5.324  23.036  0.00  0.00    +0.292 HD
ENDBRANCH  19  22
ENDBRANCH  15  16
BRANCH  15  24
ATOM     24  O   UNL     1       9.549  -1.900  21.524  0.00  0.00    -0.386 OA
ATOM     25  H   UNL     1       9.695  -0.983  21.234  0.00  0.00    +0.210 HD
ENDBRANCH  15  24
ENDBRANCH   2  15
TORSDOF 9
ENDMDL
MODEL 9
REMARK VINA RESULT:      -6.3      2.483      4.700
REMARK  Name = 
REMARK  10 active torsions:
REMARK  status: ('A' for Active; 'I' for Inactive)
REMARK    1  A    between atoms: C_1  and  C_2
REMARK    2  A    between atoms: C_2  and  N_4
REMARK    3  A    between atoms: C_2  and  C_14
REMARK    4  A    between atoms: N_4  and  C_5
REMARK    5  A    between atoms: C_5  and  C_6
REMARK    6  A    between atoms: C_6  and  C_7
REMARK    7  A    between atoms: C_10  and  O_11
REMARK    8  A    between atoms: C_14  and  O_16
REMARK    9  A    between atoms: C_14  and  C_17
REMARK   10  A    between atoms: C_20  and  O_21
REMARK                            x       y       z     vdW  Elec       q    Type
REMARK                         _______ _______ _______ _____ _____    ______ ____
ROOT
ATOM      1  C   UNL     1       4.851  -3.805  23.188  0.00  0.00    +0.027 C 
ATOM      2  C   UNL     1       6.013  -3.024  23.820  0.00  0.00    +0.084 C 
ENDROOT
BRANCH   2   3
ATOM      3  N   UNL     1       7.151  -3.910  24.157  0.00  0.00    -0.310 NA
ATOM      4  H   UNL     1       6.871  -4.869  23.932  0.00  0.00    +0.122 HD
BRANCH   3   5
ATOM      5  C   UNL     1       8.418  -3.596  23.497  0.00  0.00    +0.086 C 
BRANCH   5   6
ATOM      6  C   UNL     1       9.317  -2.661  24.318  0.00  0.00    +0.050 C 
BRANCH   6   7
ATOM      7  C   UNL     1       9.584  -1.386  23.560  0.00  0.00    -0.046 A 
ATOM      8  C   UNL     1       9.096  -1.220  22.257  0.00  0.00    +0.007 A 
ATOM      9  C   UNL     1       9.288  -0.013  21.588  0.00  0.00    +0.045 A 
ATOM     10  C   UNL     1       9.962   1.025  22.221  0.00  0.00    +0.117 A 
ATOM     11  C   UNL     1      10.468   0.872  23.508  0.00  0.00    +0.045 A 
ATOM     12  C   UNL     1      10.280  -0.335  24.176  0.00  0.00    +0.007 A 
BRANCH  10  13
ATOM     13  O   UNL     1      10.093   2.202  21.545  0.00  0.00    -0.507 OA
ATOM     14  H   UNL     1      10.192   2.001  20.599  0.00  0.00    +0.292 HD
ENDBRANCH  10  13
ENDBRANCH   6   7
ENDBRANCH   5   6
ENDBRANCH   3   5
ENDBRANCH   2   3
BRANCH   2  15
ATOM     15  C   UNL     1       5.589  -2.287  25.126  0.00  0.00    +0.161 C 
BRANCH  15  16
ATOM     16  C   UNL     1       6.243  -0.932  25.321  0.00  0.00    -0.017 A 
ATOM     17  C   UNL     1       6.947  -0.622  26.496  0.00  0.00    +0.010 A 
ATOM     18  C   UNL     1       7.586   0.609  26.638  0.00  0.00    +0.046 A 
ATOM     19  C   UNL     1       7.527   1.537  25.607  0.00  0.00    +0.117 A 
ATOM     20  C   UNL     1       6.800   1.274  24.452  0.00  0.00    +0.046 A 
ATOM     21  C   UNL     1       6.155   0.042  24.312  0.00  0.00    +0.010 A 
BRANCH  19  22
ATOM     22  O   UNL     1       8.209   2.707  25.770  0.00  0.00    -0.507 OA
ATOM     23  H   UNL     1       7.616   3.442  25.547  0.00  0.00    +0.292 HD
ENDBRANCH  19  22
ENDBRANCH  15  16
BRANCH  15  24
ATOM     24  O   UNL     1       4.159  -2.171  25.191  0.00  0.00    -0.386 OA
ATOM     25  H   UNL     1       3.933  -2.183  26.137  0.00  0.00    +0.210 HD
ENDBRANCH  15  24
ENDBRANCH   2  15
TORSDOF 9
ENDMDL
