MODEL 1
REMARK VINA RESULT:      -5.5      0.000      0.000
REMARK  Name = 
REMARK  6 active torsions:
REMARK  status: ('A' for Active; 'I' for Inactive)
REMARK    1  A    between atoms: O_1  and  C_2
REMARK    2  A    between atoms: C_2  and  CA_4
REMARK    3  A    between atoms: CA_4  and  C_6
REMARK    4  A    between atoms: C_6  and  C_7
REMARK    5  A    between atoms: C_9  and  O_10
REMARK    6  A    between atoms: C_11  and  O_12
REMARK                            x       y       z     vdW  Elec       q    Type
REMARK                         _______ _______ _______ _____ _____    ______ ____
ROOT
ATOM      1  C   UNL     1       7.831  -4.125  23.901  0.00  0.00    -0.038 A 
ATOM      2  C   UNL     1       6.625  -4.642  24.408  0.00  0.00    +0.008 A 
ATOM      3  C   UNL     1       6.580  -5.247  25.666  0.00  0.00    +0.049 A 
ATOM      4  C   UNL     1       7.745  -5.342  26.411  0.00  0.00    +0.158 A 
ATOM      5  C   UNL     1       8.949  -4.851  25.915  0.00  0.00    +0.158 A 
ATOM      6  C   UNL     1       9.005  -4.246  24.663  0.00  0.00    +0.053 A 
ENDROOT
BRANCH   4   7
ATOM      7  O   UNL     1       7.699  -5.917  27.649  0.00  0.00    -0.503 OA
ATOM      8  H   UNL     1       7.999  -5.214  28.258  0.00  0.00    +0.292 HD
ENDBRANCH   4   7
BRANCH   5   9
ATOM      9  O   UNL     1      10.057  -4.974  26.709  0.00  0.00    -0.503 OA
ATOM     10  H   UNL     1      10.800  -5.262  26.151  0.00  0.00    +0.292 HD
ENDBRANCH   5   9
BRANCH   1  11
ATOM     11  C   UNL     1       7.847  -3.417  22.568  0.00  0.00    +0.097 C 
BRANCH  11  12
ATOM     12  CA  UNL     1       8.229  -1.965  22.658  0.00  0.00    +0.121 C 
ATOM     13  N   UNL     1       7.455  -1.077  23.208  0.00  0.00    -0.297 NA
ATOM     14  H   UNL     1       7.907  -0.160  23.284  0.00  0.00    +0.187 HD
BRANCH  12  15
ATOM     15  C   UNL     1       9.582  -1.573  22.066  0.00  0.00    +0.351 C 
ATOM     16  OXT UNL     1      10.634  -1.948  22.536  0.00  0.00    -0.244 OA
BRANCH  15  17
ATOM     17  O   UNL     1       9.443  -0.771  20.999  0.00  0.00    -0.476 OA
ATOM     18  H   UNL     1       8.508  -0.651  20.734  0.00  0.00    +0.295 HD
ENDBRANCH  15  17
ENDBRANCH  12  15
ENDBRANCH  11  12
ENDBRANCH   1  11
TORSDOF 6
ENDMDL
MODEL 2
REMARK VINA RESULT:      -5.5      2.465      5.785
REMARK  Name = 
REMARK  6 active torsions:
REMARK  status: ('A' for Active; 'I' for Inactive)
REMARK    1  A    between atoms: O_1  and  C_2
REMARK    2  A    between atoms: C_2  and  CA_4
REMARK    3  A    between atoms: CA_4  and  C_6
REMARK    4  A    between atoms: C_6  and  C_7
REMARK    5  A    between atoms: C_9  and  O_10
REMARK    6  A    between atoms: C_11  and  O_12
REMARK                            x       y       z     vdW  Elec       q    Type
REMARK                         _______ _______ _______ _____ _____    ______ ____
ROOT
ATOM      1  C   UNL     1       9.877  -1.496  23.392  0.00  0.00    -0.038 A 
ATOM      2  C   UNL     1       9.469  -1.389  22.050  0.00  0.00    +0.008 A 
ATOM      3  C   UNL     1       9.477  -0.154  21.397  0.00  0.00    +0.049 A 
ATOM      4  C   UNL     1       9.886   0.974  22.091  0.00  0.00    +0.158 A 
ATOM      5  C   UNL     1      10.276   0.886  23.424  0.00  0.00    +0.158 A 
ATOM      6  C   UNL     1      10.272  -0.339  24.084  0.00  0.00    +0.053 A 
ENDROOT
BRANCH   4   7
ATOM      7  O   UNL     1       9.911   2.179  21.449  0.00  0.00    -0.503 OA
ATOM      8  H   UNL     1       8.986   2.495  21.483  0.00  0.00    +0.292 HD
ENDBRANCH   4   7
BRANCH   5   9
ATOM      9  O   UNL     1      10.673   2.040  24.044  0.00  0.00    -0.503 OA
ATOM     10  H   UNL     1      10.881   2.697  23.359  0.00  0.00    +0.292 HD
ENDBRANCH   5   9
BRANCH   1  11
ATOM     11  C   UNL     1       9.924  -2.848  24.060  0.00  0.00    +0.097 C 
BRANCH  11  12
ATOM     12  CA  UNL     1       8.567  -3.416  24.377  0.00  0.00    +0.121 C 
ATOM     13  N   UNL     1       7.600  -2.683  24.841  0.00  0.00    -0.297 NA
ATOM     14  H   UNL     1       6.715  -3.196  24.901  0.00  0.00    +0.187 HD
BRANCH  12  15
ATOM     15  C   UNL     1       8.373  -4.910  24.125  0.00  0.00    +0.351 C 
ATOM     16  OXT UNL     1       7.354  -5.367  23.655  0.00  0.00    -0.244 OA
BRANCH  15  17
ATOM     17  O   UNL     1       9.448  -5.621  24.500  0.00  0.00    -0.476 OA
ATOM     18  H   UNL     1       9.481  -5.776  25.466  0.00  0.00    +0.295 HD
ENDBRANCH  15  17
ENDBRANCH  12  15
ENDBRANCH  11  12
ENDBRANCH   1  11
TORSDOF 6
ENDMDL
MODEL 3
REMARK VINA RESULT:      -5.4      2.847      5.308
REMARK  Name = 
REMARK  6 active torsions:
REMARK  status: ('A' for Active; 'I' for Inactive)
REMARK    1  A    between atoms: O_1  and  C_2
REMARK    2  A    between atoms: C_2  and  CA_4
REMARK    3  A    between atoms: CA_4  and  C_6
REMARK    4  A    between atoms: C_6  and  C_7
REMARK    5  A    between atoms: C_9  and  O_10
REMARK    6  A    between atoms: C_11  and  O_12
REMARK                            x       y       z     vdW  Elec       q    Type
REMARK                         _______ _______ _______ _____ _____    ______ ____
ROOT
ATOM      1  C   UNL     1       8.929  -2.783  24.352  0.00  0.00    -0.038 A 
ATOM      2  C   UNL     1       9.700  -2.095  23.397  0.00  0.00    +0.008 A 
ATOM      3  C   UNL     1      10.165  -0.803  23.651  0.00  0.00    +0.049 A 
ATOM      4  C   UNL     1       9.852  -0.198  24.857  0.00  0.00    +0.158 A 
ATOM      5  C   UNL     1       9.075  -0.859  25.805  0.00  0.00    +0.158 A 
ATOM      6  C   UNL     1       8.606  -2.147  25.562  0.00  0.00    +0.053 A 
ENDROOT
BRANCH   4   7
ATOM      7  O   UNL     1      10.321   1.059  25.115  0.00  0.00    -0.503 OA
ATOM      8  H   UNL     1      10.985   1.221  24.416  0.00  0.00    +0.292 HD
ENDBRANCH   4   7
BRANCH   5   9
ATOM      9  O   UNL     1       8.810  -0.202  26.976  0.00  0.00    -0.503 OA
ATOM     10  H   UNL     1       9.511  -0.423  27.614  0.00  0.00    +0.292 HD
ENDBRANCH   5   9
BRANCH   1  11
ATOM     11  C   UNL     1       8.490  -4.202  24.087  0.00  0.00    +0.097 C 
BRANCH  11  12
ATOM     12  CA  UNL     1       8.810  -5.156  25.205  0.00  0.00    +0.121 C 
ATOM     13  N   UNL     1       9.997  -5.662  25.367  0.00  0.00    -0.297 NA
ATOM     14  H   UNL     1      10.075  -6.204  26.233  0.00  0.00    +0.187 HD
BRANCH  12  15
ATOM     15  C   UNL     1       7.667  -5.508  26.156  0.00  0.00    +0.351 C 
ATOM     16  OXT UNL     1       6.508  -5.521  25.807  0.00  0.00    -0.244 OA
BRANCH  15  17
ATOM     17  O   UNL     1       8.115  -5.775  27.393  0.00  0.00    -0.476 OA
ATOM     18  H   UNL     1       7.423  -6.154  27.973  0.00  0.00    +0.295 HD
ENDBRANCH  15  17
ENDBRANCH  12  15
ENDBRANCH  11  12
ENDBRANCH   1  11
TORSDOF 6
ENDMDL
MODEL 4
REMARK VINA RESULT:      -5.3      3.064      4.754
REMARK  Name = 
REMARK  6 active torsions:
REMARK  status: ('A' for Active; 'I' for Inactive)
REMARK    1  A    between atoms: O_1  and  C_2
REMARK    2  A    between atoms: C_2  and  CA_4
REMARK    3  A    between atoms: CA_4  and  C_6
REMARK    4  A    between atoms: C_6  and  C_7
REMARK    5  A    between atoms: C_9  and  O_10
REMARK    6  A    between atoms: C_11  and  O_12
REMARK                            x       y       z     vdW  Elec       q    Type
REMARK                         _______ _______ _______ _____ _____    ______ ____
ROOT
ATOM      1  C   UNL     1       6.781  -4.536  24.274  0.00  0.00    -0.038 A 
ATOM      2  C   UNL     1       8.037  -4.033  23.887  0.00  0.00    +0.008 A 
ATOM      3  C   UNL     1       9.150  -4.180  24.716  0.00  0.00    +0.049 A 
ATOM      4  C   UNL     1       9.006  -4.823  25.935  0.00  0.00    +0.158 A 
ATOM      5  C   UNL     1       7.766  -5.310  26.339  0.00  0.00    +0.158 A 
ATOM      6  C   UNL     1       6.648  -5.169  25.521  0.00  0.00    +0.053 A 
ENDROOT
BRANCH   4   7
ATOM      7  O   UNL     1      10.098  -4.984  26.739  0.00  0.00    -0.503 OA
ATOM      8  H   UNL     1       9.881  -5.757  27.296  0.00  0.00    +0.292 HD
ENDBRANCH   4   7
BRANCH   5   9
ATOM      9  O   UNL     1       7.698  -5.939  27.553  0.00  0.00    -0.503 OA
ATOM     10  H   UNL     1       6.919  -5.601  28.027  0.00  0.00    +0.292 HD
ENDBRANCH   5   9
BRANCH   1  11
ATOM     11  C   UNL     1       5.603  -4.425  23.338  0.00  0.00    +0.097 C 
BRANCH  11  12
ATOM     12  CA  UNL     1       5.176  -5.739  22.742  0.00  0.00    +0.121 C 
ATOM     13  N   UNL     1       5.932  -6.407  21.921  0.00  0.00    -0.297 NA
ATOM     14  H   UNL     1       5.542  -7.327  21.693  0.00  0.00    +0.187 HD
BRANCH  12  15
ATOM     15  C   UNL     1       3.799  -6.262  23.147  0.00  0.00    +0.351 C 
ATOM     16  OXT UNL     1       2.771  -5.691  22.856  0.00  0.00    -0.244 OA
BRANCH  15  17
ATOM     17  O   UNL     1       3.889  -7.395  23.861  0.00  0.00    -0.476 OA
ATOM     18  H   UNL     1       3.647  -8.190  23.342  0.00  0.00    +0.295 HD
ENDBRANCH  15  17
ENDBRANCH  12  15
ENDBRANCH  11  12
ENDBRANCH   1  11
TORSDOF 6
ENDMDL
MODEL 5
REMARK VINA RESULT:      -5.2      2.660      5.390
REMARK  Name = 
REMARK  6 active torsions:
REMARK  status: ('A' for Active; 'I' for Inactive)
REMARK    1  A    between atoms: O_1  and  C_2
REMARK    2  A    between atoms: C_2  and  CA_4
REMARK    3  A    between atoms: CA_4  and  C_6
REMARK    4  A    between atoms: C_6  and  C_7
REMARK    5  A    between atoms: C_9  and  O_10
REMARK    6  A    between atoms: C_11  and  O_12
REMARK                            x       y       z     vdW  Elec       q    Type
REMARK                         _______ _______ _______ _____ _____    ______ ____
ROOT
ATOM      1  C   UNL     1       8.899  -2.848  24.595  0.00  0.00    -0.038 A 
ATOM      2  C   UNL     1       8.515  -2.212  25.790  0.00  0.00    +0.008 A 
ATOM      3  C   UNL     1       8.842  -0.875  26.025  0.00  0.00    +0.049 A 
ATOM      4  C   UNL     1       9.560  -0.177  25.067  0.00  0.00    +0.158 A 
ATOM      5  C   UNL     1       9.961  -0.797  23.887  0.00  0.00    +0.158 A 
ATOM      6  C   UNL     1       9.641  -2.130  23.643  0.00  0.00    +0.053 A 
ENDROOT
BRANCH   4   7
ATOM      7  O   UNL     1       9.864   1.136  25.287  0.00  0.00    -0.503 OA
ATOM      8  H   UNL     1       9.976   1.203  26.256  0.00  0.00    +0.292 HD
ENDBRANCH   4   7
BRANCH   5   9
ATOM      9  O   UNL     1      10.662  -0.045  22.983  0.00  0.00    -0.503 OA
ATOM     10  H   UNL     1      10.777   0.846  23.354  0.00  0.00    +0.292 HD
ENDBRANCH   5   9
BRANCH   1  11
ATOM     11  C   UNL     1       8.481  -4.273  24.331  0.00  0.00    +0.097 C 
BRANCH  11  12
ATOM     12  CA  UNL     1       8.727  -5.202  25.489  0.00  0.00    +0.121 C 
ATOM     13  N   UNL     1       9.908  -5.673  25.761  0.00  0.00    -0.297 NA
ATOM     14  H   UNL     1       9.924  -6.201  26.639  0.00  0.00    +0.187 HD
BRANCH  12  15
ATOM     15  C   UNL     1       7.515  -5.573  26.341  0.00  0.00    +0.351 C 
ATOM     16  OXT UNL     1       6.384  -5.566  25.908  0.00  0.00    -0.244 OA
BRANCH  15  17
ATOM     17  O   UNL     1       7.868  -5.882  27.599  0.00  0.00    -0.476 OA
ATOM     18  H   UNL     1       8.622  -5.347  27.923  0.00  0.00    +0.295 HD
ENDBRANCH  15  17
ENDBRANCH  12  15
ENDBRANCH  11  12
ENDBRANCH   1  11
TORSDOF 6
ENDMDL
MODEL 6
REMARK VINA RESULT:      -5.1      0.832      1.982
REMARK  Name = 
REMARK  6 active torsions:
REMARK  status: ('A' for Active; 'I' for Inactive)
REMARK    1  A    between atoms: O_1  and  C_2
REMARK    2  A    between atoms: C_2  and  CA_4
REMARK    3  A    between atoms: CA_4  and  C_6
REMARK    4  A    between atoms: C_6  and  C_7
REMARK    5  A    between atoms: C_9  and  O_10
REMARK    6  A    between atoms: C_11  and  O_12
REMARK                            x       y       z     vdW  Elec       q    Type
REMARK                         _______ _______ _______ _____ _____    ______ ____
ROOT
ATOM      1  C   UNL     1       7.985  -3.812  23.822  0.00  0.00    -0.038 A 
ATOM      2  C   UNL     1       9.109  -3.766  24.667  0.00  0.00    +0.008 A 
ATOM      3  C   UNL     1       9.117  -4.454  25.882  0.00  0.00    +0.049 A 
ATOM      4  C   UNL     1       7.998  -5.180  26.255  0.00  0.00    +0.158 A 
ATOM      5  C   UNL     1       6.872  -5.221  25.438  0.00  0.00    +0.158 A 
ATOM      6  C   UNL     1       6.852  -4.539  24.225  0.00  0.00    +0.053 A 
ENDROOT
BRANCH   4   7
ATOM      7  O   UNL     1       8.012  -5.868  27.435  0.00  0.00    -0.503 OA
ATOM      8  H   UNL     1       8.787  -6.460  27.365  0.00  0.00    +0.292 HD
ENDBRANCH   4   7
BRANCH   5   9
ATOM      9  O   UNL     1       5.805  -5.963  25.867  0.00  0.00    -0.503 OA
ATOM     10  H   UNL     1       5.679  -5.794  26.817  0.00  0.00    +0.292 HD
ENDBRANCH   5   9
BRANCH   1  11
ATOM     11  C   UNL     1       8.018  -3.117  22.484  0.00  0.00    +0.097 C 
BRANCH  11  12
ATOM     12  CA  UNL     1       8.181  -1.624  22.579  0.00  0.00    +0.121 C 
ATOM     13  N   UNL     1       7.366  -0.880  23.267  0.00  0.00    -0.297 NA
ATOM     14  H   UNL     1       7.677   0.095  23.318  0.00  0.00    +0.187 HD
BRANCH  12  15
ATOM     15  C   UNL     1       9.359  -1.012  21.824  0.00  0.00    +0.351 C 
ATOM     16  OXT UNL     1       9.274   0.031  21.214  0.00  0.00    -0.244 OA
BRANCH  15  17
ATOM     17  O   UNL     1      10.459  -1.776  21.916  0.00  0.00    -0.476 OA
ATOM     18  H   UNL     1      11.195  -1.326  22.379  0.00  0.00    +0.295 HD
ENDBRANCH  15  17
ENDBRANCH  12  15
ENDBRANCH  11  12
ENDBRANCH   1  11
TORSDOF 6
ENDMDL
MODEL 7
REMARK VINA RESULT:      -5.1      2.604      5.994
REMARK  Name = 
REMARK  6 active torsions:
REMARK  status: ('A' for Active; 'I' for Inactive)
REMARK    1  A    between atoms: O_1  and  C_2
REMARK    2  A    between atoms: C_2  and  CA_4
REMARK    3  A    between atoms: CA_4  and  C_6
REMARK    4  A    between atoms: C_6  and  C_7
REMARK    5  A    between atoms: C_9  and  O_10
REMARK    6  A    between atoms: C_11  and  O_12
REMARK                            x       y       z     vdW  Elec       q    Type
REMARK                         _______ _______ _______ _____ _____    ______ ____
ROOT
ATOM      1  C   UNL     1       9.704  -0.964  23.296  0.00  0.00    -0.038 A 
ATOM      2  C   UNL     1      10.218  -0.491  24.518  0.00  0.00    +0.008 A 
ATOM      3  C   UNL     1      10.580   0.849  24.670  0.00  0.00    +0.049 A 
ATOM      4  C   UNL     1      10.435   1.714  23.597  0.00  0.00    +0.158 A 
ATOM      5  C   UNL     1       9.944   1.257  22.377  0.00  0.00    +0.158 A 
ATOM      6  C   UNL     1       9.581  -0.077  22.214  0.00  0.00    +0.053 A 
ENDROOT
BRANCH   4   7
ATOM      7  O   UNL     1      10.772   3.028  23.749  0.00  0.00    -0.503 OA
ATOM      8  H   UNL     1       9.937   3.467  24.006  0.00  0.00    +0.292 HD
ENDBRANCH   4   7
BRANCH   5   9
ATOM      9  O   UNL     1       9.823   2.168  21.362  0.00  0.00    -0.503 OA
ATOM     10  H   UNL     1      10.476   2.874  21.508  0.00  0.00    +0.292 HD
ENDBRANCH   5   9
BRANCH   1  11
ATOM     11  C   UNL     1       9.257  -2.399  23.171  0.00  0.00    +0.097 C 
BRANCH  11  12
ATOM     12  CA  UNL     1       8.513  -2.911  24.375  0.00  0.00    +0.121 C 
ATOM     13  N   UNL     1       7.330  -2.478  24.694  0.00  0.00    -0.297 NA
ATOM     14  H   UNL     1       6.920  -3.003  25.473  0.00  0.00    +0.187 HD
BRANCH  12  15
ATOM     15  C   UNL     1       9.217  -3.974  25.216  0.00  0.00    +0.351 C 
ATOM     16  OXT UNL     1      10.057  -4.719  24.759  0.00  0.00    -0.244 OA
BRANCH  15  17
ATOM     17  O   UNL     1       8.776  -3.977  26.483  0.00  0.00    -0.476 OA
ATOM     18  H   UNL     1       9.495  -3.838  27.134  0.00  0.00    +0.295 HD
ENDBRANCH  15  17
ENDBRANCH  12  15
ENDBRANCH  11  12
ENDBRANCH   1  11
TORSDOF 6
ENDMDL
MODEL 8
REMARK VINA RESULT:      -5.0      2.137      5.473
REMARK  Name = 
REMARK  6 active torsions:
REMARK  status: ('A' for Active; 'I' for Inactive)
REMARK    1  A    between atoms: O_1  and  C_2
REMARK    2  A    between atoms: C_2  and  CA_4
REMARK    3  A    between atoms: CA_4  and  C_6
REMARK    4  A    between atoms: C_6  and  C_7
REMARK    5  A    between atoms: C_9  and  O_10
REMARK    6  A    between atoms: C_11  and  O_12
REMARK                            x       y       z     vdW  Elec       q    Type
REMARK                         _______ _______ _______ _____ _____    ______ ____
ROOT
ATOM      1  C   UNL     1       9.111  -1.686  24.969  0.00  0.00    -0.038 A 
ATOM      2  C   UNL     1       9.057  -0.303  25.223  0.00  0.00    +0.008 A 
ATOM      3  C   UNL     1       9.415   0.618  24.237  0.00  0.00    +0.049 A 
ATOM      4  C   UNL     1       9.834   0.156  23.000  0.00  0.00    +0.158 A 
ATOM      5  C   UNL     1       9.909  -1.210  22.739  0.00  0.00    +0.158 A 
ATOM      6  C   UNL     1       9.555  -2.137  23.715  0.00  0.00    +0.053 A 
ENDROOT
BRANCH   4   7
ATOM      7  O   UNL     1      10.167   1.056  22.029  0.00  0.00    -0.503 OA
ATOM      8  H   UNL     1      10.318   1.893  22.511  0.00  0.00    +0.292 HD
ENDBRANCH   4   7
BRANCH   5   9
ATOM      9  O   UNL     1      10.326  -1.594  21.494  0.00  0.00    -0.503 OA
ATOM     10  H   UNL     1      10.332  -0.810  20.919  0.00  0.00    +0.292 HD
ENDBRANCH   5   9
BRANCH   1  11
ATOM     11  C   UNL     1       8.658  -2.665  26.024  0.00  0.00    +0.097 C 
BRANCH  11  12
ATOM     12  CA  UNL     1       7.904  -3.845  25.473  0.00  0.00    +0.121 C 
ATOM     13  N   UNL     1       6.702  -3.736  24.990  0.00  0.00    -0.297 NA
ATOM     14  H   UNL     1       6.375  -4.607  24.560  0.00  0.00    +0.187 HD
BRANCH  12  15
ATOM     15  C   UNL     1       8.621  -5.194  25.507  0.00  0.00    +0.351 C 
ATOM     16  OXT UNL     1       9.350  -5.569  24.616  0.00  0.00    -0.244 OA
BRANCH  15  17
ATOM     17  O   UNL     1       8.325  -5.885  26.619  0.00  0.00    -0.476 OA
ATOM     18  H   UNL     1       7.675  -5.425  27.190  0.00  0.00    +0.295 HD
ENDBRANCH  15  17
ENDBRANCH  12  15
ENDBRANCH  11  12
ENDBRANCH   1  11
TORSDOF 6
ENDMDL
MODEL 9
REMARK VINA RESULT:      -5.0      3.096      6.136
REMARK  Name = 
REMARK  6 active torsions:
REMARK  status: ('A' for Active; 'I' for Inactive)
REMARK    1  A    between atoms: O_1  and  C_2
REMARK    2  A    between atoms: C_2  and  CA_4
REMARK    3  A    between atoms: CA_4  and  C_6
REMARK    4  A    between atoms: C_6  and  C_7
REMARK    5  A    between atoms: C_9  and  O_10
REMARK    6  A    between atoms: C_11  and  O_12
REMARK                            x       y       z     vdW  Elec       q    Type
REMARK                         _______ _______ _______ _____ _____    ______ ____
ROOT
ATOM      1  C   UNL     1       9.046  -0.349  23.998  0.00  0.00    -0.038 A 
ATOM      2  C   UNL     1      10.050   0.277  24.760  0.00  0.00    +0.008 A 
ATOM      3  C   UNL     1      10.659   1.451  24.312  0.00  0.00    +0.049 A 
ATOM      4  C   UNL     1      10.268   1.994  23.099  0.00  0.00    +0.158 A 
ATOM      5  C   UNL     1       9.288   1.377  22.326  0.00  0.00    +0.158 A 
ATOM      6  C   UNL     1       8.674   0.206  22.762  0.00  0.00    +0.053 A 
ENDROOT
BRANCH   4   7
ATOM      7  O   UNL     1      10.850   3.152  22.668  0.00  0.00    -0.503 OA
ATOM      8  H   UNL     1      10.527   3.263  21.752  0.00  0.00    +0.292 HD
ENDBRANCH   4   7
BRANCH   5   9
ATOM      9  O   UNL     1       8.948   1.973  21.142  0.00  0.00    -0.503 OA
ATOM     10  H   UNL     1       9.658   2.591  20.897  0.00  0.00    +0.292 HD
ENDBRANCH   5   9
BRANCH   1  11
ATOM     11  C   UNL     1       8.354  -1.580  24.529  0.00  0.00    +0.097 C 
BRANCH  11  12
ATOM     12  CA  UNL     1       8.814  -2.860  23.884  0.00  0.00    +0.121 C 
ATOM     13  N   UNL     1       9.995  -3.359  24.100  0.00  0.00    -0.297 NA
ATOM     14  H   UNL     1      10.110  -4.284  23.674  0.00  0.00    +0.187 HD
BRANCH  12  15
ATOM     15  C   UNL     1       7.821  -3.556  22.955  0.00  0.00    +0.351 C 
ATOM     16  OXT UNL     1       7.197  -2.963  22.103  0.00  0.00    -0.244 OA
BRANCH  15  17
ATOM     17  O   UNL     1       7.732  -4.869  23.218  0.00  0.00    -0.476 OA
ATOM     18  H   UNL     1       7.709  -5.062  24.178  0.00  0.00    +0.295 HD
ENDBRANCH  15  17
ENDBRANCH  12  15
ENDBRANCH  11  12
ENDBRANCH   1  11
TORSDOF 6
ENDMDL
