MODEL 1
REMARK VINA RESULT:      -7.6      0.000      0.000
REMARK  Name = 
REMARK  3 active torsions:
REMARK  status: ('A' for Active; 'I' for Inactive)
REMARK    1  A    between atoms: C_5  and  C_6
REMARK    2  A    between atoms: C_5  and  O_7
REMARK    3  A    between atoms: C_8  and  C_9
REMARK                            x       y       z     vdW  Elec       q    Type
REMARK                         _______ _______ _______ _____ _____    ______ ____
ROOT
ATOM      1  C   UNL     1       7.893   0.493  23.542  0.00  0.00    +0.009 C 
ATOM      2  C   UNL     1       7.349  -0.933  23.685  0.00  0.00    +0.024 C 
ATOM      3  C   UNL     1       8.365  -1.776  24.492  0.00  0.00    -0.041 C 
ATOM      4  C   UNL     1       7.958  -2.809  25.275  0.00  0.00    -0.040 C 
ATOM      5  C   UNL     1       6.542  -2.967  25.592  0.00  0.00    -0.041 C 
ATOM      6  C   UNL     1       5.701  -1.715  25.476  0.00  0.00    +0.036 C 
ATOM      7  C   UNL     1       6.002  -4.097  26.063  0.00  0.00    +0.050 C 
ATOM      8  C   UNL     1       6.860  -5.240  26.423  0.00  0.00    +0.157 C 
ATOM      9  O   UNL     1       6.357  -6.340  26.637  0.00  0.00    -0.293 OA
ATOM     10  C   UNL     1       8.313  -4.956  26.701  0.00  0.00    +0.083 C 
ATOM     11  C   UNL     1       8.903  -3.866  25.811  0.00  0.00    +0.043 C 
ATOM     12  C   UNL     1       9.782  -1.380  24.363  0.00  0.00    +0.000 C 
ATOM     13  C   UNL     1      10.209  -0.292  23.683  0.00  0.00    -0.017 C 
ATOM     14  C   UNL     1       5.883  -1.028  24.138  0.00  0.00    +0.013 C 
ATOM     15  C   UNL     1       9.265   0.499  22.804  0.00  0.00    +0.018 C 
ATOM     16  C   UNL     1       9.361  -0.272  21.446  0.00  0.00    +0.019 C 
ATOM     17  C   UNL     1       9.417   2.032  22.495  0.00  0.00    +0.072 C 
ATOM     18  C   UNL     1       9.715   2.999  23.646  0.00  0.00    +0.042 C 
ATOM     19  C   UNL     1       8.003   2.342  21.955  0.00  0.00    +0.035 C 
ATOM     20  C   UNL     1       7.047   1.585  22.877  0.00  0.00    +0.008 C 
ENDROOT
BRANCH  17  21
ATOM     21  O   UNL     1      10.393   2.282  21.480  0.00  0.00    -0.388 OA
ATOM     22  H   UNL     1      11.245   2.396  21.948  0.00  0.00    +0.210 HD
ENDBRANCH  17  21
TORSDOF 1
ENDMDL
MODEL 2
REMARK VINA RESULT:      -7.4      2.209      2.564
REMARK  Name = 
REMARK  3 active torsions:
REMARK  status: ('A' for Active; 'I' for Inactive)
REMARK    1  A    between atoms: C_5  and  C_6
REMARK    2  A    between atoms: C_5  and  O_7
REMARK    3  A    between atoms: C_8  and  C_9
REMARK                            x       y       z     vdW  Elec       q    Type
REMARK                         _______ _______ _______ _____ _____    ______ ____
ROOT
ATOM      1  C   UNL     1       8.224   0.301  23.810  0.00  0.00    +0.009 C 
ATOM      2  C   UNL     1       6.985  -0.521  23.439  0.00  0.00    +0.024 C 
ATOM      3  C   UNL     1       7.442  -1.834  22.759  0.00  0.00    -0.041 C 
ATOM      4  C   UNL     1       6.709  -2.973  22.864  0.00  0.00    -0.040 C 
ATOM      5  C   UNL     1       5.632  -3.057  23.845  0.00  0.00    -0.041 C 
ATOM      6  C   UNL     1       5.732  -2.100  25.012  0.00  0.00    +0.036 C 
ATOM      7  C   UNL     1       4.659  -3.976  23.812  0.00  0.00    +0.050 C 
ATOM      8  C   UNL     1       4.701  -5.070  22.826  0.00  0.00    +0.157 C 
ATOM      9  O   UNL     1       3.709  -5.773  22.649  0.00  0.00    -0.293 OA
ATOM     10  C   UNL     1       6.035  -5.400  22.210  0.00  0.00    +0.083 C 
ATOM     11  C   UNL     1       6.913  -4.176  21.964  0.00  0.00    +0.043 C 
ATOM     12  C   UNL     1       8.713  -1.767  22.011  0.00  0.00    +0.000 C 
ATOM     13  C   UNL     1       9.521  -0.683  21.980  0.00  0.00    -0.017 C 
ATOM     14  C   UNL     1       5.943  -0.670  24.560  0.00  0.00    +0.013 C 
ATOM     15  C   UNL     1       9.067   0.645  22.547  0.00  0.00    +0.018 C 
ATOM     16  C   UNL     1       8.321   1.282  21.328  0.00  0.00    +0.019 C 
ATOM     17  C   UNL     1      10.035   1.734  23.137  0.00  0.00    +0.072 C 
ATOM     18  C   UNL     1      11.144   1.302  24.103  0.00  0.00    +0.042 C 
ATOM     19  C   UNL     1       9.023   2.603  23.916  0.00  0.00    +0.035 C 
ATOM     20  C   UNL     1       8.082   1.609  24.597  0.00  0.00    +0.008 C 
ENDROOT
BRANCH  17  21
ATOM     21  O   UNL     1      10.659   2.512  22.111  0.00  0.00    -0.388 OA
ATOM     22  H   UNL     1      11.561   2.709  22.435  0.00  0.00    +0.210 HD
ENDBRANCH  17  21
TORSDOF 1
ENDMDL
MODEL 3
REMARK VINA RESULT:      -7.4      1.388      2.134
REMARK  Name = 
REMARK  3 active torsions:
REMARK  status: ('A' for Active; 'I' for Inactive)
REMARK    1  A    between atoms: C_5  and  C_6
REMARK    2  A    between atoms: C_5  and  O_7
REMARK    3  A    between atoms: C_8  and  C_9
REMARK                            x       y       z     vdW  Elec       q    Type
REMARK                         _______ _______ _______ _____ _____    ______ ____
ROOT
ATOM      1  C   UNL     1       8.663  -0.040  23.027  0.00  0.00    +0.009 C 
ATOM      2  C   UNL     1       8.680  -1.457  23.609  0.00  0.00    +0.024 C 
ATOM      3  C   UNL     1       7.871  -1.464  24.929  0.00  0.00    -0.041 C 
ATOM      4  C   UNL     1       7.208  -2.576  25.342  0.00  0.00    -0.040 C 
ATOM      5  C   UNL     1       7.011  -3.690  24.421  0.00  0.00    -0.041 C 
ATOM      6  C   UNL     1       7.086  -3.345  22.949  0.00  0.00    +0.036 C 
ATOM      7  C   UNL     1       6.676  -4.928  24.803  0.00  0.00    +0.050 C 
ATOM      8  C   UNL     1       6.348  -5.209  26.212  0.00  0.00    +0.157 C 
ATOM      9  O   UNL     1       6.263  -6.372  26.600  0.00  0.00    -0.293 OA
ATOM     10  C   UNL     1       5.941  -4.044  27.076  0.00  0.00    +0.083 C 
ATOM     11  C   UNL     1       6.692  -2.756  26.756  0.00  0.00    +0.043 C 
ATOM     12  C   UNL     1       7.861  -0.198  25.688  0.00  0.00    +0.000 C 
ATOM     13  C   UNL     1       8.416   0.956  25.252  0.00  0.00    -0.017 C 
ATOM     14  C   UNL     1       8.346  -2.576  22.608  0.00  0.00    +0.013 C 
ATOM     15  C   UNL     1       9.295   0.981  24.020  0.00  0.00    +0.018 C 
ATOM     16  C   UNL     1      10.701   0.640  24.615  0.00  0.00    +0.019 C 
ATOM     17  C   UNL     1       9.464   2.228  23.078  0.00  0.00    +0.072 C 
ATOM     18  C   UNL     1       8.219   3.004  22.635  0.00  0.00    +0.042 C 
ATOM     19  C   UNL     1      10.081   1.548  21.836  0.00  0.00    +0.035 C 
ATOM     20  C   UNL     1       9.298   0.247  21.661  0.00  0.00    +0.008 C 
ENDROOT
BRANCH  17  21
ATOM     21  O   UNL     1      10.381   3.187  23.615  0.00  0.00    -0.388 OA
ATOM     22  H   UNL     1       9.830   3.909  23.981  0.00  0.00    +0.210 HD
ENDBRANCH  17  21
TORSDOF 1
ENDMDL
MODEL 4
REMARK VINA RESULT:      -7.1      2.457      6.514
REMARK  Name = 
REMARK  3 active torsions:
REMARK  status: ('A' for Active; 'I' for Inactive)
REMARK    1  A    between atoms: C_5  and  C_6
REMARK    2  A    between atoms: C_5  and  O_7
REMARK    3  A    between atoms: C_8  and  C_9
REMARK                            x       y       z     vdW  Elec       q    Type
REMARK                         _______ _______ _______ _____ _____    ______ ____
ROOT
ATOM      1  C   UNL     1       6.075  -4.178  24.452  0.00  0.00    +0.009 C 
ATOM      2  C   UNL     1       7.455  -3.511  24.454  0.00  0.00    +0.024 C 
ATOM      3  C   UNL     1       7.413  -2.273  23.527  0.00  0.00    -0.041 C 
ATOM      4  C   UNL     1       8.197  -1.189  23.764  0.00  0.00    -0.040 C 
ATOM      5  C   UNL     1       8.882  -1.054  25.045  0.00  0.00    -0.041 C 
ATOM      6  C   UNL     1       8.282  -1.831  26.196  0.00  0.00    +0.036 C 
ATOM      7  C   UNL     1       9.911  -0.224  25.260  0.00  0.00    +0.050 C 
ATOM      8  C   UNL     1      10.334   0.724  24.215  0.00  0.00    +0.157 C 
ATOM      9  O   UNL     1      11.404   1.318  24.325  0.00  0.00    -0.293 OA
ATOM     10  C   UNL     1       9.334   1.067  23.142  0.00  0.00    +0.083 C 
ATOM     11  C   UNL     1       8.453  -0.109  22.732  0.00  0.00    +0.043 C 
ATOM     12  C   UNL     1       6.470  -2.345  22.393  0.00  0.00    +0.000 C 
ATOM     13  C   UNL     1       5.597  -3.359  22.193  0.00  0.00    -0.017 C 
ATOM     14  C   UNL     1       8.068  -3.290  25.847  0.00  0.00    +0.013 C 
ATOM     15  C   UNL     1       5.672  -4.627  23.015  0.00  0.00    +0.018 C 
ATOM     16  C   UNL     1       6.705  -5.480  22.206  0.00  0.00    +0.019 C 
ATOM     17  C   UNL     1       4.440  -5.548  23.339  0.00  0.00    +0.072 C 
ATOM     18  C   UNL     1       3.130  -4.904  23.807  0.00  0.00    +0.042 C 
ATOM     19  C   UNL     1       5.020  -6.376  24.506  0.00  0.00    +0.035 C 
ATOM     20  C   UNL     1       5.787  -5.373  25.368  0.00  0.00    +0.008 C 
ENDROOT
BRANCH  17  21
ATOM     21  O   UNL     1       4.111  -6.409  22.245  0.00  0.00    -0.388 OA
ATOM     22  H   UNL     1       4.814  -7.091  22.220  0.00  0.00    +0.210 HD
ENDBRANCH  17  21
TORSDOF 1
ENDMDL
MODEL 5
REMARK VINA RESULT:      -6.9      1.869      6.393
REMARK  Name = 
REMARK  3 active torsions:
REMARK  status: ('A' for Active; 'I' for Inactive)
REMARK    1  A    between atoms: C_5  and  C_6
REMARK    2  A    between atoms: C_5  and  O_7
REMARK    3  A    between atoms: C_8  and  C_9
REMARK                            x       y       z     vdW  Elec       q    Type
REMARK                         _______ _______ _______ _____ _____    ______ ____
ROOT
ATOM      1  C   UNL     1       6.465  -2.813  24.560  0.00  0.00    +0.009 C 
ATOM      2  C   UNL     1       7.676  -1.893  24.748  0.00  0.00    +0.024 C 
ATOM      3  C   UNL     1       8.103  -1.340  23.367  0.00  0.00    -0.041 C 
ATOM      4  C   UNL     1       8.684  -0.119  23.248  0.00  0.00    -0.040 C 
ATOM      5  C   UNL     1       8.662   0.811  24.372  0.00  0.00    -0.041 C 
ATOM      6  C   UNL     1       7.570   0.579  25.393  0.00  0.00    +0.036 C 
ATOM      7  C   UNL     1       9.465   1.877  24.479  0.00  0.00    +0.050 C 
ATOM      8  C   UNL     1      10.353   2.255  23.365  0.00  0.00    +0.157 C 
ATOM      9  O   UNL     1      11.241   3.085  23.545  0.00  0.00    -0.293 OA
ATOM     10  C   UNL     1      10.004   1.740  21.993  0.00  0.00    +0.083 C 
ATOM     11  C   UNL     1       9.420   0.331  22.001  0.00  0.00    +0.043 C 
ATOM     12  C   UNL     1       7.829  -2.213  22.208  0.00  0.00    +0.000 C 
ATOM     13  C   UNL     1       7.153  -3.382  22.279  0.00  0.00    -0.017 C 
ATOM     14  C   UNL     1       7.538  -0.857  25.876  0.00  0.00    +0.013 C 
ATOM     15  C   UNL     1       6.806  -4.003  23.615  0.00  0.00    +0.018 C 
ATOM     16  C   UNL     1       8.093  -4.835  23.932  0.00  0.00    +0.019 C 
ATOM     17  C   UNL     1       5.562  -4.932  23.864  0.00  0.00    +0.072 C 
ATOM     18  C   UNL     1       4.197  -4.516  23.307  0.00  0.00    +0.042 C 
ATOM     19  C   UNL     1       5.493  -4.884  25.407  0.00  0.00    +0.035 C 
ATOM     20  C   UNL     1       5.756  -3.423  25.775  0.00  0.00    +0.008 C 
ENDROOT
BRANCH  17  21
ATOM     21  O   UNL     1       5.798  -6.274  23.428  0.00  0.00    -0.388 OA
ATOM     22  H   UNL     1       6.053  -6.776  24.229  0.00  0.00    +0.210 HD
ENDBRANCH  17  21
TORSDOF 1
ENDMDL
MODEL 6
REMARK VINA RESULT:      -6.8      1.743      6.344
REMARK  Name = 
REMARK  3 active torsions:
REMARK  status: ('A' for Active; 'I' for Inactive)
REMARK    1  A    between atoms: C_5  and  C_6
REMARK    2  A    between atoms: C_5  and  O_7
REMARK    3  A    between atoms: C_8  and  C_9
REMARK                            x       y       z     vdW  Elec       q    Type
REMARK                         _______ _______ _______ _____ _____    ______ ____
ROOT
ATOM      1  C   UNL     1       7.133  -1.848  23.946  0.00  0.00    +0.009 C 
ATOM      2  C   UNL     1       7.395  -0.413  24.419  0.00  0.00    +0.024 C 
ATOM      3  C   UNL     1       8.856  -0.034  24.076  0.00  0.00    -0.041 C 
ATOM      4  C   UNL     1       9.204   1.250  23.805  0.00  0.00    -0.040 C 
ATOM      5  C   UNL     1       8.169   2.247  23.554  0.00  0.00    -0.041 C 
ATOM      6  C   UNL     1       6.832   1.704  23.101  0.00  0.00    +0.036 C 
ATOM      7  C   UNL     1       8.375   3.569  23.603  0.00  0.00    +0.050 C 
ATOM      8  C   UNL     1       9.735   4.105  23.790  0.00  0.00    +0.157 C 
ATOM      9  O   UNL     1       9.892   5.294  24.058  0.00  0.00    -0.293 OA
ATOM     10  C   UNL     1      10.890   3.201  23.451  0.00  0.00    +0.083 C 
ATOM     11  C   UNL     1      10.640   1.736  23.798  0.00  0.00    +0.043 C 
ATOM     12  C   UNL     1       9.826  -1.148  24.055  0.00  0.00    +0.000 C 
ATOM     13  C   UNL     1       9.493  -2.449  24.210  0.00  0.00    -0.017 C 
ATOM     14  C   UNL     1       6.321   0.611  24.017  0.00  0.00    +0.013 C 
ATOM     15  C   UNL     1       8.099  -2.853  24.642  0.00  0.00    +0.018 C 
ATOM     16  C   UNL     1       8.210  -2.791  26.201  0.00  0.00    +0.019 C 
ATOM     17  C   UNL     1       7.414  -4.216  24.264  0.00  0.00    +0.072 C 
ATOM     18  C   UNL     1       7.490  -4.713  22.816  0.00  0.00    +0.042 C 
ATOM     19  C   UNL     1       5.942  -3.878  24.586  0.00  0.00    +0.035 C 
ATOM     20  C   UNL     1       5.731  -2.459  24.057  0.00  0.00    +0.008 C 
ENDROOT
BRANCH  17  21
ATOM     21  O   UNL     1       7.861  -5.290  25.095  0.00  0.00    -0.388 OA
ATOM     22  H   UNL     1       7.384  -6.087  24.785  0.00  0.00    +0.210 HD
ENDBRANCH  17  21
TORSDOF 1
ENDMDL
MODEL 7
REMARK VINA RESULT:      -6.8      1.395      2.725
REMARK  Name = 
REMARK  3 active torsions:
REMARK  status: ('A' for Active; 'I' for Inactive)
REMARK    1  A    between atoms: C_5  and  C_6
REMARK    2  A    between atoms: C_5  and  O_7
REMARK    3  A    between atoms: C_8  and  C_9
REMARK                            x       y       z     vdW  Elec       q    Type
REMARK                         _______ _______ _______ _____ _____    ______ ____
ROOT
ATOM      1  C   UNL     1       8.699  -0.543  24.417  0.00  0.00    +0.009 C 
ATOM      2  C   UNL     1       7.900  -1.484  25.325  0.00  0.00    +0.024 C 
ATOM      3  C   UNL     1       7.008  -2.390  24.443  0.00  0.00    -0.041 C 
ATOM      4  C   UNL     1       6.676  -3.647  24.837  0.00  0.00    -0.040 C 
ATOM      5  C   UNL     1       7.377  -4.269  25.955  0.00  0.00    -0.041 C 
ATOM      6  C   UNL     1       8.747  -3.706  26.263  0.00  0.00    +0.036 C 
ATOM      7  C   UNL     1       6.925  -5.338  26.621  0.00  0.00    +0.050 C 
ATOM      8  C   UNL     1       5.719  -6.048  26.161  0.00  0.00    +0.157 C 
ATOM      9  O   UNL     1       5.182  -6.878  26.890  0.00  0.00    -0.293 OA
ATOM     10  C   UNL     1       5.307  -5.857  24.725  0.00  0.00    +0.083 C 
ATOM     11  C   UNL     1       5.555  -4.446  24.201  0.00  0.00    +0.043 C 
ATOM     12  C   UNL     1       6.559  -1.808  23.162  0.00  0.00    +0.000 C 
ATOM     13  C   UNL     1       6.961  -0.606  22.691  0.00  0.00    -0.017 C 
ATOM     14  C   UNL     1       8.724  -2.198  26.408  0.00  0.00    +0.013 C 
ATOM     15  C   UNL     1       7.751   0.349  23.560  0.00  0.00    +0.018 C 
ATOM     16  C   UNL     1       6.615   1.125  24.306  0.00  0.00    +0.019 C 
ATOM     17  C   UNL     1       8.774   1.408  23.011  0.00  0.00    +0.072 C 
ATOM     18  C   UNL     1       9.791   0.981  21.947  0.00  0.00    +0.042 C 
ATOM     19  C   UNL     1       9.540   1.745  24.309  0.00  0.00    +0.035 C 
ATOM     20  C   UNL     1       9.751   0.402  25.009  0.00  0.00    +0.008 C 
ENDROOT
BRANCH  17  21
ATOM     21  O   UNL     1       8.120   2.579  22.513  0.00  0.00    -0.388 OA
ATOM     22  H   UNL     1       8.715   2.949  21.829  0.00  0.00    +0.210 HD
ENDBRANCH  17  21
TORSDOF 1
ENDMDL
MODEL 8
REMARK VINA RESULT:      -6.7      2.242      3.166
REMARK  Name = 
REMARK  3 active torsions:
REMARK  status: ('A' for Active; 'I' for Inactive)
REMARK    1  A    between atoms: C_5  and  C_6
REMARK    2  A    between atoms: C_5  and  O_7
REMARK    3  A    between atoms: C_8  and  C_9
REMARK                            x       y       z     vdW  Elec       q    Type
REMARK                         _______ _______ _______ _____ _____    ______ ____
ROOT
ATOM      1  C   UNL     1       7.499  -1.686  23.783  0.00  0.00    +0.009 C 
ATOM      2  C   UNL     1       6.967  -3.098  23.513  0.00  0.00    +0.024 C 
ATOM      3  C   UNL     1       6.797  -3.834  24.864  0.00  0.00    -0.041 C 
ATOM      4  C   UNL     1       5.842  -4.785  25.031  0.00  0.00    -0.040 C 
ATOM      5  C   UNL     1       4.781  -4.933  24.041  0.00  0.00    -0.041 C 
ATOM      6  C   UNL     1       4.507  -3.715  23.186  0.00  0.00    +0.036 C 
ATOM      7  C   UNL     1       4.002  -6.016  23.933  0.00  0.00    +0.050 C 
ATOM      8  C   UNL     1       4.092  -7.100  24.928  0.00  0.00    +0.157 C 
ATOM      9  O   UNL     1       3.548  -8.179  24.708  0.00  0.00    -0.293 OA
ATOM     10  C   UNL     1       4.691  -6.764  26.268  0.00  0.00    +0.083 C 
ATOM     11  C   UNL     1       5.840  -5.764  26.189  0.00  0.00    +0.043 C 
ATOM     12  C   UNL     1       7.722  -3.430  25.942  0.00  0.00    +0.000 C 
ATOM     13  C   UNL     1       8.607  -2.412  25.844  0.00  0.00    -0.017 C 
ATOM     14  C   UNL     1       5.770  -3.170  22.551  0.00  0.00    +0.013 C 
ATOM     15  C   UNL     1       8.872  -1.735  24.516  0.00  0.00    +0.018 C 
ATOM     16  C   UNL     1       9.990  -2.643  23.904  0.00  0.00    +0.019 C 
ATOM     17  C   UNL     1       9.332  -0.240  24.361  0.00  0.00    +0.072 C 
ATOM     18  C   UNL     1       8.621   0.848  25.173  0.00  0.00    +0.042 C 
ATOM     19  C   UNL     1       9.019  -0.013  22.866  0.00  0.00    +0.035 C 
ATOM     20  C   UNL     1       7.665  -0.685  22.634  0.00  0.00    +0.008 C 
ENDROOT
BRANCH  17  21
ATOM     21  O   UNL     1      10.735  -0.082  24.595  0.00  0.00    -0.388 OA
ATOM     22  H   UNL     1      11.134   0.100  23.720  0.00  0.00    +0.210 HD
ENDBRANCH  17  21
TORSDOF 1
ENDMDL
MODEL 9
REMARK VINA RESULT:      -6.7      1.784      6.741
REMARK  Name = 
REMARK  3 active torsions:
REMARK  status: ('A' for Active; 'I' for Inactive)
REMARK    1  A    between atoms: C_5  and  C_6
REMARK    2  A    between atoms: C_5  and  O_7
REMARK    3  A    between atoms: C_8  and  C_9
REMARK                            x       y       z     vdW  Elec       q    Type
REMARK                         _______ _______ _______ _____ _____    ______ ____
ROOT
ATOM      1  C   UNL     1       8.784  -1.814  24.604  0.00  0.00    +0.009 C 
ATOM      2  C   UNL     1       8.962  -0.475  23.879  0.00  0.00    +0.024 C 
ATOM      3  C   UNL     1       8.226   0.627  24.678  0.00  0.00    -0.041 C 
ATOM      4  C   UNL     1       8.663   1.913  24.669  0.00  0.00    -0.040 C 
ATOM      5  C   UNL     1       9.986   2.228  24.141  0.00  0.00    -0.041 C 
ATOM      6  C   UNL     1      10.974   1.083  24.123  0.00  0.00    +0.036 C 
ATOM      7  C   UNL     1      10.378   3.458  23.788  0.00  0.00    +0.050 C 
ATOM      8  C   UNL     1       9.508   4.620  24.045  0.00  0.00    +0.157 C 
ATOM      9  O   UNL     1       9.763   5.703  23.524  0.00  0.00    -0.293 OA
ATOM     10  C   UNL     1       8.443   4.470  25.099  0.00  0.00    +0.083 C 
ATOM     11  C   UNL     1       7.816   3.080  25.139  0.00  0.00    +0.043 C 
ATOM     12  C   UNL     1       7.042   0.189  25.445  0.00  0.00    +0.000 C 
ATOM     13  C   UNL     1       6.647  -1.098  25.565  0.00  0.00    -0.017 C 
ATOM     14  C   UNL     1      10.404  -0.151  23.455  0.00  0.00    +0.013 C 
ATOM     15  C   UNL     1       7.277  -2.189  24.726  0.00  0.00    +0.018 C 
ATOM     16  C   UNL     1       6.410  -2.142  23.424  0.00  0.00    +0.019 C 
ATOM     17  C   UNL     1       7.392  -3.693  25.169  0.00  0.00    +0.072 C 
ATOM     18  C   UNL     1       7.876  -4.018  26.586  0.00  0.00    +0.042 C 
ATOM     19  C   UNL     1       8.456  -4.191  24.166  0.00  0.00    +0.035 C 
ATOM     20  C   UNL     1       9.497  -3.073  24.098  0.00  0.00    +0.008 C 
ENDROOT
BRANCH  17  21
ATOM     21  O   UNL     1       6.167  -4.406  24.975  0.00  0.00    -0.388 OA
ATOM     22  H   UNL     1       5.452  -3.752  25.111  0.00  0.00    +0.210 HD
ENDBRANCH  17  21
TORSDOF 1
ENDMDL
