MODEL 1
REMARK VINA RESULT:      -6.8      0.000      0.000
REMARK  Name = 
REMARK  5 active torsions:
REMARK  status: ('A' for Active; 'I' for Inactive)
REMARK    1  A    between atoms: C_1  and  C_2
REMARK    2  A    between atoms: C_2  and  C_3
REMARK    3  A    between atoms: C_2  and  C_6
REMARK    4  A    between atoms: C_3  and  O_4
REMARK    5  A    between atoms: C_9  and  N_12
REMARK                            x       y       z     vdW  Elec       q    Type
REMARK                         _______ _______ _______ _____ _____    ______ ____
ROOT
ATOM      1  C   UNL     1       8.236  -2.640  24.642  0.00  0.00    -0.034 A 
ATOM      2  C   UNL     1       8.674  -1.859  25.721  0.00  0.00    +0.006 A 
ATOM      3  C   UNL     1       9.035  -0.519  25.535  0.00  0.00    +0.024 A 
ATOM      4  C   UNL     1       9.010   0.077  24.266  0.00  0.00    +0.037 A 
ATOM      5  C   UNL     1       8.574  -0.711  23.195  0.00  0.00    +0.024 A 
ATOM      6  C   UNL     1       8.187  -2.045  23.376  0.00  0.00    +0.006 A 
ENDROOT
BRANCH   4   7
ATOM      7  N   UNL     1       9.421   1.425  24.082  0.00  0.00    -0.263 N 
ATOM      8  C   UNL     1       8.640   2.564  24.303  0.00  0.00    +0.251 C 
ATOM      9  O   UNL     1       7.481   2.688  24.654  0.00  0.00    -0.270 OA
ATOM     10  C   UNL     1       9.488   3.728  24.029  0.00  0.00    +0.042 A 
ATOM     11  C   UNL     1      10.743   3.279  23.638  0.00  0.00    -0.018 A 
ATOM     12  C   UNL     1      11.744   4.188  23.342  0.00  0.00    +0.006 A 
ATOM     13  C   UNL     1      11.453   5.553  23.456  0.00  0.00    +0.000 A 
ATOM     14  C   UNL     1      10.175   5.992  23.852  0.00  0.00    +0.001 A 
ATOM     15  C   UNL     1       9.172   5.069  24.143  0.00  0.00    +0.013 A 
ATOM     16  C   UNL     1      10.759   1.786  23.621  0.00  0.00    +0.149 C 
ENDBRANCH   4   7
BRANCH   1  18
ATOM     17  C   UNL     1       7.539  -4.666  23.399  0.00  0.00    +0.024 C 
ATOM     18  C   UNL     1       7.930  -4.127  24.779  0.00  0.00    +0.124 C 
BRANCH  18  19
ATOM     19  C   UNL     1       9.028  -4.994  25.392  0.00  0.00    +0.312 C 
ATOM     20  O   UNL     1      10.193  -4.979  25.015  0.00  0.00    -0.250 OA
BRANCH  19  21
ATOM     21  O   UNL     1       8.622  -5.862  26.346  0.00  0.00    -0.480 OA
ATOM     22  H   UNL     1       9.351  -6.304  26.821  0.00  0.00    +0.295 HD
ENDBRANCH  19  21
ENDBRANCH  18  19
ENDBRANCH   1  18
TORSDOF 4
ENDMDL
MODEL 2
REMARK VINA RESULT:      -6.6      2.342      7.851
REMARK  Name = 
REMARK  5 active torsions:
REMARK  status: ('A' for Active; 'I' for Inactive)
REMARK    1  A    between atoms: C_1  and  C_2
REMARK    2  A    between atoms: C_2  and  C_3
REMARK    3  A    between atoms: C_2  and  C_6
REMARK    4  A    between atoms: C_3  and  O_4
REMARK    5  A    between atoms: C_9  and  N_12
REMARK                            x       y       z     vdW  Elec       q    Type
REMARK                         _______ _______ _______ _____ _____    ______ ____
ROOT
ATOM      1  C   UNL     1      10.273   4.232  23.821  0.00  0.00    -0.034 A 
ATOM      2  C   UNL     1      11.053   3.164  23.357  0.00  0.00    +0.006 A 
ATOM      3  C   UNL     1      10.634   1.840  23.538  0.00  0.00    +0.024 A 
ATOM      4  C   UNL     1       9.447   1.534  24.218  0.00  0.00    +0.037 A 
ATOM      5  C   UNL     1       8.676   2.606  24.680  0.00  0.00    +0.024 A 
ATOM      6  C   UNL     1       9.075   3.934  24.481  0.00  0.00    +0.006 A 
ENDROOT
BRANCH   4   7
ATOM      7  N   UNL     1       9.054   0.185  24.436  0.00  0.00    -0.263 N 
ATOM      8  C   UNL     1       8.705  -0.742  23.448  0.00  0.00    +0.251 C 
ATOM      9  O   UNL     1       8.623  -0.636  22.238  0.00  0.00    -0.270 OA
ATOM     10  C   UNL     1       8.419  -2.009  24.128  0.00  0.00    +0.042 A 
ATOM     11  C   UNL     1       8.582  -1.824  25.496  0.00  0.00    -0.018 A 
ATOM     12  C   UNL     1       8.391  -2.882  26.367  0.00  0.00    +0.006 A 
ATOM     13  C   UNL     1       8.041  -4.127  25.828  0.00  0.00    +0.000 A 
ATOM     14  C   UNL     1       7.879  -4.298  24.441  0.00  0.00    +0.001 A 
ATOM     15  C   UNL     1       8.068  -3.225  23.572  0.00  0.00    +0.013 A 
ATOM     16  C   UNL     1       8.966  -0.407  25.767  0.00  0.00    +0.149 C 
ENDBRANCH   4   7
BRANCH   1  18
ATOM     17  C   UNL     1      10.115   6.455  24.903  0.00  0.00    +0.024 C 
ATOM     18  C   UNL     1      10.737   5.682  23.735  0.00  0.00    +0.124 C 
BRANCH  18  19
ATOM     19  C   UNL     1      12.246   5.911  23.695  0.00  0.00    +0.312 C 
ATOM     20  O   UNL     1      12.948   5.638  22.729  0.00  0.00    -0.250 OA
BRANCH  19  21
ATOM     21  O   UNL     1      12.797   6.369  24.842  0.00  0.00    -0.480 OA
ATOM     22  H   UNL     1      12.168   6.447  25.585  0.00  0.00    +0.295 HD
ENDBRANCH  19  21
ENDBRANCH  18  19
ENDBRANCH   1  18
TORSDOF 4
ENDMDL
MODEL 3
REMARK VINA RESULT:      -6.5      2.404      3.058
REMARK  Name = 
REMARK  5 active torsions:
REMARK  status: ('A' for Active; 'I' for Inactive)
REMARK    1  A    between atoms: C_1  and  C_2
REMARK    2  A    between atoms: C_2  and  C_3
REMARK    3  A    between atoms: C_2  and  C_6
REMARK    4  A    between atoms: C_3  and  O_4
REMARK    5  A    between atoms: C_9  and  N_12
REMARK                            x       y       z     vdW  Elec       q    Type
REMARK                         _______ _______ _______ _____ _____    ______ ____
ROOT
ATOM      1  C   UNL     1       7.532  -2.505  22.753  0.00  0.00    -0.034 A 
ATOM      2  C   UNL     1       6.605  -1.717  23.450  0.00  0.00    +0.006 A 
ATOM      3  C   UNL     1       6.734  -0.324  23.486  0.00  0.00    +0.024 A 
ATOM      4  C   UNL     1       7.807   0.329  22.864  0.00  0.00    +0.037 A 
ATOM      5  C   UNL     1       8.729  -0.466  22.172  0.00  0.00    +0.024 A 
ATOM      6  C   UNL     1       8.593  -1.858  22.110  0.00  0.00    +0.006 A 
ENDROOT
BRANCH   4   7
ATOM      7  N   UNL     1       7.953   1.741  22.944  0.00  0.00    -0.263 N 
ATOM      8  C   UNL     1       8.916   2.430  23.688  0.00  0.00    +0.251 C 
ATOM      9  O   UNL     1       9.796   2.032  24.429  0.00  0.00    -0.270 OA
ATOM     10  C   UNL     1       8.715   3.860  23.434  0.00  0.00    +0.042 A 
ATOM     11  C   UNL     1       7.639   4.008  22.568  0.00  0.00    -0.018 A 
ATOM     12  C   UNL     1       7.254   5.270  22.149  0.00  0.00    +0.006 A 
ATOM     13  C   UNL     1       7.980   6.372  22.618  0.00  0.00    +0.000 A 
ATOM     14  C   UNL     1       9.066   6.205  23.497  0.00  0.00    +0.001 A 
ATOM     15  C   UNL     1       9.444   4.931  23.917  0.00  0.00    +0.013 A 
ATOM     16  C   UNL     1       7.076   2.666  22.233  0.00  0.00    +0.149 C 
ENDBRANCH   4   7
BRANCH   1  18
ATOM     17  C   UNL     1       7.066  -4.481  24.174  0.00  0.00    +0.024 C 
ATOM     18  C   UNL     1       7.487  -4.029  22.771  0.00  0.00    +0.124 C 
BRANCH  18  19
ATOM     19  C   UNL     1       6.607  -4.695  21.716  0.00  0.00    +0.312 C 
ATOM     20  O   UNL     1       6.684  -5.880  21.417  0.00  0.00    -0.250 OA
BRANCH  19  21
ATOM     21  O   UNL     1       5.765  -3.870  21.053  0.00  0.00    -0.480 OA
ATOM     22  H   UNL     1       4.945  -4.299  20.743  0.00  0.00    +0.295 HD
ENDBRANCH  19  21
ENDBRANCH  18  19
ENDBRANCH   1  18
TORSDOF 4
ENDMDL
MODEL 4
REMARK VINA RESULT:      -6.5      3.319      8.370
REMARK  Name = 
REMARK  5 active torsions:
REMARK  status: ('A' for Active; 'I' for Inactive)
REMARK    1  A    between atoms: C_1  and  C_2
REMARK    2  A    between atoms: C_2  and  C_3
REMARK    3  A    between atoms: C_2  and  C_6
REMARK    4  A    between atoms: C_3  and  O_4
REMARK    5  A    between atoms: C_9  and  N_12
REMARK                            x       y       z     vdW  Elec       q    Type
REMARK                         _______ _______ _______ _____ _____    ______ ____
ROOT
ATOM      1  C   UNL     1       9.169  -0.711  23.053  0.00  0.00    -0.034 A 
ATOM      2  C   UNL     1       9.582  -2.040  23.216  0.00  0.00    +0.006 A 
ATOM      3  C   UNL     1       8.650  -3.054  23.469  0.00  0.00    +0.024 A 
ATOM      4  C   UNL     1       7.283  -2.775  23.607  0.00  0.00    +0.037 A 
ATOM      5  C   UNL     1       6.880  -1.445  23.445  0.00  0.00    +0.024 A 
ATOM      6  C   UNL     1       7.803  -0.428  23.166  0.00  0.00    +0.006 A 
ENDROOT
BRANCH   4   7
ATOM      7  N   UNL     1       6.352  -3.805  23.908  0.00  0.00    -0.263 N 
ATOM      8  C   UNL     1       5.337  -4.273  23.066  0.00  0.00    +0.251 C 
ATOM      9  O   UNL     1       4.993  -3.925  21.952  0.00  0.00    -0.270 OA
ATOM     10  C   UNL     1       4.660  -5.364  23.773  0.00  0.00    +0.042 A 
ATOM     11  C   UNL     1       5.257  -5.524  25.018  0.00  0.00    -0.018 A 
ATOM     12  C   UNL     1       4.814  -6.513  25.878  0.00  0.00    +0.006 A 
ATOM     13  C   UNL     1       3.763  -7.336  25.454  0.00  0.00    +0.000 A 
ATOM     14  C   UNL     1       3.168  -7.161  24.191  0.00  0.00    +0.001 A 
ATOM     15  C   UNL     1       3.618  -6.159  23.333  0.00  0.00    +0.013 A 
ATOM     16  C   UNL     1       6.348  -4.518  25.182  0.00  0.00    +0.149 C 
ENDBRANCH   4   7
BRANCH   1  18
ATOM     17  C   UNL     1       9.681   1.302  21.703  0.00  0.00    +0.024 C 
ATOM     18  C   UNL     1      10.156   0.437  22.876  0.00  0.00    +0.124 C 
BRANCH  18  19
ATOM     19  C   UNL     1      10.412   1.308  24.103  0.00  0.00    +0.312 C 
ATOM     20  O   UNL     1      10.604   2.516  24.051  0.00  0.00    -0.250 OA
BRANCH  19  21
ATOM     21  O   UNL     1      10.497   0.647  25.280  0.00  0.00    -0.480 OA
ATOM     22  H   UNL     1      11.252   0.916  25.838  0.00  0.00    +0.295 HD
ENDBRANCH  19  21
ENDBRANCH  18  19
ENDBRANCH   1  18
TORSDOF 4
ENDMDL
MODEL 5
REMARK VINA RESULT:      -6.4      2.880      4.241
REMARK  Name = 
REMARK  5 active torsions:
REMARK  status: ('A' for Active; 'I' for Inactive)
REMARK    1  A    between atoms: C_1  and  C_2
REMARK    2  A    between atoms: C_2  and  C_3
REMARK    3  A    between atoms: C_2  and  C_6
REMARK    4  A    between atoms: C_3  and  O_4
REMARK    5  A    between atoms: C_9  and  N_12
REMARK                            x       y       z     vdW  Elec       q    Type
REMARK                         _______ _______ _______ _____ _____    ______ ____
ROOT
ATOM      1  C   UNL     1       5.837  -5.158  25.404  0.00  0.00    -0.034 A 
ATOM      2  C   UNL     1       7.234  -5.144  25.297  0.00  0.00    +0.006 A 
ATOM      3  C   UNL     1       7.912  -3.979  24.918  0.00  0.00    +0.024 A 
ATOM      4  C   UNL     1       7.221  -2.803  24.594  0.00  0.00    +0.037 A 
ATOM      5  C   UNL     1       5.826  -2.827  24.701  0.00  0.00    +0.024 A 
ATOM      6  C   UNL     1       5.142  -3.980  25.104  0.00  0.00    +0.006 A 
ENDROOT
BRANCH   4   7
ATOM      7  N   UNL     1       7.917  -1.639  24.167  0.00  0.00    -0.263 N 
ATOM      8  C   UNL     1       8.642  -0.764  24.983  0.00  0.00    +0.251 C 
ATOM      9  O   UNL     1       8.826  -0.755  26.186  0.00  0.00    -0.270 OA
ATOM     10  C   UNL     1       9.222   0.259  24.109  0.00  0.00    +0.042 A 
ATOM     11  C   UNL     1       8.830  -0.001  22.801  0.00  0.00    -0.018 A 
ATOM     12  C   UNL     1       9.267   0.813  21.771  0.00  0.00    +0.006 A 
ATOM     13  C   UNL     1      10.109   1.887  22.088  0.00  0.00    +0.000 A 
ATOM     14  C   UNL     1      10.495   2.138  23.418  0.00  0.00    +0.001 A 
ATOM     15  C   UNL     1      10.047   1.316  24.450  0.00  0.00    +0.013 A 
ATOM     16  C   UNL     1       7.952  -1.208  22.773  0.00  0.00    +0.149 C 
ENDBRANCH   4   7
BRANCH   1  18
ATOM     17  C   UNL     1       4.013  -6.098  26.793  0.00  0.00    +0.024 C 
ATOM     18  C   UNL     1       5.052  -6.428  25.715  0.00  0.00    +0.124 C 
BRANCH  18  19
ATOM     19  C   UNL     1       4.382  -7.120  24.531  0.00  0.00    +0.312 C 
ATOM     20  O   UNL     1       3.453  -7.911  24.643  0.00  0.00    -0.250 OA
BRANCH  19  21
ATOM     21  O   UNL     1       4.932  -6.869  23.321  0.00  0.00    -0.480 OA
ATOM     22  H   UNL     1       5.908  -6.834  23.324  0.00  0.00    +0.295 HD
ENDBRANCH  19  21
ENDBRANCH  18  19
ENDBRANCH   1  18
TORSDOF 4
ENDMDL
MODEL 6
REMARK VINA RESULT:      -6.4      2.315      7.870
REMARK  Name = 
REMARK  5 active torsions:
REMARK  status: ('A' for Active; 'I' for Inactive)
REMARK    1  A    between atoms: C_1  and  C_2
REMARK    2  A    between atoms: C_2  and  C_3
REMARK    3  A    between atoms: C_2  and  C_6
REMARK    4  A    between atoms: C_3  and  O_4
REMARK    5  A    between atoms: C_9  and  N_12
REMARK                            x       y       z     vdW  Elec       q    Type
REMARK                         _______ _______ _______ _____ _____    ______ ____
ROOT
ATOM      1  C   UNL     1       9.742   3.832  23.987  0.00  0.00    -0.034 A 
ATOM      2  C   UNL     1      10.568   2.920  23.317  0.00  0.00    +0.006 A 
ATOM      3  C   UNL     1      10.265   1.553  23.307  0.00  0.00    +0.024 A 
ATOM      4  C   UNL     1       9.154   1.044  23.995  0.00  0.00    +0.037 A 
ATOM      5  C   UNL     1       8.337   1.962  24.663  0.00  0.00    +0.024 A 
ATOM      6  C   UNL     1       8.618   3.334  24.657  0.00  0.00    +0.006 A 
ENDROOT
BRANCH   4   7
ATOM      7  N   UNL     1       8.881  -0.351  24.016  0.00  0.00    -0.263 N 
ATOM      8  C   UNL     1       7.850  -1.001  23.329  0.00  0.00    +0.251 C 
ATOM      9  O   UNL     1       6.964  -0.570  22.614  0.00  0.00    -0.270 OA
ATOM     10  C   UNL     1       7.983  -2.434  23.608  0.00  0.00    +0.042 A 
ATOM     11  C   UNL     1       9.066  -2.621  24.458  0.00  0.00    -0.018 A 
ATOM     12  C   UNL     1       9.421  -3.897  24.859  0.00  0.00    +0.006 A 
ATOM     13  C   UNL     1       8.666  -4.975  24.379  0.00  0.00    +0.000 A 
ATOM     14  C   UNL     1       7.571  -4.769  23.519  0.00  0.00    +0.001 A 
ATOM     15  C   UNL     1       7.217  -3.479  23.125  0.00  0.00    +0.013 A 
ATOM     16  C   UNL     1       9.678  -1.300  24.788  0.00  0.00    +0.149 C 
ENDBRANCH   4   7
BRANCH   1  18
ATOM     17  C   UNL     1      11.419   5.555  23.390  0.00  0.00    +0.024 C 
ATOM     18  C   UNL     1      10.087   5.313  24.108  0.00  0.00    +0.124 C 
BRANCH  18  19
ATOM     19  C   UNL     1       9.032   6.298  23.609  0.00  0.00    +0.312 C 
ATOM     20  O   UNL     1       8.464   7.108  24.331  0.00  0.00    -0.250 OA
BRANCH  19  21
ATOM     21  O   UNL     1       8.689   6.176  22.306  0.00  0.00    -0.480 OA
ATOM     22  H   UNL     1       8.957   5.329  21.900  0.00  0.00    +0.295 HD
ENDBRANCH  19  21
ENDBRANCH  18  19
ENDBRANCH   1  18
TORSDOF 4
ENDMDL
MODEL 7
REMARK VINA RESULT:      -6.4      2.790      4.158
REMARK  Name = 
REMARK  5 active torsions:
REMARK  status: ('A' for Active; 'I' for Inactive)
REMARK    1  A    between atoms: C_1  and  C_2
REMARK    2  A    between atoms: C_2  and  C_3
REMARK    3  A    between atoms: C_2  and  C_6
REMARK    4  A    between atoms: C_3  and  O_4
REMARK    5  A    between atoms: C_9  and  N_12
REMARK                            x       y       z     vdW  Elec       q    Type
REMARK                         _______ _______ _______ _____ _____    ______ ____
ROOT
ATOM      1  C   UNL     1       6.138  -4.600  26.897  0.00  0.00    -0.034 A 
ATOM      2  C   UNL     1       7.189  -4.896  26.018  0.00  0.00    +0.006 A 
ATOM      3  C   UNL     1       7.877  -3.873  25.354  0.00  0.00    +0.024 A 
ATOM      4  C   UNL     1       7.518  -2.527  25.512  0.00  0.00    +0.037 A 
ATOM      5  C   UNL     1       6.465  -2.241  26.388  0.00  0.00    +0.024 A 
ATOM      6  C   UNL     1       5.789  -3.256  27.076  0.00  0.00    +0.006 A 
ENDROOT
BRANCH   4   7
ATOM      7  N   UNL     1       8.194  -1.500  24.798  0.00  0.00    -0.263 N 
ATOM      8  C   UNL     1       8.144  -1.284  23.417  0.00  0.00    +0.251 C 
ATOM      9  O   UNL     1       7.576  -1.892  22.528  0.00  0.00    -0.270 OA
ATOM     10  C   UNL     1       8.952  -0.094  23.137  0.00  0.00    +0.042 A 
ATOM     11  C   UNL     1       9.483   0.372  24.334  0.00  0.00    -0.018 A 
ATOM     12  C   UNL     1      10.273   1.509  24.347  0.00  0.00    +0.006 A 
ATOM     13  C   UNL     1      10.509   2.164  23.131  0.00  0.00    +0.000 A 
ATOM     14  C   UNL     1       9.965   1.678  21.928  0.00  0.00    +0.001 A 
ATOM     15  C   UNL     1       9.175   0.530  21.923  0.00  0.00    +0.013 A 
ATOM     16  C   UNL     1       9.052  -0.517  25.453  0.00  0.00    +0.149 C 
ENDBRANCH   4   7
BRANCH   1  18
ATOM     17  C   UNL     1       4.902  -6.709  26.493  0.00  0.00    +0.024 C 
ATOM     18  C   UNL     1       5.298  -5.685  27.562  0.00  0.00    +0.124 C 
BRANCH  18  19
ATOM     19  C   UNL     1       5.927  -6.391  28.761  0.00  0.00    +0.312 C 
ATOM     20  O   UNL     1       6.101  -7.601  28.822  0.00  0.00    -0.250 OA
BRANCH  19  21
ATOM     21  O   UNL     1       6.219  -5.598  29.818  0.00  0.00    -0.480 OA
ATOM     22  H   UNL     1       5.509  -5.546  30.487  0.00  0.00    +0.295 HD
ENDBRANCH  19  21
ENDBRANCH  18  19
ENDBRANCH   1  18
TORSDOF 4
ENDMDL
MODEL 8
REMARK VINA RESULT:      -6.3      2.998      8.316
REMARK  Name = 
REMARK  5 active torsions:
REMARK  status: ('A' for Active; 'I' for Inactive)
REMARK    1  A    between atoms: C_1  and  C_2
REMARK    2  A    between atoms: C_2  and  C_3
REMARK    3  A    between atoms: C_2  and  C_6
REMARK    4  A    between atoms: C_3  and  O_4
REMARK    5  A    between atoms: C_9  and  N_12
REMARK                            x       y       z     vdW  Elec       q    Type
REMARK                         _______ _______ _______ _____ _____    ______ ____
ROOT
ATOM      1  C   UNL     1       9.317  -0.774  23.190  0.00  0.00    -0.034 A 
ATOM      2  C   UNL     1       9.842  -2.043  23.472  0.00  0.00    +0.006 A 
ATOM      3  C   UNL     1       9.003  -3.096  23.857  0.00  0.00    +0.024 A 
ATOM      4  C   UNL     1       7.622  -2.913  24.010  0.00  0.00    +0.037 A 
ATOM      5  C   UNL     1       7.107  -1.643  23.729  0.00  0.00    +0.024 A 
ATOM      6  C   UNL     1       7.936  -0.590  23.319  0.00  0.00    +0.006 A 
ENDROOT
BRANCH   4   7
ATOM      7  N   UNL     1       6.786  -3.977  24.445  0.00  0.00    -0.263 N 
ATOM      8  C   UNL     1       6.533  -4.339  25.772  0.00  0.00    +0.251 C 
ATOM      9  O   UNL     1       6.955  -3.890  26.822  0.00  0.00    -0.270 OA
ATOM     10  C   UNL     1       5.583  -5.455  25.741  0.00  0.00    +0.042 A 
ATOM     11  C   UNL     1       5.295  -5.755  24.415  0.00  0.00    -0.018 A 
ATOM     12  C   UNL     1       4.399  -6.764  24.110  0.00  0.00    +0.006 A 
ATOM     13  C   UNL     1       3.798  -7.457  25.169  0.00  0.00    +0.000 A 
ATOM     14  C   UNL     1       4.101  -7.142  26.507  0.00  0.00    +0.001 A 
ATOM     15  C   UNL     1       5.008  -6.127  26.804  0.00  0.00    +0.013 A 
ATOM     16  C   UNL     1       6.071  -4.848  23.517  0.00  0.00    +0.149 C 
ENDBRANCH   4   7
BRANCH   1  18
ATOM     17  C   UNL     1       9.531   1.228  21.746  0.00  0.00    +0.024 C 
ATOM     18  C   UNL     1      10.202   0.424  22.866  0.00  0.00    +0.124 C 
BRANCH  18  19
ATOM     19  C   UNL     1      10.557   1.342  24.033  0.00  0.00    +0.312 C 
ATOM     20  O   UNL     1      10.780   2.540  23.911  0.00  0.00    -0.250 OA
BRANCH  19  21
ATOM     21  O   UNL     1      10.693   0.733  25.233  0.00  0.00    -0.480 OA
ATOM     22  H   UNL     1       9.961   0.128  25.461  0.00  0.00    +0.295 HD
ENDBRANCH  19  21
ENDBRANCH  18  19
ENDBRANCH   1  18
TORSDOF 4
ENDMDL
MODEL 9
REMARK VINA RESULT:      -6.3      1.149      2.093
REMARK  Name = 
REMARK  5 active torsions:
REMARK  status: ('A' for Active; 'I' for Inactive)
REMARK    1  A    between atoms: C_1  and  C_2
REMARK    2  A    between atoms: C_2  and  C_3
REMARK    3  A    between atoms: C_2  and  C_6
REMARK    4  A    between atoms: C_3  and  O_4
REMARK    5  A    between atoms: C_9  and  N_12
REMARK                            x       y       z     vdW  Elec       q    Type
REMARK                         _______ _______ _______ _____ _____    ______ ____
ROOT
ATOM      1  C   UNL     1       8.095  -2.911  24.239  0.00  0.00    -0.034 A 
ATOM      2  C   UNL     1       8.517  -2.324  23.039  0.00  0.00    +0.006 A 
ATOM      3  C   UNL     1       8.791  -0.953  22.969  0.00  0.00    +0.024 A 
ATOM      4  C   UNL     1       8.618  -0.115  24.080  0.00  0.00    +0.037 A 
ATOM      5  C   UNL     1       8.194  -0.709  25.273  0.00  0.00    +0.024 A 
ATOM      6  C   UNL     1       7.942  -2.084  25.358  0.00  0.00    +0.006 A 
ENDROOT
BRANCH   4   7
ATOM      7  N   UNL     1       8.856   1.284  23.986  0.00  0.00    -0.263 N 
ATOM      8  C   UNL     1      10.106   1.912  24.017  0.00  0.00    +0.251 C 
ATOM      9  O   UNL     1      11.229   1.462  24.153  0.00  0.00    -0.270 OA
ATOM     10  C   UNL     1       9.870   3.348  23.842  0.00  0.00    +0.042 A 
ATOM     11  C   UNL     1       8.502   3.562  23.727  0.00  0.00    -0.018 A 
ATOM     12  C   UNL     1       8.013   4.842  23.530  0.00  0.00    +0.006 A 
ATOM     13  C   UNL     1       8.933   5.895  23.446  0.00  0.00    +0.000 A 
ATOM     14  C   UNL     1      10.316   5.662  23.566  0.00  0.00    +0.001 A 
ATOM     15  C   UNL     1      10.799   4.370  23.769  0.00  0.00    +0.013 A 
ATOM     16  C   UNL     1       7.780   2.260  23.843  0.00  0.00    +0.149 C 
ENDBRANCH   4   7
BRANCH   1  18
ATOM     17  C   UNL     1       7.604  -4.946  22.914  0.00  0.00    +0.024 C 
ATOM     18  C   UNL     1       7.690  -4.378  24.335  0.00  0.00    +0.124 C 
BRANCH  18  19
ATOM     19  C   UNL     1       8.571  -5.270  25.207  0.00  0.00    +0.312 C 
ATOM     20  O   UNL     1       8.250  -5.660  26.322  0.00  0.00    -0.250 OA
BRANCH  19  21
ATOM     21  O   UNL     1       9.794  -5.553  24.702  0.00  0.00    -0.480 OA
ATOM     22  H   UNL     1      10.528  -5.414  25.331  0.00  0.00    +0.295 HD
ENDBRANCH  19  21
ENDBRANCH  18  19
ENDBRANCH   1  18
TORSDOF 4
ENDMDL
