MODEL 1
REMARK VINA RESULT:      -6.8      0.000      0.000
REMARK  Name = 
REMARK  11 active torsions:
REMARK  status: ('A' for Active; 'I' for Inactive)
REMARK    1  A    between atoms: C_7  and  C_9
REMARK    2  A    between atoms: N_11  and  C_12
REMARK    3  A    between atoms: C_12  and  C_13
REMARK    4  A    between atoms: C_13  and  O_14
REMARK    5  A    between atoms: O_14  and  C_15
REMARK    6  A    between atoms: C_15  and  C_16
REMARK    7  A    between atoms: C_16  and  O_17
REMARK    8  A    between atoms: O_17  and  C_18
REMARK    9  A    between atoms: C_18  and  C_19
REMARK   10  A    between atoms: C_19  and  N_20
REMARK   11  A    between atoms: C_21  and  C_23
REMARK                            x       y       z     vdW  Elec       q    Type
REMARK                         _______ _______ _______ _____ _____    ______ ____
ROOT
ATOM      1  C   UNL     1       5.749  -5.719  26.271  0.00  0.00    +0.188 C 
ENDROOT
BRANCH   1   2
ATOM      2  O   UNL     1       4.845  -5.012  27.133  0.00  0.00    -0.376 OA
BRANCH   2   3
ATOM      3  C   UNL     1       5.110  -3.614  27.199  0.00  0.00    +0.178 C 
BRANCH   3   4
ATOM      4  C   UNL     1       6.490  -3.310  26.621  0.00  0.00    +0.132 C 
BRANCH   4   6
ATOM      5  C   UNL     1       6.105  -1.495  24.974  0.00  0.00    +0.260 C 
ATOM      6  N   UNL     1       6.615  -1.935  26.176  0.00  0.00    -0.308 N 
ATOM      7  H   UNL     1       7.134  -1.295  26.757  0.00  0.00    +0.149 HD
ATOM      8  O   UNL     1       5.463  -2.213  24.215  0.00  0.00    -0.269 OA
BRANCH   5  16
ATOM      9 CL   UNL     1       8.582   5.681  23.780  0.00  0.00    -0.084 Cl
ATOM     10  C   UNL     1       7.775   4.167  23.618  0.00  0.00    +0.042 A 
ATOM     11  C   UNL     1       7.179   3.831  22.404  0.00  0.00    +0.022 A 
ATOM     12  C   UNL     1       6.544   2.596  22.233  0.00  0.00    +0.027 A 
ATOM     13  C   UNL     1       6.558   1.713  23.317  0.00  0.00    +0.047 A 
ATOM     14  N   UNL     1       6.067   0.431  23.434  0.00  0.00    -0.351 N 
ATOM     15  H   UNL     1       5.597  -0.084  22.701  0.00  0.00    +0.166 HD
ATOM     16  C   UNL     1       6.386  -0.111  24.662  0.00  0.00    +0.103 A 
ATOM     17  C   UNL     1       6.986   0.900  25.390  0.00  0.00    +0.041 A 
ATOM     18  C   UNL     1       7.140   2.031  24.543  0.00  0.00    +0.002 A 
ATOM     19  C   UNL     1       7.752   3.288  24.703  0.00  0.00    +0.030 A 
ENDBRANCH   5  16
ENDBRANCH   4   6
ENDBRANCH   3   4
ENDBRANCH   2   3
ENDBRANCH   1   2
BRANCH   1  20
ATOM     20  C   UNL     1       5.099  -6.329  25.020  0.00  0.00    +0.188 C 
BRANCH  20  21
ATOM     21  O   UNL     1       4.736  -5.301  24.097  0.00  0.00    -0.376 OA
BRANCH  21  22
ATOM     22  C   UNL     1       5.054  -5.623  22.741  0.00  0.00    +0.178 C 
BRANCH  22  23
ATOM     23  C   UNL     1       6.564  -5.648  22.483  0.00  0.00    +0.132 C 
BRANCH  23  24
ATOM     24  N   UNL     1       7.188  -4.350  22.615  0.00  0.00    -0.308 N 
ATOM     25  H   UNL     1       6.907  -3.631  21.969  0.00  0.00    +0.149 HD
ATOM     26  C   UNL     1       8.265  -4.135  23.442  0.00  0.00    +0.260 C 
ATOM     27  O   UNL     1       8.694  -4.993  24.209  0.00  0.00    -0.269 OA
BRANCH  26  28
ATOM     28  C   UNL     1       8.892  -2.839  23.299  0.00  0.00    +0.103 A 
ATOM     29  N   UNL     1       8.793  -2.106  22.134  0.00  0.00    -0.351 N 
ATOM     30  H   UNL     1       8.317  -2.436  21.304  0.00  0.00    +0.166 HD
ATOM     31  C   UNL     1       9.332  -0.850  22.296  0.00  0.00    +0.047 A 
ATOM     32  C   UNL     1       9.368   0.244  21.422  0.00  0.00    +0.027 A 
ATOM     33  C   UNL     1       9.953   1.426  21.893  0.00  0.00    +0.022 A 
ATOM     34  C   UNL     1      10.498   1.492  23.173  0.00  0.00    +0.042 A 
ATOM     35  C   UNL     1      10.483   0.383  24.024  0.00  0.00    +0.030 A 
ATOM     36 CL   UNL     1      11.181   2.972  23.733  0.00  0.00    -0.084 Cl
ATOM     37  C   UNL     1       9.874  -0.804  23.578  0.00  0.00    +0.002 A 
ATOM     38  C   UNL     1       9.633  -2.069  24.179  0.00  0.00    +0.041 A 
ENDBRANCH  26  28
ENDBRANCH  23  24
ENDBRANCH  22  23
ENDBRANCH  21  22
ENDBRANCH  20  21
ENDBRANCH   1  20
TORSDOF 11
ENDMDL
MODEL 2
REMARK VINA RESULT:      -6.6      1.627      2.736
REMARK  Name = 
REMARK  11 active torsions:
REMARK  status: ('A' for Active; 'I' for Inactive)
REMARK    1  A    between atoms: C_7  and  C_9
REMARK    2  A    between atoms: N_11  and  C_12
REMARK    3  A    between atoms: C_12  and  C_13
REMARK    4  A    between atoms: C_13  and  O_14
REMARK    5  A    between atoms: O_14  and  C_15
REMARK    6  A    between atoms: C_15  and  C_16
REMARK    7  A    between atoms: C_16  and  O_17
REMARK    8  A    between atoms: O_17  and  C_18
REMARK    9  A    between atoms: C_18  and  C_19
REMARK   10  A    between atoms: C_19  and  N_20
REMARK   11  A    between atoms: C_21  and  C_23
REMARK                            x       y       z     vdW  Elec       q    Type
REMARK                         _______ _______ _______ _____ _____    ______ ____
ROOT
ATOM      1  C   UNL     1       4.073  -6.855  26.437  0.00  0.00    +0.188 C 
ENDROOT
BRANCH   1   2
ATOM      2  O   UNL     1       3.879  -6.085  25.241  0.00  0.00    -0.376 OA
BRANCH   2   3
ATOM      3  C   UNL     1       4.345  -6.745  24.068  0.00  0.00    +0.178 C 
BRANCH   3   4
ATOM      4  C   UNL     1       5.507  -5.970  23.451  0.00  0.00    +0.132 C 
BRANCH   4   6
ATOM      5  C   UNL     1       5.571  -3.511  23.125  0.00  0.00    +0.260 C 
ATOM      6  N   UNL     1       5.597  -4.612  23.953  0.00  0.00    -0.308 N 
ATOM      7  H   UNL     1       5.725  -4.481  24.945  0.00  0.00    +0.149 HD
ATOM      8  O   UNL     1       5.417  -3.590  21.911  0.00  0.00    -0.269 OA
BRANCH   5  16
ATOM      9 CL   UNL     1       7.129   2.692  27.384  0.00  0.00    -0.084 Cl
ATOM     10  C   UNL     1       6.763   1.650  26.061  0.00  0.00    +0.042 A 
ATOM     11  C   UNL     1       6.909   2.116  24.757  0.00  0.00    +0.022 A 
ATOM     12  C   UNL     1       6.649   1.284  23.663  0.00  0.00    +0.027 A 
ATOM     13  C   UNL     1       6.266  -0.033  23.937  0.00  0.00    +0.047 A 
ATOM     14  N   UNL     1       5.994  -1.081  23.086  0.00  0.00    -0.351 N 
ATOM     15  H   UNL     1       6.037  -1.041  22.076  0.00  0.00    +0.166 HD
ATOM     16  C   UNL     1       5.744  -2.240  23.793  0.00  0.00    +0.103 A 
ATOM     17  C   UNL     1       5.734  -1.887  25.130  0.00  0.00    +0.041 A 
ATOM     18  C   UNL     1       6.103  -0.518  25.233  0.00  0.00    +0.002 A 
ATOM     19  C   UNL     1       6.346   0.342  26.320  0.00  0.00    +0.030 A 
ENDBRANCH   5  16
ENDBRANCH   4   6
ENDBRANCH   3   4
ENDBRANCH   2   3
ENDBRANCH   1   2
BRANCH   1  20
ATOM     20  C   UNL     1       4.760  -6.099  27.583  0.00  0.00    +0.188 C 
BRANCH  20  21
ATOM     21  O   UNL     1       6.179  -6.241  27.492  0.00  0.00    -0.376 OA
BRANCH  21  22
ATOM     22  C   UNL     1       6.848  -5.021  27.160  0.00  0.00    +0.178 C 
BRANCH  22  23
ATOM     23  C   UNL     1       8.226  -5.260  26.536  0.00  0.00    +0.132 C 
BRANCH  23  24
ATOM     24  N   UNL     1       8.824  -4.060  25.994  0.00  0.00    -0.308 N 
ATOM     25  H   UNL     1       8.985  -3.294  26.626  0.00  0.00    +0.149 HD
ATOM     26  C   UNL     1       8.987  -3.869  24.642  0.00  0.00    +0.260 C 
ATOM     27  O   UNL     1       8.750  -4.746  23.815  0.00  0.00    -0.269 OA
BRANCH  26  28
ATOM     28  C   UNL     1       9.407  -2.538  24.262  0.00  0.00    +0.103 A 
ATOM     29  N   UNL     1       9.405  -2.120  22.947  0.00  0.00    -0.351 N 
ATOM     30  H   UNL     1       9.151  -2.717  22.171  0.00  0.00    +0.166 HD
ATOM     31  C   UNL     1       9.688  -0.776  22.857  0.00  0.00    +0.047 A 
ATOM     32  C   UNL     1       9.704   0.078  21.747  0.00  0.00    +0.027 A 
ATOM     33  C   UNL     1       9.989   1.430  21.978  0.00  0.00    +0.022 A 
ATOM     34  C   UNL     1      10.269   1.891  23.263  0.00  0.00    +0.042 A 
ATOM     35  C   UNL     1      10.282   1.021  24.357  0.00  0.00    +0.030 A 
ATOM     36 CL   UNL     1      10.583   3.566  23.516  0.00  0.00    -0.084 Cl
ATOM     37  C   UNL     1       9.970  -0.335  24.148  0.00  0.00    +0.002 A 
ATOM     38  C   UNL     1       9.835  -1.455  25.011  0.00  0.00    +0.041 A 
ENDBRANCH  26  28
ENDBRANCH  23  24
ENDBRANCH  22  23
ENDBRANCH  21  22
ENDBRANCH  20  21
ENDBRANCH   1  20
TORSDOF 11
ENDMDL
MODEL 3
REMARK VINA RESULT:      -6.6      0.938      4.073
REMARK  Name = 
REMARK  11 active torsions:
REMARK  status: ('A' for Active; 'I' for Inactive)
REMARK    1  A    between atoms: C_7  and  C_9
REMARK    2  A    between atoms: N_11  and  C_12
REMARK    3  A    between atoms: C_12  and  C_13
REMARK    4  A    between atoms: C_13  and  O_14
REMARK    5  A    between atoms: O_14  and  C_15
REMARK    6  A    between atoms: C_15  and  C_16
REMARK    7  A    between atoms: C_16  and  O_17
REMARK    8  A    between atoms: O_17  and  C_18
REMARK    9  A    between atoms: C_18  and  C_19
REMARK   10  A    between atoms: C_19  and  N_20
REMARK   11  A    between atoms: C_21  and  C_23
REMARK                            x       y       z     vdW  Elec       q    Type
REMARK                         _______ _______ _______ _____ _____    ______ ____
ROOT
ATOM      1  C   UNL     1       4.069  -5.164  23.293  0.00  0.00    +0.188 C 
ENDROOT
BRANCH   1   2
ATOM      2  O   UNL     1       4.960  -4.715  22.261  0.00  0.00    -0.376 OA
BRANCH   2   3
ATOM      3  C   UNL     1       5.900  -5.707  21.860  0.00  0.00    +0.178 C 
BRANCH   3   4
ATOM      4  C   UNL     1       7.186  -5.576  22.673  0.00  0.00    +0.132 C 
BRANCH   4   6
ATOM      5  C   UNL     1       8.613  -3.778  23.615  0.00  0.00    +0.260 C 
ATOM      6  N   UNL     1       7.703  -4.221  22.680  0.00  0.00    -0.308 N 
ATOM      7  H   UNL     1       7.344  -3.574  21.995  0.00  0.00    +0.149 HD
ATOM      8  O   UNL     1       9.095  -4.504  24.477  0.00  0.00    -0.269 OA
BRANCH   5  16
ATOM      9 CL   UNL     1      11.405   3.381  23.581  0.00  0.00    -0.084 Cl
ATOM     10  C   UNL     1      10.568   1.936  23.156  0.00  0.00    +0.042 A 
ATOM     11  C   UNL     1      10.065   1.785  21.865  0.00  0.00    +0.022 A 
ATOM     12  C   UNL     1       9.408   0.611  21.483  0.00  0.00    +0.027 A 
ATOM     13  C   UNL     1       9.304  -0.405  22.438  0.00  0.00    +0.047 A 
ATOM     14  N   UNL     1       8.765  -1.669  22.345  0.00  0.00    -0.351 N 
ATOM     15  H   UNL     1       8.341  -2.064  21.516  0.00  0.00    +0.166 HD
ATOM     16  C   UNL     1       8.962  -2.378  23.512  0.00  0.00    +0.103 A 
ATOM     17  C   UNL     1       9.531  -1.497  24.413  0.00  0.00    +0.041 A 
ATOM     18  C   UNL     1       9.790  -0.273  23.738  0.00  0.00    +0.002 A 
ATOM     19  C   UNL     1      10.426   0.926  24.110  0.00  0.00    +0.030 A 
ENDBRANCH   5  16
ENDBRANCH   4   6
ENDBRANCH   3   4
ENDBRANCH   2   3
ENDBRANCH   1   2
BRANCH   1  20
ATOM     20  C   UNL     1       3.718  -4.104  24.346  0.00  0.00    +0.188 C 
BRANCH  20  21
ATOM     21  O   UNL     1       4.223  -4.487  25.626  0.00  0.00    -0.376 OA
BRANCH  21  22
ATOM     22  C   UNL     1       5.640  -4.335  25.742  0.00  0.00    +0.178 C 
BRANCH  22  23
ATOM     23  C   UNL     1       6.031  -3.152  26.633  0.00  0.00    +0.132 C 
BRANCH  23  24
ATOM     24  N   UNL     1       6.419  -1.977  25.885  0.00  0.00    -0.308 N 
ATOM     25  H   UNL     1       7.395  -1.865  25.667  0.00  0.00    +0.149 HD
ATOM     26  C   UNL     1       5.548  -0.940  25.644  0.00  0.00    +0.260 C 
ATOM     27  O   UNL     1       4.357  -0.991  25.942  0.00  0.00    -0.269 OA
BRANCH  26  28
ATOM     28  C   UNL     1       6.152   0.240  25.065  0.00  0.00    +0.103 A 
ATOM     29  N   UNL     1       5.986   0.566  23.734  0.00  0.00    -0.351 N 
ATOM     30  H   UNL     1       5.472  -0.008  23.078  0.00  0.00    +0.166 HD
ATOM     31  C   UNL     1       6.517   1.805  23.461  0.00  0.00    +0.047 A 
ATOM     32  C   UNL     1       6.498   2.564  22.284  0.00  0.00    +0.027 A 
ATOM     33  C   UNL     1       7.092   3.831  22.324  0.00  0.00    +0.022 A 
ATOM     34  C   UNL     1       7.700   4.298  23.487  0.00  0.00    +0.042 A 
ATOM     35  C   UNL     1       7.741   3.517  24.646  0.00  0.00    +0.030 A 
ATOM     36 CL   UNL     1       8.393   5.876  23.512  0.00  0.00    -0.084 Cl
ATOM     37  C   UNL     1       7.124   2.253  24.632  0.00  0.00    +0.002 A 
ATOM     38  C   UNL     1       6.928   1.246  25.615  0.00  0.00    +0.041 A 
ENDBRANCH  26  28
ENDBRANCH  23  24
ENDBRANCH  22  23
ENDBRANCH  21  22
ENDBRANCH  20  21
ENDBRANCH   1  20
TORSDOF 11
ENDMDL
MODEL 4
REMARK VINA RESULT:      -6.6      1.413      3.531
REMARK  Name = 
REMARK  11 active torsions:
REMARK  status: ('A' for Active; 'I' for Inactive)
REMARK    1  A    between atoms: C_7  and  C_9
REMARK    2  A    between atoms: N_11  and  C_12
REMARK    3  A    between atoms: C_12  and  C_13
REMARK    4  A    between atoms: C_13  and  O_14
REMARK    5  A    between atoms: O_14  and  C_15
REMARK    6  A    between atoms: C_15  and  C_16
REMARK    7  A    between atoms: C_16  and  O_17
REMARK    8  A    between atoms: O_17  and  C_18
REMARK    9  A    between atoms: C_18  and  C_19
REMARK   10  A    between atoms: C_19  and  N_20
REMARK   11  A    between atoms: C_21  and  C_23
REMARK                            x       y       z     vdW  Elec       q    Type
REMARK                         _______ _______ _______ _____ _____    ______ ____
ROOT
ATOM      1  C   UNL     1       5.001  -6.332  26.552  0.00  0.00    +0.188 C 
ENDROOT
BRANCH   1   2
ATOM      2  O   UNL     1       6.421  -6.265  26.749  0.00  0.00    -0.376 OA
BRANCH   2   3
ATOM      3  C   UNL     1       6.870  -4.978  27.166  0.00  0.00    +0.178 C 
BRANCH   3   4
ATOM      4  C   UNL     1       8.318  -4.759  26.736  0.00  0.00    +0.132 C 
BRANCH   4   6
ATOM      5  C   UNL     1       9.294  -3.293  24.988  0.00  0.00    +0.260 C 
ATOM      6  N   UNL     1       8.524  -3.463  26.117  0.00  0.00    -0.308 N 
ATOM      7  H   UNL     1       8.117  -2.656  26.564  0.00  0.00    +0.149 HD
ATOM      8  O   UNL     1       9.821  -4.225  24.390  0.00  0.00    -0.269 OA
BRANCH   5  16
ATOM      9 CL   UNL     1      10.968   4.028  23.360  0.00  0.00    -0.084 Cl
ATOM     10  C   UNL     1      10.437   2.393  23.242  0.00  0.00    +0.042 A 
ATOM     11  C   UNL     1      10.192   1.837  21.988  0.00  0.00    +0.022 A 
ATOM     12  C   UNL     1       9.790   0.503  21.860  0.00  0.00    +0.027 A 
ATOM     13  C   UNL     1       9.674  -0.247  23.035  0.00  0.00    +0.047 A 
ATOM     14  N   UNL     1       9.350  -1.573  23.222  0.00  0.00    -0.351 N 
ATOM     15  H   UNL     1       9.138  -2.232  22.485  0.00  0.00    +0.166 HD
ATOM     16  C   UNL     1       9.447  -1.922  24.553  0.00  0.00    +0.103 A 
ATOM     17  C   UNL     1       9.717  -0.755  25.244  0.00  0.00    +0.041 A 
ATOM     18  C   UNL     1       9.905   0.290  24.299  0.00  0.00    +0.002 A 
ATOM     19  C   UNL     1      10.284   1.641  24.409  0.00  0.00    +0.030 A 
ENDBRANCH   5  16
ENDBRANCH   4   6
ENDBRANCH   3   4
ENDBRANCH   2   3
ENDBRANCH   1   2
BRANCH   1  20
ATOM     20  C   UNL     1       4.333  -4.989  26.226  0.00  0.00    +0.188 C 
BRANCH  20  21
ATOM     21  O   UNL     1       3.588  -5.085  25.011  0.00  0.00    -0.376 OA
BRANCH  21  22
ATOM     22  C   UNL     1       3.878  -4.034  24.087  0.00  0.00    +0.178 C 
BRANCH  22  23
ATOM     23  C   UNL     1       5.363  -3.659  24.072  0.00  0.00    +0.132 C 
BRANCH  23  24
ATOM     24  N   UNL     1       5.593  -2.244  23.879  0.00  0.00    -0.308 N 
ATOM     25  H   UNL     1       5.743  -1.921  22.938  0.00  0.00    +0.149 HD
ATOM     26  C   UNL     1       5.807  -1.386  24.932  0.00  0.00    +0.260 C 
ATOM     27  O   UNL     1       5.699  -1.735  26.105  0.00  0.00    -0.269 OA
BRANCH  26  28
ATOM     28  C   UNL     1       6.223  -0.053  24.555  0.00  0.00    +0.103 A 
ATOM     29  N   UNL     1       6.300   0.341  23.235  0.00  0.00    -0.351 N 
ATOM     30  H   UNL     1       6.112  -0.276  22.455  0.00  0.00    +0.166 HD
ATOM     31  C   UNL     1       6.562   1.688  23.137  0.00  0.00    +0.047 A 
ATOM     32  C   UNL     1       6.635   2.522  22.014  0.00  0.00    +0.027 A 
ATOM     33  C   UNL     1       6.875   3.884  22.237  0.00  0.00    +0.022 A 
ATOM     34  C   UNL     1       7.060   4.374  23.528  0.00  0.00    +0.042 A 
ATOM     35  C   UNL     1       7.017   3.525  24.637  0.00  0.00    +0.030 A 
ATOM     36 CL   UNL     1       7.321   6.060  23.769  0.00  0.00    -0.084 Cl
ATOM     37  C   UNL     1       6.748   2.160  24.435  0.00  0.00    +0.002 A 
ATOM     38  C   UNL     1       6.578   1.053  25.310  0.00  0.00    +0.041 A 
ENDBRANCH  26  28
ENDBRANCH  23  24
ENDBRANCH  22  23
ENDBRANCH  21  22
ENDBRANCH  20  21
ENDBRANCH   1  20
TORSDOF 11
ENDMDL
MODEL 5
REMARK VINA RESULT:      -6.6      1.405      2.396
REMARK  Name = 
REMARK  11 active torsions:
REMARK  status: ('A' for Active; 'I' for Inactive)
REMARK    1  A    between atoms: C_7  and  C_9
REMARK    2  A    between atoms: N_11  and  C_12
REMARK    3  A    between atoms: C_12  and  C_13
REMARK    4  A    between atoms: C_13  and  O_14
REMARK    5  A    between atoms: O_14  and  C_15
REMARK    6  A    between atoms: C_15  and  C_16
REMARK    7  A    between atoms: C_16  and  O_17
REMARK    8  A    between atoms: O_17  and  C_18
REMARK    9  A    between atoms: C_18  and  C_19
REMARK   10  A    between atoms: C_19  and  N_20
REMARK   11  A    between atoms: C_21  and  C_23
REMARK                            x       y       z     vdW  Elec       q    Type
REMARK                         _______ _______ _______ _____ _____    ______ ____
ROOT
ATOM      1  C   UNL     1       3.552  -6.948  23.721  0.00  0.00    +0.188 C 
ENDROOT
BRANCH   1   2
ATOM      2  O   UNL     1       4.174  -7.423  24.925  0.00  0.00    -0.376 OA
BRANCH   2   3
ATOM      3  C   UNL     1       4.189  -6.452  25.968  0.00  0.00    +0.178 C 
BRANCH   3   4
ATOM      4  C   UNL     1       5.627  -6.094  26.335  0.00  0.00    +0.132 C 
BRANCH   4   6
ATOM      5  C   UNL     1       5.816  -3.650  26.716  0.00  0.00    +0.260 C 
ATOM      6  N   UNL     1       5.991  -4.755  25.912  0.00  0.00    -0.308 N 
ATOM      7  H   UNL     1       6.346  -4.635  24.976  0.00  0.00    +0.149 HD
ATOM      8  O   UNL     1       5.392  -3.716  27.864  0.00  0.00    -0.269 OA
BRANCH   5  16
ATOM      9 CL   UNL     1       6.625   3.117  23.164  0.00  0.00    -0.084 Cl
ATOM     10  C   UNL     1       6.811   1.794  24.252  0.00  0.00    +0.042 A 
ATOM     11  C   UNL     1       7.518   1.972  25.439  0.00  0.00    +0.022 A 
ATOM     12  C   UNL     1       7.659   0.924  26.356  0.00  0.00    +0.027 A 
ATOM     13  C   UNL     1       7.041  -0.290  26.040  0.00  0.00    +0.047 A 
ATOM     14  N   UNL     1       6.964  -1.466  26.753  0.00  0.00    -0.351 N 
ATOM     15  H   UNL     1       7.371  -1.625  27.665  0.00  0.00    +0.166 HD
ATOM     16  C   UNL     1       6.168  -2.388  26.103  0.00  0.00    +0.103 A 
ATOM     17  C   UNL     1       5.834  -1.824  24.886  0.00  0.00    +0.041 A 
ATOM     18  C   UNL     1       6.338  -0.494  24.855  0.00  0.00    +0.002 A 
ATOM     19  C   UNL     1       6.228   0.564  23.935  0.00  0.00    +0.030 A 
ENDBRANCH   5  16
ENDBRANCH   4   6
ENDBRANCH   3   4
ENDBRANCH   2   3
ENDBRANCH   1   2
BRANCH   1  20
ATOM     20  C   UNL     1       3.403  -5.423  23.632  0.00  0.00    +0.188 C 
BRANCH  20  21
ATOM     21  O   UNL     1       4.620  -4.830  23.174  0.00  0.00    -0.376 OA
BRANCH  21  22
ATOM     22  C   UNL     1       5.323  -5.642  22.230  0.00  0.00    +0.178 C 
BRANCH  22  23
ATOM     23  C   UNL     1       6.838  -5.619  22.451  0.00  0.00    +0.132 C 
BRANCH  23  24
ATOM     24  N   UNL     1       7.381  -4.281  22.547  0.00  0.00    -0.308 N 
ATOM     25  H   UNL     1       7.114  -3.619  21.838  0.00  0.00    +0.149 HD
ATOM     26  C   UNL     1       8.377  -3.956  23.438  0.00  0.00    +0.260 C 
ATOM     27  O   UNL     1       8.789  -4.741  24.288  0.00  0.00    -0.269 OA
BRANCH  26  28
ATOM     28  C   UNL     1       8.945  -2.637  23.261  0.00  0.00    +0.103 A 
ATOM     29  N   UNL     1       8.711  -1.890  22.125  0.00  0.00    -0.351 N 
ATOM     30  H   UNL     1       8.168  -2.222  21.338  0.00  0.00    +0.166 HD
ATOM     31  C   UNL     1       9.220  -0.618  22.259  0.00  0.00    +0.047 A 
ATOM     32  C   UNL     1       9.137   0.490  21.407  0.00  0.00    +0.027 A 
ATOM     33  C   UNL     1       9.725   1.684  21.842  0.00  0.00    +0.022 A 
ATOM     34  C   UNL     1      10.387   1.748  23.066  0.00  0.00    +0.042 A 
ATOM     35  C   UNL     1      10.491   0.626  23.893  0.00  0.00    +0.030 A 
ATOM     36 CL   UNL     1      11.071   3.242  23.587  0.00  0.00    -0.084 Cl
ATOM     37  C   UNL     1       9.881  -0.574  23.484  0.00  0.00    +0.002 A 
ATOM     38  C   UNL     1       9.741  -1.856  24.081  0.00  0.00    +0.041 A 
ENDBRANCH  26  28
ENDBRANCH  23  24
ENDBRANCH  22  23
ENDBRANCH  21  22
ENDBRANCH  20  21
ENDBRANCH   1  20
TORSDOF 11
ENDMDL
MODEL 6
REMARK VINA RESULT:      -6.4      1.391      3.991
REMARK  Name = 
REMARK  11 active torsions:
REMARK  status: ('A' for Active; 'I' for Inactive)
REMARK    1  A    between atoms: C_7  and  C_9
REMARK    2  A    between atoms: N_11  and  C_12
REMARK    3  A    between atoms: C_12  and  C_13
REMARK    4  A    between atoms: C_13  and  O_14
REMARK    5  A    between atoms: O_14  and  C_15
REMARK    6  A    between atoms: C_15  and  C_16
REMARK    7  A    between atoms: C_16  and  O_17
REMARK    8  A    between atoms: O_17  and  C_18
REMARK    9  A    between atoms: C_18  and  C_19
REMARK   10  A    between atoms: C_19  and  N_20
REMARK   11  A    between atoms: C_21  and  C_23
REMARK                            x       y       z     vdW  Elec       q    Type
REMARK                         _______ _______ _______ _____ _____    ______ ____
ROOT
ATOM      1  C   UNL     1       3.609  -5.590  23.083  0.00  0.00    +0.188 C 
ENDROOT
BRANCH   1   2
ATOM      2  O   UNL     1       4.817  -4.893  22.746  0.00  0.00    -0.376 OA
BRANCH   2   3
ATOM      3  C   UNL     1       5.669  -5.634  21.878  0.00  0.00    +0.178 C 
BRANCH   3   4
ATOM      4  C   UNL     1       7.112  -5.574  22.375  0.00  0.00    +0.132 C 
BRANCH   4   6
ATOM      5  C   UNL     1       8.496  -3.795  23.412  0.00  0.00    +0.260 C 
ATOM      6  N   UNL     1       7.622  -4.217  22.434  0.00  0.00    -0.308 N 
ATOM      7  H   UNL     1       7.285  -3.555  21.753  0.00  0.00    +0.149 HD
ATOM      8  O   UNL     1       8.950  -4.541  24.273  0.00  0.00    -0.269 OA
BRANCH   5  16
ATOM      9 CL   UNL     1      11.332   3.346  23.479  0.00  0.00    -0.084 Cl
ATOM     10  C   UNL     1      10.430   1.935  23.076  0.00  0.00    +0.042 A 
ATOM     11  C   UNL     1       9.755   1.873  21.858  0.00  0.00    +0.022 A 
ATOM     12  C   UNL     1       9.040   0.728  21.491  0.00  0.00    +0.027 A 
ATOM     13  C   UNL     1       9.056  -0.351  22.381  0.00  0.00    +0.047 A 
ATOM     14  N   UNL     1       8.496  -1.605  22.278  0.00  0.00    -0.351 N 
ATOM     15  H   UNL     1       7.960  -1.942  21.489  0.00  0.00    +0.166 HD
ATOM     16  C   UNL     1       8.842  -2.392  23.357  0.00  0.00    +0.103 A 
ATOM     17  C   UNL     1       9.537  -1.574  24.229  0.00  0.00    +0.041 A 
ATOM     18  C   UNL     1       9.715  -0.307  23.608  0.00  0.00    +0.002 A 
ATOM     19  C   UNL     1      10.408   0.862  23.971  0.00  0.00    +0.030 A 
ENDBRANCH   5  16
ENDBRANCH   4   6
ENDBRANCH   3   4
ENDBRANCH   2   3
ENDBRANCH   1   2
BRANCH   1  20
ATOM     20  C   UNL     1       3.762  -6.644  24.190  0.00  0.00    +0.188 C 
BRANCH  20  21
ATOM     21  O   UNL     1       3.694  -6.026  25.477  0.00  0.00    -0.376 OA
BRANCH  21  22
ATOM     22  C   UNL     1       4.785  -6.379  26.330  0.00  0.00    +0.178 C 
BRANCH  22  23
ATOM     23  C   UNL     1       6.108  -5.752  25.880  0.00  0.00    +0.132 C 
BRANCH  23  24
ATOM     24  N   UNL     1       6.001  -4.338  25.594  0.00  0.00    -0.308 N 
ATOM     25  H   UNL     1       6.022  -4.055  24.628  0.00  0.00    +0.149 HD
ATOM     26  C   UNL     1       6.072  -3.383  26.581  0.00  0.00    +0.260 C 
ATOM     27  O   UNL     1       6.110  -3.665  27.776  0.00  0.00    -0.269 OA
BRANCH  26  28
ATOM     28  C   UNL     1       6.155  -2.020  26.103  0.00  0.00    +0.103 A 
ATOM     29  N   UNL     1       6.837  -1.043  26.800  0.00  0.00    -0.351 N 
ATOM     30  H   UNL     1       7.284  -1.203  27.694  0.00  0.00    +0.166 HD
ATOM     31  C   UNL     1       6.910   0.122  26.072  0.00  0.00    +0.047 A 
ATOM     32  C   UNL     1       7.574   1.325  26.342  0.00  0.00    +0.027 A 
ATOM     33  C   UNL     1       7.502   2.333  25.373  0.00  0.00    +0.022 A 
ATOM     34  C   UNL     1       6.775   2.145  24.200  0.00  0.00    +0.042 A 
ATOM     35  C   UNL     1       6.090   0.951  23.957  0.00  0.00    +0.030 A 
ATOM     36 CL   UNL     1       6.735   3.394  23.014  0.00  0.00    -0.084 Cl
ATOM     37  C   UNL     1       6.174  -0.083  24.906  0.00  0.00    +0.002 A 
ATOM     38  C   UNL     1       5.670  -1.410  24.959  0.00  0.00    +0.041 A 
ENDBRANCH  26  28
ENDBRANCH  23  24
ENDBRANCH  22  23
ENDBRANCH  21  22
ENDBRANCH  20  21
ENDBRANCH   1  20
TORSDOF 11
ENDMDL
MODEL 7
REMARK VINA RESULT:      -5.9      3.732      7.197
REMARK  Name = 
REMARK  11 active torsions:
REMARK  status: ('A' for Active; 'I' for Inactive)
REMARK    1  A    between atoms: C_7  and  C_9
REMARK    2  A    between atoms: N_11  and  C_12
REMARK    3  A    between atoms: C_12  and  C_13
REMARK    4  A    between atoms: C_13  and  O_14
REMARK    5  A    between atoms: O_14  and  C_15
REMARK    6  A    between atoms: C_15  and  C_16
REMARK    7  A    between atoms: C_16  and  O_17
REMARK    8  A    between atoms: O_17  and  C_18
REMARK    9  A    between atoms: C_18  and  C_19
REMARK   10  A    between atoms: C_19  and  N_20
REMARK   11  A    between atoms: C_21  and  C_23
REMARK                            x       y       z     vdW  Elec       q    Type
REMARK                         _______ _______ _______ _____ _____    ______ ____
ROOT
ATOM      1  C   UNL     1       8.279   2.769  22.632  0.00  0.00    +0.188 C 
ENDROOT
BRANCH   1   2
ATOM      2  O   UNL     1       6.924   3.035  22.241  0.00  0.00    -0.376 OA
BRANCH   2   3
ATOM      3  C   UNL     1       5.963   2.461  23.121  0.00  0.00    +0.178 C 
BRANCH   3   4
ATOM      4  C   UNL     1       6.590   2.196  24.488  0.00  0.00    +0.132 C 
BRANCH   4   6
ATOM      5  C   UNL     1       6.909   0.353  26.118  0.00  0.00    +0.260 C 
ATOM      6  N   UNL     1       6.374   0.836  24.944  0.00  0.00    -0.308 N 
ATOM      7  H   UNL     1       5.845   0.216  24.350  0.00  0.00    +0.149 HD
ATOM      8  O   UNL     1       7.561   1.045  26.892  0.00  0.00    -0.269 OA
BRANCH   5  16
ATOM      9 CL   UNL     1       4.759  -7.001  26.708  0.00  0.00    -0.084 Cl
ATOM     10  C   UNL     1       5.689  -5.551  26.709  0.00  0.00    +0.042 A 
ATOM     11  C   UNL     1       7.080  -5.624  26.730  0.00  0.00    +0.022 A 
ATOM     12  C   UNL     1       7.861  -4.464  26.701  0.00  0.00    +0.027 A 
ATOM     13  C   UNL     1       7.188  -3.240  26.622  0.00  0.00    +0.047 A 
ATOM     14  N   UNL     1       7.676  -1.955  26.531  0.00  0.00    -0.351 N 
ATOM     15  H   UNL     1       8.655  -1.701  26.506  0.00  0.00    +0.166 HD
ATOM     16  C   UNL     1       6.648  -1.046  26.378  0.00  0.00    +0.103 A 
ATOM     17  C   UNL     1       5.472  -1.762  26.501  0.00  0.00    +0.041 A 
ATOM     18  C   UNL     1       5.798  -3.142  26.609  0.00  0.00    +0.002 A 
ATOM     19  C   UNL     1       5.030  -4.320  26.664  0.00  0.00    +0.030 A 
ENDBRANCH   5  16
ENDBRANCH   4   6
ENDBRANCH   3   4
ENDBRANCH   2   3
ENDBRANCH   1   2
BRANCH   1  20
ATOM     20  C   UNL     1       9.075   1.902  21.646  0.00  0.00    +0.188 C 
BRANCH  20  21
ATOM     21  O   UNL     1      10.334   1.533  22.212  0.00  0.00    -0.376 OA
BRANCH  21  22
ATOM     22  C   UNL     1      10.351   1.598  23.640  0.00  0.00    +0.178 C 
BRANCH  22  23
ATOM     23  C   UNL     1      10.384   0.211  24.289  0.00  0.00    +0.132 C 
BRANCH  23  24
ATOM     24  N   UNL     1       9.262  -0.621  23.916  0.00  0.00    -0.308 N 
ATOM     25  H   UNL     1       8.398  -0.488  24.412  0.00  0.00    +0.149 HD
ATOM     26  C   UNL     1       9.396  -1.694  23.065  0.00  0.00    +0.260 C 
ATOM     27  O   UNL     1      10.443  -1.946  22.475  0.00  0.00    -0.269 OA
BRANCH  26  28
ATOM     28  C   UNL     1       8.225  -2.538  22.961  0.00  0.00    +0.103 A 
ATOM     29  N   UNL     1       8.319  -3.913  22.916  0.00  0.00    -0.351 N 
ATOM     30  H   UNL     1       9.199  -4.414  22.913  0.00  0.00    +0.166 HD
ATOM     31  C   UNL     1       7.074  -4.495  22.980  0.00  0.00    +0.047 A 
ATOM     32  C   UNL     1       6.701  -5.843  23.054  0.00  0.00    +0.027 A 
ATOM     33  C   UNL     1       5.334  -6.129  23.157  0.00  0.00    +0.022 A 
ATOM     34  C   UNL     1       4.389  -5.106  23.158  0.00  0.00    +0.042 A 
ATOM     35  C   UNL     1       4.772  -3.766  23.051  0.00  0.00    +0.030 A 
ATOM     36 CL   UNL     1       2.717  -5.491  23.320  0.00  0.00    -0.084 Cl
ATOM     37  C   UNL     1       6.143  -3.458  22.976  0.00  0.00    +0.002 A 
ATOM     38  C   UNL     1       6.874  -2.241  22.918  0.00  0.00    +0.041 A 
ENDBRANCH  26  28
ENDBRANCH  23  24
ENDBRANCH  22  23
ENDBRANCH  21  22
ENDBRANCH  20  21
ENDBRANCH   1  20
TORSDOF 11
ENDMDL
MODEL 8
REMARK VINA RESULT:      -5.8      3.850      7.577
REMARK  Name = 
REMARK  11 active torsions:
REMARK  status: ('A' for Active; 'I' for Inactive)
REMARK    1  A    between atoms: C_7  and  C_9
REMARK    2  A    between atoms: N_11  and  C_12
REMARK    3  A    between atoms: C_12  and  C_13
REMARK    4  A    between atoms: C_13  and  O_14
REMARK    5  A    between atoms: O_14  and  C_15
REMARK    6  A    between atoms: C_15  and  C_16
REMARK    7  A    between atoms: C_16  and  O_17
REMARK    8  A    between atoms: O_17  and  C_18
REMARK    9  A    between atoms: C_18  and  C_19
REMARK   10  A    between atoms: C_19  and  N_20
REMARK   11  A    between atoms: C_21  and  C_23
REMARK                            x       y       z     vdW  Elec       q    Type
REMARK                         _______ _______ _______ _____ _____    ______ ____
ROOT
ATOM      1  C   UNL     1       7.440   3.925  22.302  0.00  0.00    +0.188 C 
ENDROOT
BRANCH   1   2
ATOM      2  O   UNL     1       8.735   3.337  22.499  0.00  0.00    -0.376 OA
BRANCH   2   3
ATOM      3  C   UNL     1       8.935   2.152  21.733  0.00  0.00    +0.178 C 
BRANCH   3   4
ATOM      4  C   UNL     1      10.074   1.326  22.326  0.00  0.00    +0.132 C 
BRANCH   4   6
ATOM      5  C   UNL     1      10.125  -0.142  24.326  0.00  0.00    +0.260 C 
ATOM      6  N   UNL     1       9.595   0.196  23.100  0.00  0.00    -0.308 N 
ATOM      7  H   UNL     1       8.874  -0.382  22.696  0.00  0.00    +0.149 HD
ATOM      8  O   UNL     1      11.000   0.512  24.881  0.00  0.00    -0.269 OA
BRANCH   5  16
ATOM      9 CL   UNL     1       6.282  -5.906  27.652  0.00  0.00    -0.084 Cl
ATOM     10  C   UNL     1       7.352  -4.999  26.651  0.00  0.00    +0.042 A 
ATOM     11  C   UNL     1       7.944  -5.608  25.547  0.00  0.00    +0.022 A 
ATOM     12  C   UNL     1       8.793  -4.889  24.698  0.00  0.00    +0.027 A 
ATOM     13  C   UNL     1       8.996  -3.537  24.992  0.00  0.00    +0.047 A 
ATOM     14  N   UNL     1       9.726  -2.576  24.327  0.00  0.00    -0.351 N 
ATOM     15  H   UNL     1      10.251  -2.726  23.475  0.00  0.00    +0.166 HD
ATOM     16  C   UNL     1       9.573  -1.339  24.920  0.00  0.00    +0.103 A 
ATOM     17  C   UNL     1       8.826  -1.546  26.066  0.00  0.00    +0.041 A 
ATOM     18  C   UNL     1       8.423  -2.909  26.097  0.00  0.00    +0.002 A 
ATOM     19  C   UNL     1       7.592  -3.656  26.952  0.00  0.00    +0.030 A 
ENDBRANCH   5  16
ENDBRANCH   4   6
ENDBRANCH   3   4
ENDBRANCH   2   3
ENDBRANCH   1   2
BRANCH   1  20
ATOM     20  C   UNL     1       7.158   5.163  23.165  0.00  0.00    +0.188 C 
BRANCH  20  21
ATOM     21  O   UNL     1       6.245   4.840  24.215  0.00  0.00    -0.376 OA
BRANCH  21  22
ATOM     22  C   UNL     1       5.121   4.077  23.770  0.00  0.00    +0.178 C 
BRANCH  22  23
ATOM     23  C   UNL     1       4.740   2.967  24.754  0.00  0.00    +0.132 C 
BRANCH  23  24
ATOM     24  N   UNL     1       4.967   1.637  24.231  0.00  0.00    -0.308 N 
ATOM     25  H   UNL     1       4.174   1.140  23.863  0.00  0.00    +0.149 HD
ATOM     26  C   UNL     1       6.162   0.978  24.400  0.00  0.00    +0.260 C 
ATOM     27  O   UNL     1       7.150   1.512  24.898  0.00  0.00    -0.269 OA
BRANCH  26  28
ATOM     28  C   UNL     1       6.151  -0.412  23.999  0.00  0.00    +0.103 A 
ATOM     29  N   UNL     1       5.469  -1.373  24.716  0.00  0.00    -0.351 N 
ATOM     30  H   UNL     1       4.972  -1.181  25.577  0.00  0.00    +0.166 HD
ATOM     31  C   UNL     1       5.475  -2.579  24.054  0.00  0.00    +0.047 A 
ATOM     32  C   UNL     1       4.840  -3.789  24.361  0.00  0.00    +0.027 A 
ATOM     33  C   UNL     1       4.996  -4.847  23.456  0.00  0.00    +0.022 A 
ATOM     34  C   UNL     1       5.776  -4.697  22.311  0.00  0.00    +0.042 A 
ATOM     35  C   UNL     1       6.430  -3.494  22.033  0.00  0.00    +0.030 A 
ATOM     36 CL   UNL     1       5.920  -6.009  21.203  0.00  0.00    -0.084 Cl
ATOM     37  C   UNL     1       6.261  -2.412  22.916  0.00  0.00    +0.002 A 
ATOM     38  C   UNL     1       6.716  -1.066  22.917  0.00  0.00    +0.041 A 
ENDBRANCH  26  28
ENDBRANCH  23  24
ENDBRANCH  22  23
ENDBRANCH  21  22
ENDBRANCH  20  21
ENDBRANCH   1  20
TORSDOF 11
ENDMDL
MODEL 9
REMARK VINA RESULT:      -5.8      3.915      7.660
REMARK  Name = 
REMARK  11 active torsions:
REMARK  status: ('A' for Active; 'I' for Inactive)
REMARK    1  A    between atoms: C_7  and  C_9
REMARK    2  A    between atoms: N_11  and  C_12
REMARK    3  A    between atoms: C_12  and  C_13
REMARK    4  A    between atoms: C_13  and  O_14
REMARK    5  A    between atoms: O_14  and  C_15
REMARK    6  A    between atoms: C_15  and  C_16
REMARK    7  A    between atoms: C_16  and  O_17
REMARK    8  A    between atoms: O_17  and  C_18
REMARK    9  A    between atoms: C_18  and  C_19
REMARK   10  A    between atoms: C_19  and  N_20
REMARK   11  A    between atoms: C_21  and  C_23
REMARK                            x       y       z     vdW  Elec       q    Type
REMARK                         _______ _______ _______ _____ _____    ______ ____
ROOT
ATOM      1  C   UNL     1       9.623   2.981  23.478  0.00  0.00    +0.188 C 
ENDROOT
BRANCH   1   2
ATOM      2  O   UNL     1       9.590   2.040  24.561  0.00  0.00    -0.376 OA
BRANCH   2   3
ATOM      3  C   UNL     1      10.626   1.065  24.490  0.00  0.00    +0.178 C 
BRANCH   3   4
ATOM      4  C   UNL     1      10.567   0.327  23.155  0.00  0.00    +0.132 C 
BRANCH   4   6
ATOM      5  C   UNL     1       8.390  -0.686  22.531  0.00  0.00    +0.260 C 
ATOM      6  N   UNL     1       9.611  -0.763  23.165  0.00  0.00    -0.308 N 
ATOM      7  H   UNL     1       9.841  -1.589  23.696  0.00  0.00    +0.149 HD
ATOM      8  O   UNL     1       8.040   0.283  21.867  0.00  0.00    -0.269 OA
BRANCH   5  16
ATOM      9 CL   UNL     1       3.069  -6.212  22.985  0.00  0.00    -0.084 Cl
ATOM     10  C   UNL     1       4.569  -5.375  22.841  0.00  0.00    +0.042 A 
ATOM     11  C   UNL     1       5.700  -6.060  22.401  0.00  0.00    +0.022 A 
ATOM     12  C   UNL     1       6.924  -5.400  22.246  0.00  0.00    +0.027 A 
ATOM     13  C   UNL     1       6.952  -4.029  22.523  0.00  0.00    +0.047 A 
ATOM     14  N   UNL     1       7.978  -3.116  22.419  0.00  0.00    -0.351 N 
ATOM     15  H   UNL     1       8.917  -3.324  22.105  0.00  0.00    +0.166 HD
ATOM     16  C   UNL     1       7.536  -1.840  22.707  0.00  0.00    +0.103 A 
ATOM     17  C   UNL     1       6.225  -1.968  23.127  0.00  0.00    +0.041 A 
ATOM     18  C   UNL     1       5.836  -3.326  22.973  0.00  0.00    +0.002 A 
ATOM     19  C   UNL     1       4.620  -4.013  23.147  0.00  0.00    +0.030 A 
ENDBRANCH   5  16
ENDBRANCH   4   6
ENDBRANCH   3   4
ENDBRANCH   2   3
ENDBRANCH   1   2
BRANCH   1  20
ATOM     20  C   UNL     1       8.976   4.339  23.786  0.00  0.00    +0.188 C 
BRANCH  20  21
ATOM     21  O   UNL     1       7.789   4.160  24.561  0.00  0.00    -0.376 OA
BRANCH  21  22
ATOM     22  C   UNL     1       7.890   4.703  25.880  0.00  0.00    +0.178 C 
BRANCH  22  23
ATOM     23  C   UNL     1       7.184   3.835  26.926  0.00  0.00    +0.132 C 
BRANCH  23  24
ATOM     24  N   UNL     1       7.275   2.419  26.649  0.00  0.00    -0.308 N 
ATOM     25  H   UNL     1       7.238   2.129  25.686  0.00  0.00    +0.149 HD
ATOM     26  C   UNL     1       7.211   1.471  27.645  0.00  0.00    +0.260 C 
ATOM     27  O   UNL     1       7.192   1.763  28.837  0.00  0.00    -0.269 OA
BRANCH  26  28
ATOM     28  C   UNL     1       7.109   0.106  27.178  0.00  0.00    +0.103 A 
ATOM     29  N   UNL     1       8.197  -0.573  26.668  0.00  0.00    -0.351 N 
ATOM     30  H   UNL     1       9.112  -0.157  26.552  0.00  0.00    +0.166 HD
ATOM     31  C   UNL     1       7.891  -1.896  26.443  0.00  0.00    +0.047 A 
ATOM     32  C   UNL     1       8.700  -2.959  26.023  0.00  0.00    +0.027 A 
ATOM     33  C   UNL     1       8.106  -4.223  25.929  0.00  0.00    +0.022 A 
ATOM     34  C   UNL     1       6.755  -4.401  26.220  0.00  0.00    +0.042 A 
ATOM     35  C   UNL     1       5.951  -3.325  26.607  0.00  0.00    +0.030 A 
ATOM     36 CL   UNL     1       6.064  -5.976  26.126  0.00  0.00    -0.084 Cl
ATOM     37  C   UNL     1       6.538  -2.053  26.735  0.00  0.00    +0.002 A 
ATOM     38  C   UNL     1       6.049  -0.785  27.150  0.00  0.00    +0.041 A 
ENDBRANCH  26  28
ENDBRANCH  23  24
ENDBRANCH  22  23
ENDBRANCH  21  22
ENDBRANCH  20  21
ENDBRANCH   1  20
TORSDOF 11
ENDMDL
