MODEL 1
REMARK VINA RESULT:      -4.7      0.000      0.000
REMARK  Name = 
REMARK  0 active torsions:
REMARK  status: ('A' for Active; 'I' for Inactive)
REMARK                            x       y       z     vdW  Elec       q    Type
REMARK                         _______ _______ _______ _____ _____    ______ ____
ROOT
ATOM      1  O   GLY A   2      10.078  -3.457  24.144  0.00  0.00    -0.274 OA
ATOM      2  C   GLY A   2       9.196  -4.068  24.742  0.00  0.00    +0.233 C 
ATOM      3  N   PRO A   1       7.970  -4.367  24.186  0.00  0.00    -0.289 N 
ATOM      4  CA  PRO A   1       6.810  -4.576  25.025  0.00  0.00    +0.162 C 
ATOM      5  CB  PRO A   1       5.721  -5.015  24.051  0.00  0.00    +0.033 C 
ATOM      6  CG  PRO A   1       6.241  -4.637  22.655  0.00  0.00    +0.021 C 
ATOM      7  C   PRO A   1       7.102  -5.526  26.185  0.00  0.00    +0.234 C 
ATOM      8  O   PRO A   1       6.282  -6.288  26.686  0.00  0.00    -0.274 OA
ATOM      9  N   GLY A   2       8.296  -5.256  26.822  0.00  0.00    -0.305 N 
ATOM     10  H   GLY A   2       8.463  -5.838  27.632  0.00  0.00    +0.149 HD
ATOM     11  CD  PRO A   1       7.560  -3.913  22.882  0.00  0.00    +0.108 C 
ATOM     12  CA  GLY A   2       9.459  -4.787  26.078  0.00  0.00    +0.200 C 
ENDROOT
TORSDOF 0
ENDMDL
MODEL 2
REMARK VINA RESULT:      -4.6      4.437      5.749
REMARK  Name = 
REMARK  0 active torsions:
REMARK  status: ('A' for Active; 'I' for Inactive)
REMARK                            x       y       z     vdW  Elec       q    Type
REMARK                         _______ _______ _______ _____ _____    ______ ____
ROOT
ATOM      1  O   GLY A   2       9.389  -2.813  24.410  0.00  0.00    -0.274 OA
ATOM      2  C   GLY A   2       9.411  -1.585  24.439  0.00  0.00    +0.233 C 
ATOM      3  N   PRO A   1       9.418  -0.800  23.306  0.00  0.00    -0.289 N 
ATOM      4  CA  PRO A   1       9.974   0.535  23.336  0.00  0.00    +0.162 C 
ATOM      5  CB  PRO A   1       9.661   1.100  21.955  0.00  0.00    +0.033 C 
ATOM      6  CG  PRO A   1       9.291  -0.114  21.089  0.00  0.00    +0.021 C 
ATOM      7  C   PRO A   1       9.465   1.344  24.528  0.00  0.00    +0.234 C 
ATOM      8  O   PRO A   1       9.301   2.559  24.527  0.00  0.00    -0.274 OA
ATOM      9  N   GLY A   2       9.475   0.633  25.712  0.00  0.00    -0.305 N 
ATOM     10  H   GLY A   2       9.203   1.184  26.516  0.00  0.00    +0.149 HD
ATOM     11  CD  PRO A   1       9.495  -1.336  21.972  0.00  0.00    +0.108 C 
ATOM     12  CA  GLY A   2       9.174  -0.792  25.738  0.00  0.00    +0.200 C 
ENDROOT
TORSDOF 0
ENDMDL
MODEL 3
REMARK VINA RESULT:      -4.5      4.631      5.840
REMARK  Name = 
REMARK  0 active torsions:
REMARK  status: ('A' for Active; 'I' for Inactive)
REMARK                            x       y       z     vdW  Elec       q    Type
REMARK                         _______ _______ _______ _____ _____    ______ ____
ROOT
ATOM      1  O   GLY A   2       8.630   1.860  21.636  0.00  0.00    -0.274 OA
ATOM      2  C   GLY A   2       9.026   0.805  22.126  0.00  0.00    +0.233 C 
ATOM      3  N   PRO A   1       8.882   0.488  23.460  0.00  0.00    -0.289 N 
ATOM      4  CA  PRO A   1       9.786  -0.442  24.100  0.00  0.00    +0.162 C 
ATOM      5  CB  PRO A   1       9.207  -0.622  25.499  0.00  0.00    +0.033 C 
ATOM      6  CG  PRO A   1       8.220   0.541  25.688  0.00  0.00    +0.021 C 
ATOM      7  C   PRO A   1       9.978  -1.716  23.279  0.00  0.00    +0.234 C 
ATOM      8  O   PRO A   1      10.194  -2.826  23.754  0.00  0.00    -0.274 OA
ATOM      9  N   GLY A   2      10.177  -1.472  21.935  0.00  0.00    -0.305 N 
ATOM     10  H   GLY A   2      10.371  -2.307  21.397  0.00  0.00    +0.149 HD
ATOM     11  CD  PRO A   1       8.338   1.397  24.435  0.00  0.00    +0.108 C 
ATOM     12  CA  GLY A   2       9.492  -0.378  21.258  0.00  0.00    +0.200 C 
ENDROOT
TORSDOF 0
ENDMDL
MODEL 4
REMARK VINA RESULT:      -4.5      0.923      2.969
REMARK  Name = 
REMARK  0 active torsions:
REMARK  status: ('A' for Active; 'I' for Inactive)
REMARK                            x       y       z     vdW  Elec       q    Type
REMARK                         _______ _______ _______ _____ _____    ______ ____
ROOT
ATOM      1  O   GLY A   2       6.013  -6.220  26.573  0.00  0.00    -0.274 OA
ATOM      2  C   GLY A   2       6.915  -5.606  26.006  0.00  0.00    +0.233 C 
ATOM      3  N   PRO A   1       6.817  -5.141  24.713  0.00  0.00    -0.289 N 
ATOM      4  CA  PRO A   1       8.005  -4.928  23.913  0.00  0.00    +0.162 C 
ATOM      5  CB  PRO A   1       7.481  -4.289  22.632  0.00  0.00    +0.033 C 
ATOM      6  CG  PRO A   1       5.966  -4.550  22.631  0.00  0.00    +0.021 C 
ATOM      7  C   PRO A   1       9.075  -4.145  24.670  0.00  0.00    +0.234 C 
ATOM      8  O   PRO A   1       9.876  -3.376  24.149  0.00  0.00    -0.274 OA
ATOM      9  N   GLY A   2       9.262  -4.589  25.964  0.00  0.00    -0.305 N 
ATOM     10  H   GLY A   2      10.015  -4.118  26.448  0.00  0.00    +0.149 HD
ATOM     11  CD  PRO A   1       5.689  -5.408  23.858  0.00  0.00    +0.108 C 
ATOM     12  CA  GLY A   2       8.142  -5.069  26.765  0.00  0.00    +0.200 C 
ENDROOT
TORSDOF 0
ENDMDL
MODEL 5
REMARK VINA RESULT:      -4.4      1.673      2.194
REMARK  Name = 
REMARK  0 active torsions:
REMARK  status: ('A' for Active; 'I' for Inactive)
REMARK                            x       y       z     vdW  Elec       q    Type
REMARK                         _______ _______ _______ _____ _____    ______ ____
ROOT
ATOM      1  O   GLY A   2       7.801  -4.690  23.101  0.00  0.00    -0.274 OA
ATOM      2  C   GLY A   2       7.655  -4.979  24.287  0.00  0.00    +0.233 C 
ATOM      3  N   PRO A   1       6.521  -5.585  24.784  0.00  0.00    -0.289 N 
ATOM      4  CA  PRO A   1       6.146  -5.423  26.172  0.00  0.00    +0.162 C 
ATOM      5  CB  PRO A   1       4.946  -6.348  26.344  0.00  0.00    +0.033 C 
ATOM      6  CG  PRO A   1       4.473  -6.676  24.919  0.00  0.00    +0.021 C 
ATOM      7  C   PRO A   1       7.322  -5.659  27.118  0.00  0.00    +0.234 C 
ATOM      8  O   PRO A   1       7.225  -6.123  28.249  0.00  0.00    -0.274 OA
ATOM      9  N   GLY A   2       8.485  -5.039  26.706  0.00  0.00    -0.305 N 
ATOM     10  H   GLY A   2       9.249  -5.136  27.362  0.00  0.00    +0.149 HD
ATOM     11  CD  PRO A   1       5.354  -5.857  23.987  0.00  0.00    +0.108 C 
ATOM     12  CA  GLY A   2       8.820  -4.929  25.292  0.00  0.00    +0.200 C 
ENDROOT
TORSDOF 0
ENDMDL
MODEL 6
REMARK VINA RESULT:      -4.4      4.040      5.495
REMARK  Name = 
REMARK  0 active torsions:
REMARK  status: ('A' for Active; 'I' for Inactive)
REMARK                            x       y       z     vdW  Elec       q    Type
REMARK                         _______ _______ _______ _____ _____    ______ ____
ROOT
ATOM      1  O   GLY A   2       5.933  -0.491  24.403  0.00  0.00    -0.274 OA
ATOM      2  C   GLY A   2       7.011  -0.836  23.925  0.00  0.00    +0.233 C 
ATOM      3  N   PRO A   1       7.728  -0.062  23.038  0.00  0.00    -0.289 N 
ATOM      4  CA  PRO A   1       8.654  -0.671  22.108  0.00  0.00    +0.162 C 
ATOM      5  CB  PRO A   1       9.329   0.513  21.425  0.00  0.00    +0.033 C 
ATOM      6  CG  PRO A   1       8.442   1.729  21.739  0.00  0.00    +0.021 C 
ATOM      7  C   PRO A   1       9.582  -1.674  22.793  0.00  0.00    +0.234 C 
ATOM      8  O   PRO A   1      10.735  -1.906  22.447  0.00  0.00    -0.274 OA
ATOM      9  N   GLY A   2       8.922  -2.518  23.664  0.00  0.00    -0.305 N 
ATOM     10  H   GLY A   2       9.518  -3.226  24.070  0.00  0.00    +0.149 HD
ATOM     11  CD  PRO A   1       7.245   1.186  22.506  0.00  0.00    +0.108 C 
ATOM     12  CA  GLY A   2       7.796  -2.047  24.462  0.00  0.00    +0.200 C 
ENDROOT
TORSDOF 0
ENDMDL
MODEL 7
REMARK VINA RESULT:      -4.4      2.126      2.785
REMARK  Name = 
REMARK  0 active torsions:
REMARK  status: ('A' for Active; 'I' for Inactive)
REMARK                            x       y       z     vdW  Elec       q    Type
REMARK                         _______ _______ _______ _____ _____    ______ ____
ROOT
ATOM      1  O   GLY A   2       6.701  -1.128  22.883  0.00  0.00    -0.274 OA
ATOM      2  C   GLY A   2       7.267  -2.141  23.285  0.00  0.00    +0.233 C 
ATOM      3  N   PRO A   1       7.053  -3.393  22.750  0.00  0.00    -0.289 N 
ATOM      4  CA  PRO A   1       7.281  -4.584  23.540  0.00  0.00    +0.162 C 
ATOM      5  CB  PRO A   1       7.072  -5.729  22.556  0.00  0.00    +0.033 C 
ATOM      6  CG  PRO A   1       6.342  -5.111  21.353  0.00  0.00    +0.021 C 
ATOM      7  C   PRO A   1       8.628  -4.548  24.259  0.00  0.00    +0.234 C 
ATOM      8  O   PRO A   1       9.310  -5.535  24.513  0.00  0.00    -0.274 OA
ATOM      9  N   GLY A   2       8.890  -3.334  24.863  0.00  0.00    -0.305 N 
ATOM     10  H   GLY A   2       9.750  -3.326  25.397  0.00  0.00    +0.149 HD
ATOM     11  CD  PRO A   1       6.074  -3.660  21.728  0.00  0.00    +0.108 C 
ATOM     12  CA  GLY A   2       8.463  -2.081  24.253  0.00  0.00    +0.200 C 
ENDROOT
TORSDOF 0
ENDMDL
MODEL 8
REMARK VINA RESULT:      -4.3      4.419      5.582
REMARK  Name = 
REMARK  0 active torsions:
REMARK  status: ('A' for Active; 'I' for Inactive)
REMARK                            x       y       z     vdW  Elec       q    Type
REMARK                         _______ _______ _______ _____ _____    ______ ____
ROOT
ATOM      1  O   GLY A   2       7.981   1.424  25.765  0.00  0.00    -0.274 OA
ATOM      2  C   GLY A   2       8.492   0.504  25.131  0.00  0.00    +0.233 C 
ATOM      3  N   PRO A   1       8.992   0.649  23.855  0.00  0.00    -0.289 N 
ATOM      4  CA  PRO A   1       9.077  -0.486  22.961  0.00  0.00    +0.162 C 
ATOM      5  CB  PRO A   1       9.801   0.058  21.735  0.00  0.00    +0.033 C 
ATOM      6  CG  PRO A   1       9.725   1.588  21.859  0.00  0.00    +0.021 C 
ATOM      7  C   PRO A   1       9.709  -1.703  23.634  0.00  0.00    +0.234 C 
ATOM      8  O   PRO A   1      10.386  -2.547  23.056  0.00  0.00    -0.274 OA
ATOM      9  N   GLY A   2       9.220  -1.939  24.903  0.00  0.00    -0.305 N 
ATOM     10  H   GLY A   2       9.586  -2.781  25.327  0.00  0.00    +0.149 HD
ATOM     11  CD  PRO A   1       8.882   1.867  23.095  0.00  0.00    +0.108 C 
ATOM     12  CA  GLY A   2       8.862  -0.839  25.790  0.00  0.00    +0.200 C 
ENDROOT
TORSDOF 0
ENDMDL
MODEL 9
REMARK VINA RESULT:      -4.3      6.156      7.796
REMARK  Name = 
REMARK  0 active torsions:
REMARK  status: ('A' for Active; 'I' for Inactive)
REMARK                            x       y       z     vdW  Elec       q    Type
REMARK                         _______ _______ _______ _____ _____    ______ ____
ROOT
ATOM      1  O   GLY A   2       6.461   1.358  23.148  0.00  0.00    -0.274 OA
ATOM      2  C   GLY A   2       7.581   1.853  23.248  0.00  0.00    +0.233 C 
ATOM      3  N   PRO A   1       8.678   1.158  23.711  0.00  0.00    -0.289 N 
ATOM      4  CA  PRO A   1       9.792   1.855  24.316  0.00  0.00    +0.162 C 
ATOM      5  CB  PRO A   1      10.830   0.764  24.553  0.00  0.00    +0.033 C 
ATOM      6  CG  PRO A   1      10.067  -0.564  24.425  0.00  0.00    +0.021 C 
ATOM      7  C   PRO A   1      10.247   3.050  23.479  0.00  0.00    +0.234 C 
ATOM      8  O   PRO A   1      11.402   3.457  23.415  0.00  0.00    -0.274 OA
ATOM      9  N   GLY A   2       9.199   3.822  23.019  0.00  0.00    -0.305 N 
ATOM     10  H   GLY A   2       9.496   4.651  22.521  0.00  0.00    +0.149 HD
ATOM     11  CD  PRO A   1       8.607  -0.189  24.216  0.00  0.00    +0.108 C 
ATOM     12  CA  GLY A   2       7.933   3.217  22.626  0.00  0.00    +0.200 C 
ENDROOT
TORSDOF 0
ENDMDL
