MODEL 1
REMARK VINA RESULT:      -5.4      0.000      0.000
REMARK  Name = 
REMARK  12 active torsions:
REMARK  status: ('A' for Active; 'I' for Inactive)
REMARK    1  A    between atoms: C_2  and  N_8
REMARK    2  A    between atoms: C_9  and  C_11
REMARK    3  A    between atoms: C_11  and  C_12
REMARK    4  A    between atoms: C_12  and  C_14
REMARK    5  A    between atoms: C_14  and  C_15
REMARK    6  A    between atoms: C_15  and  C_16
REMARK    7  A    between atoms: C_16  and  C_17
REMARK    8  A    between atoms: C_17  and  C_18
REMARK    9  A    between atoms: C_18  and  C_19
REMARK   10  A    between atoms: C_19  and  C_20
REMARK   11  A    between atoms: C_20  and  C_21
REMARK   12  A    between atoms: C_21  and  C_22
REMARK                            x       y       z     vdW  Elec       q    Type
REMARK                         _______ _______ _______ _____ _____    ______ ____
ROOT
ATOM      1  C   UNL     1       9.561  -2.232  24.009  0.00  0.00    +0.170 C 
ENDROOT
BRANCH   1   4
ATOM      2  N   UNL     1       7.628  -3.502  23.264  0.00  0.00    -0.302 N 
ATOM      3  H   UNL     1       7.187  -2.600  23.134  0.00  0.00    +0.150 HD
ATOM      4  C   UNL     1       8.841  -3.549  23.916  0.00  0.00    +0.221 C 
ATOM      5  O   UNL     1       9.313  -4.577  24.390  0.00  0.00    -0.275 OA
BRANCH   2   6
ATOM      6  C   UNL     1       6.798  -4.683  23.086  0.00  0.00    +0.185 C 
ATOM      7  C   UNL     1       5.690  -4.522  22.062  0.00  0.00    +0.328 C 
ATOM      8  O   UNL     1       5.784  -3.943  20.988  0.00  0.00    -0.249 OA
ATOM      9  O   UNL     1       4.580  -5.202  22.476  0.00  0.00    -0.463 OA
ATOM     10  C   UNL     1       4.845  -5.842  23.725  0.00  0.00    +0.234 C 
ATOM     11  C   UNL     1       6.066  -5.177  24.312  0.00  0.00    +0.075 C 
ENDBRANCH   2   6
ENDBRANCH   1   4
BRANCH   1  12
ATOM     12  C   UNL     1       8.879  -1.308  24.984  0.00  0.00    +0.142 C 
ATOM     13  O   UNL     1       7.792  -1.614  25.478  0.00  0.00    -0.297 OA
BRANCH  12  14
ATOM     14  C   UNL     1       9.611  -0.027  25.351  0.00  0.00    +0.075 C 
BRANCH  14  15
ATOM     15  C   UNL     1      10.595   0.381  24.260  0.00  0.00    +0.007 C 
BRANCH  15  16
ATOM     16  C   UNL     1      10.614   1.889  24.017  0.00  0.00    +0.000 C 
BRANCH  16  17
ATOM     17  C   UNL     1      10.378   2.185  22.534  0.00  0.00    +0.000 C 
BRANCH  17  18
ATOM     18  C   UNL     1       9.696   1.019  21.823  0.00  0.00    +0.000 C 
BRANCH  18  19
ATOM     19  C   UNL     1       8.266   1.384  21.421  0.00  0.00    -0.000 C 
BRANCH  19  20
ATOM     20  C   UNL     1       7.280   1.056  22.542  0.00  0.00    -0.000 C 
BRANCH  20  21
ATOM     21  C   UNL     1       6.568   2.311  23.047  0.00  0.00    -0.003 C 
ATOM     22  C   UNL     1       6.881   3.510  22.169  0.00  0.00    +0.004 C 
ENDBRANCH  20  21
ENDBRANCH  19  20
ENDBRANCH  18  19
ENDBRANCH  17  18
ENDBRANCH  16  17
ENDBRANCH  15  16
ENDBRANCH  14  15
ENDBRANCH  12  14
ENDBRANCH   1  12
TORSDOF 11
ENDMDL
MODEL 2
REMARK VINA RESULT:      -5.4      1.402      2.055
REMARK  Name = 
REMARK  12 active torsions:
REMARK  status: ('A' for Active; 'I' for Inactive)
REMARK    1  A    between atoms: C_2  and  N_8
REMARK    2  A    between atoms: C_9  and  C_11
REMARK    3  A    between atoms: C_11  and  C_12
REMARK    4  A    between atoms: C_12  and  C_14
REMARK    5  A    between atoms: C_14  and  C_15
REMARK    6  A    between atoms: C_15  and  C_16
REMARK    7  A    between atoms: C_16  and  C_17
REMARK    8  A    between atoms: C_17  and  C_18
REMARK    9  A    between atoms: C_18  and  C_19
REMARK   10  A    between atoms: C_19  and  C_20
REMARK   11  A    between atoms: C_20  and  C_21
REMARK   12  A    between atoms: C_21  and  C_22
REMARK                            x       y       z     vdW  Elec       q    Type
REMARK                         _______ _______ _______ _____ _____    ______ ____
ROOT
ATOM      1  C   UNL     1       8.452  -3.825  26.267  0.00  0.00    +0.170 C 
ENDROOT
BRANCH   1   4
ATOM      2  N   UNL     1       7.370  -4.228  24.128  0.00  0.00    -0.302 N 
ATOM      3  H   UNL     1       6.548  -4.445  24.676  0.00  0.00    +0.150 HD
ATOM      4  C   UNL     1       8.569  -4.059  24.786  0.00  0.00    +0.221 C 
ATOM      5  O   UNL     1       9.659  -4.095  24.223  0.00  0.00    -0.275 OA
BRANCH   2   6
ATOM      6  C   UNL     1       7.300  -4.467  22.695  0.00  0.00    +0.185 C 
ATOM      7  C   UNL     1       6.179  -3.725  21.990  0.00  0.00    +0.328 C 
ATOM      8  O   UNL     1       5.829  -2.574  22.214  0.00  0.00    -0.249 OA
ATOM      9  O   UNL     1       5.666  -4.506  20.994  0.00  0.00    -0.463 OA
ATOM     10  C   UNL     1       6.368  -5.750  20.949  0.00  0.00    +0.234 C 
ATOM     11  C   UNL     1       7.088  -5.900  22.266  0.00  0.00    +0.075 C 
ENDBRANCH   2   6
ENDBRANCH   1   4
BRANCH   1  12
ATOM     12  C   UNL     1       7.761  -2.519  26.557  0.00  0.00    +0.142 C 
ATOM     13  O   UNL     1       6.542  -2.484  26.734  0.00  0.00    -0.297 OA
BRANCH  12  14
ATOM     14  C   UNL     1       8.637  -1.281  26.662  0.00  0.00    +0.075 C 
BRANCH  14  15
ATOM     15  C   UNL     1       8.877  -0.655  25.293  0.00  0.00    +0.007 C 
BRANCH  15  16
ATOM     16  C   UNL     1      10.103   0.256  25.268  0.00  0.00    +0.000 C 
BRANCH  16  17
ATOM     17  C   UNL     1      10.813   0.146  23.917  0.00  0.00    +0.000 C 
BRANCH  17  18
ATOM     18  C   UNL     1       9.986  -0.644  22.904  0.00  0.00    +0.000 C 
BRANCH  18  19
ATOM     19  C   UNL     1       9.607   0.230  21.707  0.00  0.00    -0.000 C 
BRANCH  19  20
ATOM     20  C   UNL     1       9.950   1.696  21.967  0.00  0.00    -0.000 C 
BRANCH  20  21
ATOM     21  C   UNL     1       8.709   2.505  22.343  0.00  0.00    -0.003 C 
ATOM     22  C   UNL     1       7.444   1.835  21.835  0.00  0.00    +0.004 C 
ENDBRANCH  20  21
ENDBRANCH  19  20
ENDBRANCH  18  19
ENDBRANCH  17  18
ENDBRANCH  16  17
ENDBRANCH  15  16
ENDBRANCH  14  15
ENDBRANCH  12  14
ENDBRANCH   1  12
TORSDOF 11
ENDMDL
MODEL 3
REMARK VINA RESULT:      -5.3      1.838      3.008
REMARK  Name = 
REMARK  12 active torsions:
REMARK  status: ('A' for Active; 'I' for Inactive)
REMARK    1  A    between atoms: C_2  and  N_8
REMARK    2  A    between atoms: C_9  and  C_11
REMARK    3  A    between atoms: C_11  and  C_12
REMARK    4  A    between atoms: C_12  and  C_14
REMARK    5  A    between atoms: C_14  and  C_15
REMARK    6  A    between atoms: C_15  and  C_16
REMARK    7  A    between atoms: C_16  and  C_17
REMARK    8  A    between atoms: C_17  and  C_18
REMARK    9  A    between atoms: C_18  and  C_19
REMARK   10  A    between atoms: C_19  and  C_20
REMARK   11  A    between atoms: C_20  and  C_21
REMARK   12  A    between atoms: C_21  and  C_22
REMARK                            x       y       z     vdW  Elec       q    Type
REMARK                         _______ _______ _______ _____ _____    ______ ____
ROOT
ATOM      1  C   UNL     1       8.265  -4.155  26.229  0.00  0.00    +0.170 C 
ENDROOT
BRANCH   1   4
ATOM      2  N   UNL     1       6.473  -4.900  24.767  0.00  0.00    -0.302 N 
ATOM      3  H   UNL     1       6.612  -4.022  24.282  0.00  0.00    +0.150 HD
ATOM      4  C   UNL     1       7.121  -5.095  25.967  0.00  0.00    +0.221 C 
ATOM      5  O   UNL     1       6.802  -5.963  26.773  0.00  0.00    -0.275 OA
BRANCH   2   6
ATOM      6  C   UNL     1       5.343  -5.718  24.354  0.00  0.00    +0.185 C 
ATOM      7  C   UNL     1       5.187  -5.861  22.851  0.00  0.00    +0.328 C 
ATOM      8  O   UNL     1       6.097  -6.015  22.048  0.00  0.00    -0.249 OA
ATOM      9  O   UNL     1       3.861  -5.882  22.526  0.00  0.00    -0.463 OA
ATOM     10  C   UNL     1       3.073  -5.775  23.714  0.00  0.00    +0.234 C 
ATOM     11  C   UNL     1       3.978  -5.246  24.798  0.00  0.00    +0.075 C 
ENDBRANCH   2   6
ENDBRANCH   1   4
BRANCH   1  12
ATOM     12  C   UNL     1       9.128  -3.995  25.005  0.00  0.00    +0.142 C 
ATOM     13  O   UNL     1       9.570  -4.986  24.420  0.00  0.00    -0.297 OA
BRANCH  12  14
ATOM     14  C   UNL     1       9.381  -2.578  24.517  0.00  0.00    +0.075 C 
BRANCH  14  15
ATOM     15  C   UNL     1       8.102  -1.747  24.542  0.00  0.00    +0.007 C 
BRANCH  15  16
ATOM     16  C   UNL     1       7.826  -1.052  23.211  0.00  0.00    +0.000 C 
BRANCH  16  17
ATOM     17  C   UNL     1       8.698  -1.658  22.109  0.00  0.00    +0.000 C 
BRANCH  17  18
ATOM     18  C   UNL     1       9.525  -0.595  21.390  0.00  0.00    +0.000 C 
BRANCH  18  19
ATOM     19  C   UNL     1       8.988   0.807  21.682  0.00  0.00    -0.000 C 
BRANCH  19  20
ATOM     20  C   UNL     1      10.102   1.730  22.173  0.00  0.00    -0.000 C 
BRANCH  20  21
ATOM     21  C   UNL     1      10.048   1.920  23.688  0.00  0.00    -0.003 C 
ATOM     22  C   UNL     1      10.939   0.916  24.399  0.00  0.00    +0.004 C 
ENDBRANCH  20  21
ENDBRANCH  19  20
ENDBRANCH  18  19
ENDBRANCH  17  18
ENDBRANCH  16  17
ENDBRANCH  15  16
ENDBRANCH  14  15
ENDBRANCH  12  14
ENDBRANCH   1  12
TORSDOF 11
ENDMDL
MODEL 4
REMARK VINA RESULT:      -5.2      1.547      2.196
REMARK  Name = 
REMARK  12 active torsions:
REMARK  status: ('A' for Active; 'I' for Inactive)
REMARK    1  A    between atoms: C_2  and  N_8
REMARK    2  A    between atoms: C_9  and  C_11
REMARK    3  A    between atoms: C_11  and  C_12
REMARK    4  A    between atoms: C_12  and  C_14
REMARK    5  A    between atoms: C_14  and  C_15
REMARK    6  A    between atoms: C_15  and  C_16
REMARK    7  A    between atoms: C_16  and  C_17
REMARK    8  A    between atoms: C_17  and  C_18
REMARK    9  A    between atoms: C_18  and  C_19
REMARK   10  A    between atoms: C_19  and  C_20
REMARK   11  A    between atoms: C_20  and  C_21
REMARK   12  A    between atoms: C_21  and  C_22
REMARK                            x       y       z     vdW  Elec       q    Type
REMARK                         _______ _______ _______ _____ _____    ______ ____
ROOT
ATOM      1  C   UNL     1       8.948  -2.753  24.517  0.00  0.00    +0.170 C 
ENDROOT
BRANCH   1   4
ATOM      2  N   UNL     1       6.992  -4.077  23.947  0.00  0.00    -0.302 N 
ATOM      3  H   UNL     1       6.459  -3.258  24.213  0.00  0.00    +0.150 HD
ATOM      4  C   UNL     1       8.342  -4.097  24.217  0.00  0.00    +0.221 C 
ATOM      5  O   UNL     1       9.016  -5.122  24.220  0.00  0.00    -0.275 OA
BRANCH   2   6
ATOM      6  C   UNL     1       6.245  -5.287  23.639  0.00  0.00    +0.185 C 
ATOM      7  C   UNL     1       5.365  -5.185  22.407  0.00  0.00    +0.328 C 
ATOM      8  O   UNL     1       5.662  -4.630  21.358  0.00  0.00    -0.249 OA
ATOM      9  O   UNL     1       4.211  -5.888  22.607  0.00  0.00    -0.463 OA
ATOM     10  C   UNL     1       4.232  -6.489  23.903  0.00  0.00    +0.234 C 
ATOM     11  C   UNL     1       5.291  -5.773  24.705  0.00  0.00    +0.075 C 
ENDBRANCH   2   6
ENDBRANCH   1   4
BRANCH   1  12
ATOM     12  C   UNL     1       9.591  -2.162  23.290  0.00  0.00    +0.142 C 
ATOM     13  O   UNL     1      10.770  -2.407  23.024  0.00  0.00    -0.297 OA
BRANCH  12  14
ATOM     14  C   UNL     1       8.714  -1.303  22.394  0.00  0.00    +0.075 C 
BRANCH  14  15
ATOM     15  C   UNL     1       9.554  -0.394  21.503  0.00  0.00    +0.007 C 
BRANCH  15  16
ATOM     16  C   UNL     1       9.078   1.058  21.527  0.00  0.00    +0.000 C 
BRANCH  16  17
ATOM     17  C   UNL     1      10.148   1.952  22.158  0.00  0.00    +0.000 C 
BRANCH  17  18
ATOM     18  C   UNL     1      10.034   1.985  23.680  0.00  0.00    +0.000 C 
BRANCH  18  19
ATOM     19  C   UNL     1       9.040   3.057  24.131  0.00  0.00    -0.000 C 
BRANCH  19  20
ATOM     20  C   UNL     1       8.164   2.546  25.274  0.00  0.00    -0.000 C 
BRANCH  20  21
ATOM     21  C   UNL     1       7.765   1.086  25.067  0.00  0.00    -0.003 C 
ATOM     22  C   UNL     1       6.475   0.978  24.271  0.00  0.00    +0.004 C 
ENDBRANCH  20  21
ENDBRANCH  19  20
ENDBRANCH  18  19
ENDBRANCH  17  18
ENDBRANCH  16  17
ENDBRANCH  15  16
ENDBRANCH  14  15
ENDBRANCH  12  14
ENDBRANCH   1  12
TORSDOF 11
ENDMDL
MODEL 5
REMARK VINA RESULT:      -5.2      1.674      2.498
REMARK  Name = 
REMARK  12 active torsions:
REMARK  status: ('A' for Active; 'I' for Inactive)
REMARK    1  A    between atoms: C_2  and  N_8
REMARK    2  A    between atoms: C_9  and  C_11
REMARK    3  A    between atoms: C_11  and  C_12
REMARK    4  A    between atoms: C_12  and  C_14
REMARK    5  A    between atoms: C_14  and  C_15
REMARK    6  A    between atoms: C_15  and  C_16
REMARK    7  A    between atoms: C_16  and  C_17
REMARK    8  A    between atoms: C_17  and  C_18
REMARK    9  A    between atoms: C_18  and  C_19
REMARK   10  A    between atoms: C_19  and  C_20
REMARK   11  A    between atoms: C_20  and  C_21
REMARK   12  A    between atoms: C_21  and  C_22
REMARK                            x       y       z     vdW  Elec       q    Type
REMARK                         _______ _______ _______ _____ _____    ______ ____
ROOT
ATOM      1  C   UNL     1       9.563  -2.274  24.170  0.00  0.00    +0.170 C 
ENDROOT
BRANCH   1   4
ATOM      2  N   UNL     1       7.655  -3.776  24.257  0.00  0.00    -0.302 N 
ATOM      3  H   UNL     1       7.099  -2.936  24.350  0.00  0.00    +0.150 HD
ATOM      4  C   UNL     1       9.025  -3.668  24.343  0.00  0.00    +0.221 C 
ATOM      5  O   UNL     1       9.767  -4.624  24.546  0.00  0.00    -0.275 OA
BRANCH   2   6
ATOM      6  C   UNL     1       6.967  -5.050  24.402  0.00  0.00    +0.185 C 
ATOM      7  C   UNL     1       6.533  -5.682  23.093  0.00  0.00    +0.328 C 
ATOM      8  O   UNL     1       7.183  -5.703  22.056  0.00  0.00    -0.249 OA
ATOM      9  O   UNL     1       5.332  -6.309  23.261  0.00  0.00    -0.463 OA
ATOM     10  C   UNL     1       4.901  -6.168  24.616  0.00  0.00    +0.234 C 
ATOM     11  C   UNL     1       5.694  -5.033  25.216  0.00  0.00    +0.075 C 
ENDBRANCH   2   6
ENDBRANCH   1   4
BRANCH   1  12
ATOM     12  C   UNL     1       9.375  -1.790  22.756  0.00  0.00    +0.142 C 
ATOM     13  O   UNL     1       8.459  -2.234  22.062  0.00  0.00    -0.297 OA
BRANCH  12  14
ATOM     14  C   UNL     1      10.329  -0.716  22.260  0.00  0.00    +0.075 C 
BRANCH  14  15
ATOM     15  C   UNL     1       9.573   0.445  21.623  0.00  0.00    +0.007 C 
BRANCH  15  16
ATOM     16  C   UNL     1      10.004   1.802  22.175  0.00  0.00    +0.000 C 
BRANCH  16  17
ATOM     17  C   UNL     1      10.255   1.702  23.682  0.00  0.00    +0.000 C 
BRANCH  17  18
ATOM     18  C   UNL     1       9.078   2.244  24.490  0.00  0.00    +0.000 C 
BRANCH  18  19
ATOM     19  C   UNL     1       8.284   1.105  25.132  0.00  0.00    -0.000 C 
BRANCH  19  20
ATOM     20  C   UNL     1       7.092   0.709  24.262  0.00  0.00    -0.000 C 
BRANCH  20  21
ATOM     21  C   UNL     1       6.241  -0.368  24.934  0.00  0.00    -0.003 C 
ATOM     22  C   UNL     1       6.863  -0.822  26.243  0.00  0.00    +0.004 C 
ENDBRANCH  20  21
ENDBRANCH  19  20
ENDBRANCH  18  19
ENDBRANCH  17  18
ENDBRANCH  16  17
ENDBRANCH  15  16
ENDBRANCH  14  15
ENDBRANCH  12  14
ENDBRANCH   1  12
TORSDOF 11
ENDMDL
MODEL 6
REMARK VINA RESULT:      -5.2      2.116      3.916
REMARK  Name = 
REMARK  12 active torsions:
REMARK  status: ('A' for Active; 'I' for Inactive)
REMARK    1  A    between atoms: C_2  and  N_8
REMARK    2  A    between atoms: C_9  and  C_11
REMARK    3  A    between atoms: C_11  and  C_12
REMARK    4  A    between atoms: C_12  and  C_14
REMARK    5  A    between atoms: C_14  and  C_15
REMARK    6  A    between atoms: C_15  and  C_16
REMARK    7  A    between atoms: C_16  and  C_17
REMARK    8  A    between atoms: C_17  and  C_18
REMARK    9  A    between atoms: C_18  and  C_19
REMARK   10  A    between atoms: C_19  and  C_20
REMARK   11  A    between atoms: C_20  and  C_21
REMARK   12  A    between atoms: C_21  and  C_22
REMARK                            x       y       z     vdW  Elec       q    Type
REMARK                         _______ _______ _______ _____ _____    ______ ____
ROOT
ATOM      1  C   UNL     1       8.251  -4.962  26.408  0.00  0.00    +0.170 C 
ENDROOT
BRANCH   1   4
ATOM      2  N   UNL     1       7.290  -4.825  24.181  0.00  0.00    -0.302 N 
ATOM      3  H   UNL     1       6.395  -4.843  24.653  0.00  0.00    +0.150 HD
ATOM      4  C   UNL     1       8.425  -5.078  24.919  0.00  0.00    +0.221 C 
ATOM      5  O   UNL     1       9.504  -5.377  24.417  0.00  0.00    -0.275 OA
BRANCH   2   6
ATOM      6  C   UNL     1       7.279  -4.895  22.728  0.00  0.00    +0.185 C 
ATOM      7  C   UNL     1       6.437  -3.827  22.054  0.00  0.00    +0.328 C 
ATOM      8  O   UNL     1       6.364  -2.653  22.392  0.00  0.00    -0.249 OA
ATOM      9  O   UNL     1       5.829  -4.350  20.949  0.00  0.00    -0.463 OA
ATOM     10  C   UNL     1       6.205  -5.721  20.796  0.00  0.00    +0.234 C 
ATOM     11  C   UNL     1       6.757  -6.178  22.124  0.00  0.00    +0.075 C 
ENDBRANCH   2   6
ENDBRANCH   1   4
BRANCH   1  12
ATOM     12  C   UNL     1       6.817  -5.191  26.807  0.00  0.00    +0.142 C 
ATOM     13  O   UNL     1       6.274  -6.275  26.585  0.00  0.00    -0.297 OA
BRANCH  12  14
ATOM     14  C   UNL     1       6.108  -4.054  27.524  0.00  0.00    +0.075 C 
BRANCH  14  15
ATOM     15  C   UNL     1       5.759  -2.924  26.560  0.00  0.00    +0.007 C 
BRANCH  15  16
ATOM     16  C   UNL     1       6.597  -1.669  26.795  0.00  0.00    +0.000 C 
BRANCH  16  17
ATOM     17  C   UNL     1       7.230  -1.206  25.480  0.00  0.00    +0.000 C 
BRANCH  17  18
ATOM     18  C   UNL     1       8.750  -1.339  25.505  0.00  0.00    +0.000 C 
BRANCH  18  19
ATOM     19  C   UNL     1       9.313  -1.458  24.088  0.00  0.00    -0.000 C 
BRANCH  19  20
ATOM     20  C   UNL     1      10.338  -0.360  23.810  0.00  0.00    -0.000 C 
BRANCH  20  21
ATOM     21  C   UNL     1       9.933   0.495  22.610  0.00  0.00    -0.003 C 
ATOM     22  C   UNL     1       9.433  -0.368  21.466  0.00  0.00    +0.004 C 
ENDBRANCH  20  21
ENDBRANCH  19  20
ENDBRANCH  18  19
ENDBRANCH  17  18
ENDBRANCH  16  17
ENDBRANCH  15  16
ENDBRANCH  14  15
ENDBRANCH  12  14
ENDBRANCH   1  12
TORSDOF 11
ENDMDL
MODEL 7
REMARK VINA RESULT:      -5.1      1.227      1.923
REMARK  Name = 
REMARK  12 active torsions:
REMARK  status: ('A' for Active; 'I' for Inactive)
REMARK    1  A    between atoms: C_2  and  N_8
REMARK    2  A    between atoms: C_9  and  C_11
REMARK    3  A    between atoms: C_11  and  C_12
REMARK    4  A    between atoms: C_12  and  C_14
REMARK    5  A    between atoms: C_14  and  C_15
REMARK    6  A    between atoms: C_15  and  C_16
REMARK    7  A    between atoms: C_16  and  C_17
REMARK    8  A    between atoms: C_17  and  C_18
REMARK    9  A    between atoms: C_18  and  C_19
REMARK   10  A    between atoms: C_19  and  C_20
REMARK   11  A    between atoms: C_20  and  C_21
REMARK   12  A    between atoms: C_21  and  C_22
REMARK                            x       y       z     vdW  Elec       q    Type
REMARK                         _______ _______ _______ _____ _____    ______ ____
ROOT
ATOM      1  C   UNL     1       9.106  -3.035  24.842  0.00  0.00    +0.170 C 
ENDROOT
BRANCH   1   4
ATOM      2  N   UNL     1       7.061  -4.147  24.145  0.00  0.00    -0.302 N 
ATOM      3  H   UNL     1       6.584  -3.361  24.567  0.00  0.00    +0.150 HD
ATOM      4  C   UNL     1       8.418  -4.278  24.349  0.00  0.00    +0.221 C 
ATOM      5  O   UNL     1       9.033  -5.320  24.151  0.00  0.00    -0.275 OA
BRANCH   2   6
ATOM      6  C   UNL     1       6.240  -5.250  23.671  0.00  0.00    +0.185 C 
ATOM      7  C   UNL     1       5.374  -4.918  22.470  0.00  0.00    +0.328 C 
ATOM      8  O   UNL     1       5.711  -4.240  21.509  0.00  0.00    -0.249 OA
ATOM      9  O   UNL     1       4.176  -5.565  22.573  0.00  0.00    -0.463 OA
ATOM     10  C   UNL     1       4.152  -6.344  23.771  0.00  0.00    +0.234 C 
ATOM     11  C   UNL     1       5.251  -5.820  24.662  0.00  0.00    +0.075 C 
ENDBRANCH   2   6
ENDBRANCH   1   4
BRANCH   1  12
ATOM     12  C   UNL     1       8.349  -2.412  25.986  0.00  0.00    +0.142 C 
ATOM     13  O   UNL     1       7.626  -3.104  26.705  0.00  0.00    -0.297 OA
BRANCH  12  14
ATOM     14  C   UNL     1       8.559  -0.926  26.226  0.00  0.00    +0.075 C 
BRANCH  14  15
ATOM     15  C   UNL     1       9.652  -0.367  25.321  0.00  0.00    +0.007 C 
BRANCH  15  16
ATOM     16  C   UNL     1       9.376   1.069  24.882  0.00  0.00    +0.000 C 
BRANCH  16  17
ATOM     17  C   UNL     1      10.610   1.653  24.188  0.00  0.00    +0.000 C 
BRANCH  17  18
ATOM     18  C   UNL     1      10.251   2.326  22.866  0.00  0.00    +0.000 C 
BRANCH  18  19
ATOM     19  C   UNL     1       8.810   2.008  22.463  0.00  0.00    -0.000 C 
BRANCH  19  20
ATOM     20  C   UNL     1       8.770   1.171  21.184  0.00  0.00    -0.000 C 
BRANCH  20  21
ATOM     21  C   UNL     1       9.482  -0.168  21.368  0.00  0.00    -0.003 C 
ATOM     22  C   UNL     1       8.548  -1.209  21.960  0.00  0.00    +0.004 C 
ENDBRANCH  20  21
ENDBRANCH  19  20
ENDBRANCH  18  19
ENDBRANCH  17  18
ENDBRANCH  16  17
ENDBRANCH  15  16
ENDBRANCH  14  15
ENDBRANCH  12  14
ENDBRANCH   1  12
TORSDOF 11
ENDMDL
MODEL 8
REMARK VINA RESULT:      -5.1      2.163      3.214
REMARK  Name = 
REMARK  12 active torsions:
REMARK  status: ('A' for Active; 'I' for Inactive)
REMARK    1  A    between atoms: C_2  and  N_8
REMARK    2  A    between atoms: C_9  and  C_11
REMARK    3  A    between atoms: C_11  and  C_12
REMARK    4  A    between atoms: C_12  and  C_14
REMARK    5  A    between atoms: C_14  and  C_15
REMARK    6  A    between atoms: C_15  and  C_16
REMARK    7  A    between atoms: C_16  and  C_17
REMARK    8  A    between atoms: C_17  and  C_18
REMARK    9  A    between atoms: C_18  and  C_19
REMARK   10  A    between atoms: C_19  and  C_20
REMARK   11  A    between atoms: C_20  and  C_21
REMARK   12  A    between atoms: C_21  and  C_22
REMARK                            x       y       z     vdW  Elec       q    Type
REMARK                         _______ _______ _______ _____ _____    ______ ____
ROOT
ATOM      1  C   UNL     1       9.043  -1.483  24.891  0.00  0.00    +0.170 C 
ENDROOT
BRANCH   1   4
ATOM      2  N   UNL     1       7.552  -3.389  25.109  0.00  0.00    -0.302 N 
ATOM      3  H   UNL     1       7.860  -3.635  24.177  0.00  0.00    +0.150 HD
ATOM      4  C   UNL     1       7.912  -2.159  25.615  0.00  0.00    +0.221 C 
ATOM      5  O   UNL     1       7.361  -1.639  26.580  0.00  0.00    -0.275 OA
BRANCH   2   6
ATOM      6  C   UNL     1       6.476  -4.180  25.687  0.00  0.00    +0.185 C 
ATOM      7  C   UNL     1       6.938  -5.267  26.640  0.00  0.00    +0.328 C 
ATOM      8  O   UNL     1       7.835  -5.162  27.466  0.00  0.00    -0.249 OA
ATOM      9  O   UNL     1       6.140  -6.367  26.504  0.00  0.00    -0.463 OA
ATOM     10  C   UNL     1       5.136  -6.114  25.519  0.00  0.00    +0.234 C 
ATOM     11  C   UNL     1       5.599  -4.928  24.710  0.00  0.00    +0.075 C 
ENDBRANCH   2   6
ENDBRANCH   1   4
BRANCH   1  12
ATOM     12  C   UNL     1       9.583  -2.357  23.790  0.00  0.00    +0.142 C 
ATOM     13  O   UNL     1      10.147  -3.420  24.057  0.00  0.00    -0.297 OA
BRANCH  12  14
ATOM     14  C   UNL     1       9.359  -1.887  22.362  0.00  0.00    +0.075 C 
BRANCH  14  15
ATOM     15  C   UNL     1       9.971  -0.510  22.129  0.00  0.00    +0.007 C 
BRANCH  15  16
ATOM     16  C   UNL     1       9.079   0.396  21.284  0.00  0.00    +0.000 C 
BRANCH  16  17
ATOM     17  C   UNL     1       9.182   1.842  21.775  0.00  0.00    +0.000 C 
BRANCH  17  18
ATOM     18  C   UNL     1      10.290   2.011  22.813  0.00  0.00    +0.000 C 
BRANCH  18  19
ATOM     19  C   UNL     1      10.022   3.222  23.707  0.00  0.00    -0.000 C 
BRANCH  19  20
ATOM     20  C   UNL     1       8.535   3.343  24.036  0.00  0.00    -0.000 C 
BRANCH  20  21
ATOM     21  C   UNL     1       8.143   2.438  25.204  0.00  0.00    -0.003 C 
ATOM     22  C   UNL     1       6.963   1.553  24.839  0.00  0.00    +0.004 C 
ENDBRANCH  20  21
ENDBRANCH  19  20
ENDBRANCH  18  19
ENDBRANCH  17  18
ENDBRANCH  16  17
ENDBRANCH  15  16
ENDBRANCH  14  15
ENDBRANCH  12  14
ENDBRANCH   1  12
TORSDOF 11
ENDMDL
MODEL 9
REMARK VINA RESULT:      -5.1      1.395      2.749
REMARK  Name = 
REMARK  12 active torsions:
REMARK  status: ('A' for Active; 'I' for Inactive)
REMARK    1  A    between atoms: C_2  and  N_8
REMARK    2  A    between atoms: C_9  and  C_11
REMARK    3  A    between atoms: C_11  and  C_12
REMARK    4  A    between atoms: C_12  and  C_14
REMARK    5  A    between atoms: C_14  and  C_15
REMARK    6  A    between atoms: C_15  and  C_16
REMARK    7  A    between atoms: C_16  and  C_17
REMARK    8  A    between atoms: C_17  and  C_18
REMARK    9  A    between atoms: C_18  and  C_19
REMARK   10  A    between atoms: C_19  and  C_20
REMARK   11  A    between atoms: C_20  and  C_21
REMARK   12  A    between atoms: C_21  and  C_22
REMARK                            x       y       z     vdW  Elec       q    Type
REMARK                         _______ _______ _______ _____ _____    ______ ____
ROOT
ATOM      1  C   UNL     1       8.621  -2.344  25.796  0.00  0.00    +0.170 C 
ENDROOT
BRANCH   1   4
ATOM      2  N   UNL     1       7.473  -3.471  23.974  0.00  0.00    -0.302 N 
ATOM      3  H   UNL     1       6.693  -3.542  24.616  0.00  0.00    +0.150 HD
ATOM      4  C   UNL     1       8.686  -3.037  24.463  0.00  0.00    +0.221 C 
ATOM      5  O   UNL     1       9.748  -3.196  23.870  0.00  0.00    -0.275 OA
BRANCH   2   6
ATOM      6  C   UNL     1       7.353  -4.162  22.700  0.00  0.00    +0.185 C 
ATOM      7  C   UNL     1       6.014  -3.980  22.010  0.00  0.00    +0.328 C 
ATOM      8  O   UNL     1       5.373  -2.939  21.954  0.00  0.00    -0.249 OA
ATOM      9  O   UNL     1       5.661  -5.137  21.377  0.00  0.00    -0.463 OA
ATOM     10  C   UNL     1       6.680  -6.120  21.569  0.00  0.00    +0.234 C 
ATOM     11  C   UNL     1       7.520  -5.663  22.736  0.00  0.00    +0.075 C 
ENDBRANCH   2   6
ENDBRANCH   1   4
BRANCH   1  12
ATOM     12  C   UNL     1       7.273  -1.707  26.012  0.00  0.00    +0.142 C 
ATOM     13  O   UNL     1       6.337  -2.367  26.465  0.00  0.00    -0.297 OA
BRANCH  12  14
ATOM     14  C   UNL     1       7.148  -0.226  25.689  0.00  0.00    +0.075 C 
BRANCH  14  15
ATOM     15  C   UNL     1       6.135   0.014  24.574  0.00  0.00    +0.007 C 
BRANCH  15  16
ATOM     16  C   UNL     1       6.780   0.047  23.190  0.00  0.00    +0.000 C 
BRANCH  16  17
ATOM     17  C   UNL     1       6.680   1.454  22.597  0.00  0.00    +0.000 C 
BRANCH  17  18
ATOM     18  C   UNL     1       7.967   2.250  22.803  0.00  0.00    +0.000 C 
BRANCH  18  19
ATOM     19  C   UNL     1       9.057   1.785  21.836  0.00  0.00    -0.000 C 
BRANCH  19  20
ATOM     20  C   UNL     1      10.384   1.576  22.565  0.00  0.00    -0.000 C 
BRANCH  20  21
ATOM     21  C   UNL     1      10.388   0.270  23.359  0.00  0.00    -0.003 C 
ATOM     22  C   UNL     1      10.706   0.519  24.823  0.00  0.00    +0.004 C 
ENDBRANCH  20  21
ENDBRANCH  19  20
ENDBRANCH  18  19
ENDBRANCH  17  18
ENDBRANCH  16  17
ENDBRANCH  15  16
ENDBRANCH  14  15
ENDBRANCH  12  14
ENDBRANCH   1  12
TORSDOF 11
ENDMDL
