MODEL 1
REMARK VINA RESULT:      -4.3      0.000      0.000
REMARK  Name = 
REMARK  0 active torsions:
REMARK  status: ('A' for Active; 'I' for Inactive)
REMARK                            x       y       z     vdW  Elec       q    Type
REMARK                         _______ _______ _______ _____ _____    ______ ____
ROOT
ATOM      1  I   UNL     1       9.380  -2.295  23.950  0.00  0.00    -0.070 I 
ATOM      2  C   UNL     1       8.254  -3.809  24.941  0.00  0.00    +0.155 C 
ATOM      3  C   UNL     1       9.168  -4.897  25.483  0.00  0.00    +0.235 C 
ATOM      4  O   UNL     1      10.228  -5.243  24.965  0.00  0.00    -0.274 OA
ATOM      5  N   UNL     1       8.689  -5.588  26.573  0.00  0.00    -0.239 N 
ATOM      6  H   UNL     1       9.230  -6.385  26.876  0.00  0.00    +0.159 HD
ATOM      7  C   UNL     1       7.526  -5.358  27.252  0.00  0.00    +0.306 C 
ATOM      8  O   UNL     1       7.116  -6.105  28.130  0.00  0.00    -0.252 OA
ATOM      9  N   UNL     1       6.841  -4.238  26.886  0.00  0.00    -0.298 N 
ATOM     10  H   UNL     1       6.059  -4.015  27.492  0.00  0.00    +0.150 HD
ATOM     11  C   UNL     1       7.472  -3.207  26.100  0.00  0.00    +0.129 C 
ENDROOT
TORSDOF 0
ENDMDL
MODEL 2
REMARK VINA RESULT:      -4.2      2.552      3.649
REMARK  Name = 
REMARK  0 active torsions:
REMARK  status: ('A' for Active; 'I' for Inactive)
REMARK                            x       y       z     vdW  Elec       q    Type
REMARK                         _______ _______ _______ _____ _____    ______ ____
ROOT
ATOM      1  I   UNL     1       4.444  -6.055  26.465  0.00  0.00    -0.070 I 
ATOM      2  C   UNL     1       6.304  -5.089  26.083  0.00  0.00    +0.155 C 
ATOM      3  C   UNL     1       7.398  -5.645  26.981  0.00  0.00    +0.235 C 
ATOM      4  O   UNL     1       7.219  -6.073  28.119  0.00  0.00    -0.274 OA
ATOM      5  N   UNL     1       8.680  -5.549  26.487  0.00  0.00    -0.239 N 
ATOM      6  H   UNL     1       9.426  -5.809  27.116  0.00  0.00    +0.159 HD
ATOM      7  C   UNL     1       9.061  -5.076  25.264  0.00  0.00    +0.306 C 
ATOM      8  O   UNL     1      10.234  -4.906  24.959  0.00  0.00    -0.252 OA
ATOM      9  N   UNL     1       8.048  -4.798  24.397  0.00  0.00    -0.298 N 
ATOM     10  H   UNL     1       8.356  -4.580  23.455  0.00  0.00    +0.150 HD
ATOM     11  C   UNL     1       6.714  -5.295  24.631  0.00  0.00    +0.129 C 
ENDROOT
TORSDOF 0
ENDMDL
MODEL 3
REMARK VINA RESULT:      -4.1      6.443      7.364
REMARK  Name = 
REMARK  0 active torsions:
REMARK  status: ('A' for Active; 'I' for Inactive)
REMARK                            x       y       z     vdW  Elec       q    Type
REMARK                         _______ _______ _______ _____ _____    ______ ____
ROOT
ATOM      1  I   UNL     1       8.709  -1.810  22.654  0.00  0.00    -0.070 I 
ATOM      2  C   UNL     1       9.023   0.275  22.958  0.00  0.00    +0.155 C 
ATOM      3  C   UNL     1       9.917   0.518  24.164  0.00  0.00    +0.235 C 
ATOM      4  O   UNL     1       9.959  -0.200  25.160  0.00  0.00    -0.274 OA
ATOM      5  N   UNL     1      10.639   1.690  24.143  0.00  0.00    -0.239 N 
ATOM      6  H   UNL     1      11.149   1.921  24.984  0.00  0.00    +0.159 HD
ATOM      7  C   UNL     1      10.688   2.613  23.137  0.00  0.00    +0.306 C 
ATOM      8  O   UNL     1      11.255   3.691  23.259  0.00  0.00    -0.252 OA
ATOM      9  N   UNL     1      10.059   2.261  21.982  0.00  0.00    -0.298 N 
ATOM     10  H   UNL     1      10.225   2.897  21.209  0.00  0.00    +0.150 HD
ATOM     11  C   UNL     1       9.682   0.891  21.731  0.00  0.00    +0.129 C 
ENDROOT
TORSDOF 0
ENDMDL
MODEL 4
REMARK VINA RESULT:      -3.9      5.609      6.463
REMARK  Name = 
REMARK  0 active torsions:
REMARK  status: ('A' for Active; 'I' for Inactive)
REMARK                            x       y       z     vdW  Elec       q    Type
REMARK                         _______ _______ _______ _____ _____    ______ ____
ROOT
ATOM      1  I   UNL     1       7.796   3.009  22.436  0.00  0.00    -0.070 I 
ATOM      2  C   UNL     1       9.308   1.507  22.435  0.00  0.00    +0.155 C 
ATOM      3  C   UNL     1       9.390   0.821  23.790  0.00  0.00    +0.235 C 
ATOM      4  O   UNL     1       9.148   1.363  24.866  0.00  0.00    -0.274 OA
ATOM      5  N   UNL     1       9.872  -0.469  23.775  0.00  0.00    -0.239 N 
ATOM      6  H   UNL     1      10.039  -0.899  24.673  0.00  0.00    +0.159 HD
ATOM      7  C   UNL     1      10.216  -1.210  22.681  0.00  0.00    +0.306 C 
ATOM      8  O   UNL     1      10.760  -2.304  22.769  0.00  0.00    -0.252 OA
ATOM      9  N   UNL     1       9.919  -0.654  21.473  0.00  0.00    -0.298 N 
ATOM     10  H   UNL     1      10.056  -1.277  20.684  0.00  0.00    +0.150 HD
ATOM     11  C   UNL     1       9.004   0.457  21.375  0.00  0.00    +0.129 C 
ENDROOT
TORSDOF 0
ENDMDL
MODEL 5
REMARK VINA RESULT:      -3.8      5.239      6.108
REMARK  Name = 
REMARK  0 active torsions:
REMARK  status: ('A' for Active; 'I' for Inactive)
REMARK                            x       y       z     vdW  Elec       q    Type
REMARK                         _______ _______ _______ _____ _____    ______ ____
ROOT
ATOM      1  I   UNL     1       8.473  -3.110  24.221  0.00  0.00    -0.070 I 
ATOM      2  C   UNL     1       9.841  -1.475  24.207  0.00  0.00    +0.155 C 
ATOM      3  C   UNL     1       9.877  -0.811  22.839  0.00  0.00    +0.235 C 
ATOM      4  O   UNL     1       9.699  -1.395  21.772  0.00  0.00    -0.274 OA
ATOM      5  N   UNL     1      10.239   0.517  22.833  0.00  0.00    -0.239 N 
ATOM      6  H   UNL     1      10.377   0.943  21.927  0.00  0.00    +0.159 HD
ATOM      7  C   UNL     1      10.499   1.308  23.915  0.00  0.00    +0.306 C 
ATOM      8  O   UNL     1      10.941   2.445  23.809  0.00  0.00    -0.252 OA
ATOM      9  N   UNL     1      10.239   0.751  25.130  0.00  0.00    -0.298 N 
ATOM     10  H   UNL     1      10.309   1.399  25.907  0.00  0.00    +0.150 HD
ATOM     11  C   UNL     1       9.430  -0.438  25.242  0.00  0.00    +0.129 C 
ENDROOT
TORSDOF 0
ENDMDL
MODEL 6
REMARK VINA RESULT:      -3.8      3.605      3.949
REMARK  Name = 
REMARK  0 active torsions:
REMARK  status: ('A' for Active; 'I' for Inactive)
REMARK                            x       y       z     vdW  Elec       q    Type
REMARK                         _______ _______ _______ _____ _____    ______ ____
ROOT
ATOM      1  I   UNL     1       9.657  -2.159  23.378  0.00  0.00    -0.070 I 
ATOM      2  C   UNL     1       7.896  -3.053  22.577  0.00  0.00    +0.155 C 
ATOM      3  C   UNL     1       7.619  -4.393  23.241  0.00  0.00    +0.235 C 
ATOM      4  O   UNL     1       8.483  -5.156  23.666  0.00  0.00    -0.274 OA
ATOM      5  N   UNL     1       6.300  -4.789  23.254  0.00  0.00    -0.239 N 
ATOM      6  H   UNL     1       6.113  -5.724  23.588  0.00  0.00    +0.159 HD
ATOM      7  C   UNL     1       5.221  -4.085  22.801  0.00  0.00    +0.306 C 
ATOM      8  O   UNL     1       4.099  -4.569  22.733  0.00  0.00    -0.252 OA
ATOM      9  N   UNL     1       5.471  -2.800  22.422  0.00  0.00    -0.298 N 
ATOM     10  H   UNL     1       4.638  -2.258  22.221  0.00  0.00    +0.150 HD
ATOM     11  C   UNL     1       6.697  -2.141  22.801  0.00  0.00    +0.129 C 
ENDROOT
TORSDOF 0
ENDMDL
MODEL 7
REMARK VINA RESULT:      -3.8      2.853      3.606
REMARK  Name = 
REMARK  0 active torsions:
REMARK  status: ('A' for Active; 'I' for Inactive)
REMARK                            x       y       z     vdW  Elec       q    Type
REMARK                         _______ _______ _______ _____ _____    ______ ____
ROOT
ATOM      1  I   UNL     1       4.327  -5.007  26.655  0.00  0.00    -0.070 I 
ATOM      2  C   UNL     1       6.260  -5.641  26.018  0.00  0.00    +0.155 C 
ATOM      3  C   UNL     1       6.685  -4.900  24.760  0.00  0.00    +0.235 C 
ATOM      4  O   UNL     1       5.916  -4.504  23.887  0.00  0.00    -0.274 OA
ATOM      5  N   UNL     1       8.044  -4.776  24.573  0.00  0.00    -0.239 N 
ATOM      6  H   UNL     1       8.345  -4.389  23.690  0.00  0.00    +0.159 HD
ATOM      7  C   UNL     1       9.035  -5.183  25.420  0.00  0.00    +0.306 C 
ATOM      8  O   UNL     1      10.220  -5.150  25.113  0.00  0.00    -0.252 OA
ATOM      9  N   UNL     1       8.623  -5.635  26.637  0.00  0.00    -0.298 N 
ATOM     10  H   UNL     1       9.377  -5.801  27.295  0.00  0.00    +0.150 HD
ATOM     11  C   UNL     1       7.286  -5.374  27.111  0.00  0.00    +0.129 C 
ENDROOT
TORSDOF 0
ENDMDL
MODEL 8
REMARK VINA RESULT:      -3.8      4.280      4.827
REMARK  Name = 
REMARK  0 active torsions:
REMARK  status: ('A' for Active; 'I' for Inactive)
REMARK                            x       y       z     vdW  Elec       q    Type
REMARK                         _______ _______ _______ _____ _____    ______ ____
ROOT
ATOM      1  I   UNL     1       6.403  -5.289  26.404  0.00  0.00    -0.070 I 
ATOM      2  C   UNL     1       5.926  -4.931  24.357  0.00  0.00    +0.155 C 
ATOM      3  C   UNL     1       7.187  -4.683  23.544  0.00  0.00    +0.235 C 
ATOM      4  O   UNL     1       8.207  -4.152  23.977  0.00  0.00    -0.274 OA
ATOM      5  N   UNL     1       7.102  -4.996  22.205  0.00  0.00    -0.239 N 
ATOM      6  H   UNL     1       7.889  -4.733  21.630  0.00  0.00    +0.159 HD
ATOM      7  C   UNL     1       6.043  -5.561  21.555  0.00  0.00    +0.306 C 
ATOM      8  O   UNL     1       6.007  -5.685  20.337  0.00  0.00    -0.252 OA
ATOM      9  N   UNL     1       5.017  -5.979  22.348  0.00  0.00    -0.298 N 
ATOM     10  H   UNL     1       4.308  -6.516  21.859  0.00  0.00    +0.150 HD
ATOM     11  C   UNL     1       5.196  -6.130  23.771  0.00  0.00    +0.129 C 
ENDROOT
TORSDOF 0
ENDMDL
MODEL 9
REMARK VINA RESULT:      -3.7      4.811      5.506
REMARK  Name = 
REMARK  0 active torsions:
REMARK  status: ('A' for Active; 'I' for Inactive)
REMARK                            x       y       z     vdW  Elec       q    Type
REMARK                         _______ _______ _______ _____ _____    ______ ____
ROOT
ATOM      1  I   UNL     1       8.801   2.906  23.862  0.00  0.00    -0.070 I 
ATOM      2  C   UNL     1       8.708   0.780  23.741  0.00  0.00    +0.155 C 
ATOM      3  C   UNL     1       9.583   0.264  22.609  0.00  0.00    +0.235 C 
ATOM      4  O   UNL     1       9.804   0.870  21.563  0.00  0.00    -0.274 OA
ATOM      5  N   UNL     1      10.057  -1.020  22.762  0.00  0.00    -0.239 N 
ATOM      6  H   UNL     1      10.544  -1.418  21.971  0.00  0.00    +0.159 HD
ATOM      7  C   UNL     1       9.884  -1.842  23.838  0.00  0.00    +0.306 C 
ATOM      8  O   UNL     1      10.231  -3.016  23.834  0.00  0.00    -0.252 OA
ATOM      9  N   UNL     1       9.293  -1.274  24.926  0.00  0.00    -0.298 N 
ATOM     10  H   UNL     1       9.299  -1.859  25.755  0.00  0.00    +0.150 HD
ATOM     11  C   UNL     1       9.185   0.159  25.047  0.00  0.00    +0.129 C 
ENDROOT
TORSDOF 0
ENDMDL
