MODEL 1
REMARK VINA RESULT:      -5.3      0.000      0.000
REMARK  Name = 
REMARK  18 active torsions:
REMARK  status: ('A' for Active; 'I' for Inactive)
REMARK    1  A    between atoms: C_2  and  C_3
REMARK    2  A    between atoms: C_2  and  C_4
REMARK    3  A    between atoms: C_2  and  C_10
REMARK    4  A    between atoms: C_4  and  C_5
REMARK    5  A    between atoms: C_5  and  C_6
REMARK    6  A    between atoms: C_6  and  C_7
REMARK    7  A    between atoms: C_7  and  C_8
REMARK    8  A    between atoms: C_7  and  C_9
REMARK    9  A    between atoms: C_10  and  C_11
REMARK   10  A    between atoms: C_11  and  C_12
REMARK   11  A    between atoms: C_12  and  C_13
REMARK   12  A    between atoms: C_13  and  C_15
REMARK   13  A    between atoms: C_13  and  C_16
REMARK   14  A    between atoms: C_16  and  C_17
REMARK   15  A    between atoms: C_17  and  O_19
REMARK   16  A    between atoms: C_17  and  P_20
REMARK   17  A    between atoms: P_20  and  O_21
REMARK   18  A    between atoms: P_20  and  O_22
REMARK                            x       y       z     vdW  Elec       q    Type
REMARK                         _______ _______ _______ _____ _____    ______ ____
ROOT
ATOM      1  C   UNL     1       7.003  -4.707  23.362  0.00  0.00    -0.011 C 
ATOM      2  C   UNL     1       6.977  -5.844  22.333  0.00  0.00    +0.007 C 
ENDROOT
BRANCH   1   3
ATOM      3  C   UNL     1       6.597  -3.350  22.736  0.00  0.00    +0.003 C 
BRANCH   3   4
ATOM      4  C   UNL     1       7.820  -2.566  22.283  0.00  0.00    +0.001 C 
BRANCH   4   5
ATOM      5  C   UNL     1       7.860  -1.136  22.820  0.00  0.00    +0.003 C 
BRANCH   5   6
ATOM      6  C   UNL     1       7.882  -1.090  24.363  0.00  0.00    -0.014 C 
ATOM      7  C   UNL     1       6.964   0.020  24.894  0.00  0.00    +0.007 C 
BRANCH   6   8
ATOM      8  C   UNL     1       9.324  -0.942  24.887  0.00  0.00    +0.003 C 
BRANCH   8   9
ATOM      9  C   UNL     1      10.298  -0.363  23.865  0.00  0.00    +0.001 C 
BRANCH   9  10
ATOM     10  C   UNL     1      10.867   0.976  24.353  0.00  0.00    +0.003 C 
BRANCH  10  11
ATOM     11  C   UNL     1      10.424   2.166  23.480  0.00  0.00    -0.017 C 
ATOM     12  C   UNL     1       9.297   2.929  24.174  0.00  0.00    +0.007 C 
ATOM     13  C   UNL     1       9.981   1.719  22.089  0.00  0.00    +0.007 C 
ENDBRANCH  10  11
ENDBRANCH   9  10
ENDBRANCH   8   9
ENDBRANCH   6   8
ENDBRANCH   5   6
ENDBRANCH   4   5
ENDBRANCH   3   4
ENDBRANCH   1   3
BRANCH   1  14
ATOM     14  C   UNL     1       8.396  -4.654  24.008  0.00  0.00    +0.047 C 
BRANCH  14  15
ATOM     15  C   UNL     1       8.513  -5.505  25.268  0.00  0.00    +0.228 C 
BRANCH  15  16
ATOM     16  P   UNL     1       7.464  -4.833  26.608  0.00  0.00    +0.356 P 
ATOM     17  O   UNL     1       6.576  -4.265  27.742  0.00  0.00    -0.256 OA
BRANCH  16  18
ATOM     18  O   UNL     1       8.699  -3.797  26.993  0.00  0.00    -0.322 OA
ATOM     19  H   UNL     1       9.245  -4.098  27.753  0.00  0.00    +0.220 HD
ENDBRANCH  16  18
BRANCH  16  20
ATOM     20  O   UNL     1       7.987  -6.078  27.552  0.00  0.00    -0.322 OA
ATOM     21  H   UNL     1       8.856  -5.778  27.898  0.00  0.00    +0.220 HD
ENDBRANCH  16  20
ENDBRANCH  15  16
BRANCH  15  22
ATOM     22  O   UNL     1       9.892  -5.627  25.675  0.00  0.00    -0.380 OA
ATOM     23  H   UNL     1       9.939  -6.478  26.160  0.00  0.00    +0.211 HD
ENDBRANCH  15  22
ENDBRANCH  14  15
ENDBRANCH   1  14
TORSDOF 14
ENDMDL
MODEL 2
REMARK VINA RESULT:      -5.2      4.781      6.863
REMARK  Name = 
REMARK  18 active torsions:
REMARK  status: ('A' for Active; 'I' for Inactive)
REMARK    1  A    between atoms: C_2  and  C_3
REMARK    2  A    between atoms: C_2  and  C_4
REMARK    3  A    between atoms: C_2  and  C_10
REMARK    4  A    between atoms: C_4  and  C_5
REMARK    5  A    between atoms: C_5  and  C_6
REMARK    6  A    between atoms: C_6  and  C_7
REMARK    7  A    between atoms: C_7  and  C_8
REMARK    8  A    between atoms: C_7  and  C_9
REMARK    9  A    between atoms: C_10  and  C_11
REMARK   10  A    between atoms: C_11  and  C_12
REMARK   11  A    between atoms: C_12  and  C_13
REMARK   12  A    between atoms: C_13  and  C_15
REMARK   13  A    between atoms: C_13  and  C_16
REMARK   14  A    between atoms: C_16  and  C_17
REMARK   15  A    between atoms: C_17  and  O_19
REMARK   16  A    between atoms: C_17  and  P_20
REMARK   17  A    between atoms: P_20  and  O_21
REMARK   18  A    between atoms: P_20  and  O_22
REMARK                            x       y       z     vdW  Elec       q    Type
REMARK                         _______ _______ _______ _____ _____    ______ ____
ROOT
ATOM      1  C   UNL     1       8.739  -0.028  22.364  0.00  0.00    -0.011 C 
ATOM      2  C   UNL     1       7.289   0.203  22.809  0.00  0.00    +0.007 C 
ENDROOT
BRANCH   1   3
ATOM      3  C   UNL     1       9.066  -1.535  22.214  0.00  0.00    +0.003 C 
BRANCH   3   4
ATOM      4  C   UNL     1      10.047  -1.993  23.283  0.00  0.00    +0.001 C 
BRANCH   4   5
ATOM      5  C   UNL     1       9.481  -3.068  24.210  0.00  0.00    +0.003 C 
BRANCH   5   6
ATOM      6  C   UNL     1       8.225  -2.585  24.967  0.00  0.00    -0.014 C 
ATOM      7  C   UNL     1       8.608  -1.684  26.150  0.00  0.00    +0.007 C 
BRANCH   6   8
ATOM      8  C   UNL     1       7.359  -3.780  25.412  0.00  0.00    +0.003 C 
BRANCH   8   9
ATOM      9  C   UNL     1       7.547  -5.031  24.561  0.00  0.00    +0.001 C 
BRANCH   9  10
ATOM     10  C   UNL     1       6.375  -5.208  23.586  0.00  0.00    +0.003 C 
BRANCH  10  11
ATOM     11  C   UNL     1       6.669  -4.632  22.187  0.00  0.00    -0.017 C 
ATOM     12  C   UNL     1       5.866  -3.351  21.973  0.00  0.00    +0.007 C 
ATOM     13  C   UNL     1       6.363  -5.639  21.081  0.00  0.00    +0.007 C 
ENDBRANCH  10  11
ENDBRANCH   9  10
ENDBRANCH   8   9
ENDBRANCH   6   8
ENDBRANCH   5   6
ENDBRANCH   4   5
ENDBRANCH   3   4
ENDBRANCH   1   3
BRANCH   1  14
ATOM     14  C   UNL     1       9.680   0.673  23.355  0.00  0.00    +0.047 C 
BRANCH  14  15
ATOM     15  C   UNL     1      10.203   2.014  22.849  0.00  0.00    +0.228 C 
BRANCH  15  16
ATOM     16  P   UNL     1       9.453   3.399  23.778  0.00  0.00    +0.356 P 
ATOM     17  O   UNL     1       8.818   4.572  24.566  0.00  0.00    -0.256 OA
BRANCH  16  18
ATOM     18  O   UNL     1       8.460   3.672  22.480  0.00  0.00    -0.322 OA
ATOM     19  H   UNL     1       8.850   4.269  21.803  0.00  0.00    +0.220 HD
ENDBRANCH  16  18
BRANCH  16  20
ATOM     20  O   UNL     1      10.694   4.342  23.244  0.00  0.00    -0.322 OA
ATOM     21  H   UNL     1      10.255   5.113  22.822  0.00  0.00    +0.220 HD
ENDBRANCH  16  20
ENDBRANCH  15  16
BRANCH  15  22
ATOM     22  O   UNL     1       9.988   2.141  21.427  0.00  0.00    -0.380 OA
ATOM     23  H   UNL     1       9.339   1.440  21.206  0.00  0.00    +0.211 HD
ENDBRANCH  15  22
ENDBRANCH  14  15
ENDBRANCH   1  14
TORSDOF 14
ENDMDL
MODEL 3
REMARK VINA RESULT:      -5.2      2.900      3.548
REMARK  Name = 
REMARK  18 active torsions:
REMARK  status: ('A' for Active; 'I' for Inactive)
REMARK    1  A    between atoms: C_2  and  C_3
REMARK    2  A    between atoms: C_2  and  C_4
REMARK    3  A    between atoms: C_2  and  C_10
REMARK    4  A    between atoms: C_4  and  C_5
REMARK    5  A    between atoms: C_5  and  C_6
REMARK    6  A    between atoms: C_6  and  C_7
REMARK    7  A    between atoms: C_7  and  C_8
REMARK    8  A    between atoms: C_7  and  C_9
REMARK    9  A    between atoms: C_10  and  C_11
REMARK   10  A    between atoms: C_11  and  C_12
REMARK   11  A    between atoms: C_12  and  C_13
REMARK   12  A    between atoms: C_13  and  C_15
REMARK   13  A    between atoms: C_13  and  C_16
REMARK   14  A    between atoms: C_16  and  C_17
REMARK   15  A    between atoms: C_17  and  O_19
REMARK   16  A    between atoms: C_17  and  P_20
REMARK   17  A    between atoms: P_20  and  O_21
REMARK   18  A    between atoms: P_20  and  O_22
REMARK                            x       y       z     vdW  Elec       q    Type
REMARK                         _______ _______ _______ _____ _____    ______ ____
ROOT
ATOM      1  C   UNL     1       8.330  -4.328  24.108  0.00  0.00    -0.011 C 
ATOM      2  C   UNL     1       9.268  -4.714  25.258  0.00  0.00    +0.007 C 
ENDROOT
BRANCH   1   3
ATOM      3  C   UNL     1       8.637  -2.911  23.561  0.00  0.00    +0.003 C 
BRANCH   3   4
ATOM      4  C   UNL     1       7.436  -1.990  23.719  0.00  0.00    +0.001 C 
BRANCH   4   5
ATOM      5  C   UNL     1       7.736  -0.732  24.532  0.00  0.00    +0.003 C 
BRANCH   5   6
ATOM      6  C   UNL     1       9.037  -0.862  25.353  0.00  0.00    -0.014 C 
ATOM      7  C   UNL     1       8.729  -1.068  26.843  0.00  0.00    +0.007 C 
BRANCH   6   8
ATOM      8  C   UNL     1       9.959   0.351  25.120  0.00  0.00    +0.003 C 
BRANCH   8   9
ATOM      9  C   UNL     1      10.614   0.374  23.743  0.00  0.00    +0.001 C 
BRANCH   9  10
ATOM     10  C   UNL     1      10.249   1.658  22.986  0.00  0.00    +0.003 C 
BRANCH  10  11
ATOM     11  C   UNL     1       9.487   1.382  21.675  0.00  0.00    -0.017 C 
ATOM     12  C   UNL     1       8.058   1.910  21.783  0.00  0.00    +0.007 C 
ATOM     13  C   UNL     1       9.476  -0.104  21.324  0.00  0.00    +0.007 C 
ENDBRANCH  10  11
ENDBRANCH   9  10
ENDBRANCH   8   9
ENDBRANCH   6   8
ENDBRANCH   5   6
ENDBRANCH   4   5
ENDBRANCH   3   4
ENDBRANCH   1   3
BRANCH   1  14
ATOM     14  C   UNL     1       6.876  -4.463  24.585  0.00  0.00    +0.047 C 
BRANCH  14  15
ATOM     15  C   UNL     1       6.138  -5.640  23.956  0.00  0.00    +0.228 C 
BRANCH  15  16
ATOM     16  P   UNL     1       5.995  -5.427  22.145  0.00  0.00    +0.356 P 
ATOM     17  O   UNL     1       5.875  -5.246  20.612  0.00  0.00    -0.256 OA
BRANCH  16  18
ATOM     18  O   UNL     1       4.411  -5.900  22.261  0.00  0.00    -0.322 OA
ATOM     19  H   UNL     1       3.777  -5.256  21.873  0.00  0.00    +0.220 HD
ENDBRANCH  16  18
BRANCH  16  20
ATOM     20  O   UNL     1       6.614  -6.945  21.984  0.00  0.00    -0.322 OA
ATOM     21  H   UNL     1       6.212  -7.456  22.720  0.00  0.00    +0.220 HD
ENDBRANCH  16  20
ENDBRANCH  15  16
BRANCH  15  22
ATOM     22  O   UNL     1       4.849  -5.825  24.579  0.00  0.00    -0.380 OA
ATOM     23  H   UNL     1       4.264  -6.141  23.858  0.00  0.00    +0.211 HD
ENDBRANCH  15  22
ENDBRANCH  14  15
ENDBRANCH   1  14
TORSDOF 14
ENDMDL
MODEL 4
REMARK VINA RESULT:      -5.2      4.431      6.789
REMARK  Name = 
REMARK  18 active torsions:
REMARK  status: ('A' for Active; 'I' for Inactive)
REMARK    1  A    between atoms: C_2  and  C_3
REMARK    2  A    between atoms: C_2  and  C_4
REMARK    3  A    between atoms: C_2  and  C_10
REMARK    4  A    between atoms: C_4  and  C_5
REMARK    5  A    between atoms: C_5  and  C_6
REMARK    6  A    between atoms: C_6  and  C_7
REMARK    7  A    between atoms: C_7  and  C_8
REMARK    8  A    between atoms: C_7  and  C_9
REMARK    9  A    between atoms: C_10  and  C_11
REMARK   10  A    between atoms: C_11  and  C_12
REMARK   11  A    between atoms: C_12  and  C_13
REMARK   12  A    between atoms: C_13  and  C_15
REMARK   13  A    between atoms: C_13  and  C_16
REMARK   14  A    between atoms: C_16  and  C_17
REMARK   15  A    between atoms: C_17  and  O_19
REMARK   16  A    between atoms: C_17  and  P_20
REMARK   17  A    between atoms: P_20  and  O_21
REMARK   18  A    between atoms: P_20  and  O_22
REMARK                            x       y       z     vdW  Elec       q    Type
REMARK                         _______ _______ _______ _____ _____    ______ ____
ROOT
ATOM      1  C   UNL     1       9.640   0.318  23.979  0.00  0.00    -0.011 C 
ATOM      2  C   UNL     1       9.516  -0.139  25.438  0.00  0.00    +0.007 C 
ENDROOT
BRANCH   1   3
ATOM      3  C   UNL     1      10.424  -0.702  23.116  0.00  0.00    +0.003 C 
BRANCH   3   4
ATOM      4  C   UNL     1       9.499  -1.425  22.147  0.00  0.00    +0.001 C 
BRANCH   4   5
ATOM      5  C   UNL     1       8.781  -2.622  22.768  0.00  0.00    +0.003 C 
BRANCH   5   6
ATOM      6  C   UNL     1       7.271  -2.630  22.448  0.00  0.00    -0.014 C 
ATOM      7  C   UNL     1       6.513  -1.646  23.351  0.00  0.00    +0.007 C 
BRANCH   6   8
ATOM      8  C   UNL     1       6.696  -4.057  22.543  0.00  0.00    +0.003 C 
BRANCH   8   9
ATOM      9  C   UNL     1       7.540  -5.009  23.384  0.00  0.00    +0.001 C 
BRANCH   9  10
ATOM     10  C   UNL     1       6.993  -5.103  24.815  0.00  0.00    +0.003 C 
BRANCH  10  11
ATOM     11  C   UNL     1       8.077  -4.868  25.885  0.00  0.00    -0.017 C 
ATOM     12  C   UNL     1       8.011  -3.425  26.384  0.00  0.00    +0.007 C 
ATOM     13  C   UNL     1       9.475  -5.181  25.358  0.00  0.00    +0.007 C 
ENDBRANCH  10  11
ENDBRANCH   9  10
ENDBRANCH   8   9
ENDBRANCH   6   8
ENDBRANCH   5   6
ENDBRANCH   4   5
ENDBRANCH   3   4
ENDBRANCH   1   3
BRANCH   1  14
ATOM     14  C   UNL     1      10.280   1.715  23.949  0.00  0.00    +0.047 C 
BRANCH  14  15
ATOM     15  C   UNL     1       9.737   2.606  22.836  0.00  0.00    +0.228 C 
BRANCH  15  16
ATOM     16  P   UNL     1       7.963   2.273  22.540  0.00  0.00    +0.356 P 
ATOM     17  O   UNL     1       6.461   1.990  22.290  0.00  0.00    -0.256 OA
BRANCH  16  18
ATOM     18  O   UNL     1       8.368   1.705  21.037  0.00  0.00    -0.322 OA
ATOM     19  H   UNL     1       9.106   1.055  21.046  0.00  0.00    +0.220 HD
ENDBRANCH  16  18
BRANCH  16  20
ATOM     20  O   UNL     1       7.810   3.850  22.090  0.00  0.00    -0.322 OA
ATOM     21  H   UNL     1       7.896   3.838  21.112  0.00  0.00    +0.220 HD
ENDBRANCH  16  20
ENDBRANCH  15  16
BRANCH  15  22
ATOM     22  O   UNL     1      10.521   2.454  21.633  0.00  0.00    -0.380 OA
ATOM     23  H   UNL     1      10.348   1.536  21.334  0.00  0.00    +0.211 HD
ENDBRANCH  15  22
ENDBRANCH  14  15
ENDBRANCH   1  14
TORSDOF 14
ENDMDL
MODEL 5
REMARK VINA RESULT:      -5.2      1.266      2.597
REMARK  Name = 
REMARK  18 active torsions:
REMARK  status: ('A' for Active; 'I' for Inactive)
REMARK    1  A    between atoms: C_2  and  C_3
REMARK    2  A    between atoms: C_2  and  C_4
REMARK    3  A    between atoms: C_2  and  C_10
REMARK    4  A    between atoms: C_4  and  C_5
REMARK    5  A    between atoms: C_5  and  C_6
REMARK    6  A    between atoms: C_6  and  C_7
REMARK    7  A    between atoms: C_7  and  C_8
REMARK    8  A    between atoms: C_7  and  C_9
REMARK    9  A    between atoms: C_10  and  C_11
REMARK   10  A    between atoms: C_11  and  C_12
REMARK   11  A    between atoms: C_12  and  C_13
REMARK   12  A    between atoms: C_13  and  C_15
REMARK   13  A    between atoms: C_13  and  C_16
REMARK   14  A    between atoms: C_16  and  C_17
REMARK   15  A    between atoms: C_17  and  O_19
REMARK   16  A    between atoms: C_17  and  P_20
REMARK   17  A    between atoms: P_20  and  O_21
REMARK   18  A    between atoms: P_20  and  O_22
REMARK                            x       y       z     vdW  Elec       q    Type
REMARK                         _______ _______ _______ _____ _____    ______ ____
ROOT
ATOM      1  C   UNL     1       7.565  -3.357  23.039  0.00  0.00    -0.011 C 
ATOM      2  C   UNL     1       7.194  -4.678  22.353  0.00  0.00    +0.007 C 
ENDROOT
BRANCH   1   3
ATOM      3  C   UNL     1       7.963  -2.264  22.017  0.00  0.00    +0.003 C 
BRANCH   3   4
ATOM      4  C   UNL     1       9.368  -1.746  22.287  0.00  0.00    +0.001 C 
BRANCH   4   5
ATOM      5  C   UNL     1       9.648  -0.385  21.650  0.00  0.00    +0.003 C 
BRANCH   5   6
ATOM      6  C   UNL     1       9.750   0.742  22.700  0.00  0.00    -0.014 C 
ATOM      7  C   UNL     1      10.228   2.051  22.057  0.00  0.00    +0.007 C 
BRANCH   6   8
ATOM      8  C   UNL     1      10.650   0.317  23.877  0.00  0.00    +0.003 C 
BRANCH   8   9
ATOM      9  C   UNL     1       9.925   0.252  25.218  0.00  0.00    +0.001 C 
BRANCH   9  10
ATOM     10  C   UNL     1       8.654   1.111  25.192  0.00  0.00    +0.003 C 
BRANCH  10  11
ATOM     11  C   UNL     1       7.407   0.346  25.678  0.00  0.00    -0.017 C 
ATOM     12  C   UNL     1       7.830  -0.894  26.463  0.00  0.00    +0.007 C 
ATOM     13  C   UNL     1       6.494  -0.048  24.519  0.00  0.00    +0.007 C 
ENDBRANCH  10  11
ENDBRANCH   9  10
ENDBRANCH   8   9
ENDBRANCH   6   8
ENDBRANCH   5   6
ENDBRANCH   4   5
ENDBRANCH   3   4
ENDBRANCH   1   3
BRANCH   1  14
ATOM     14  C   UNL     1       8.677  -3.625  24.064  0.00  0.00    +0.047 C 
BRANCH  14  15
ATOM     15  C   UNL     1       8.509  -4.944  24.811  0.00  0.00    +0.228 C 
BRANCH  15  16
ATOM     16  P   UNL     1       7.573  -4.699  26.364  0.00  0.00    +0.356 P 
ATOM     17  O   UNL     1       6.781  -4.491  27.678  0.00  0.00    -0.256 OA
BRANCH  16  18
ATOM     18  O   UNL     1       8.310  -6.055  26.968  0.00  0.00    -0.322 OA
ATOM     19  H   UNL     1       7.681  -6.726  27.315  0.00  0.00    +0.220 HD
ENDBRANCH  16  18
BRANCH  16  20
ATOM     20  O   UNL     1       6.316  -5.492  25.654  0.00  0.00    -0.322 OA
ATOM     21  H   UNL     1       6.552  -5.528  24.701  0.00  0.00    +0.220 HD
ENDBRANCH  16  20
ENDBRANCH  15  16
BRANCH  15  22
ATOM     22  O   UNL     1       9.791  -5.563  25.049  0.00  0.00    -0.380 OA
ATOM     23  H   UNL     1       9.598  -6.332  25.626  0.00  0.00    +0.211 HD
ENDBRANCH  15  22
ENDBRANCH  14  15
ENDBRANCH   1  14
TORSDOF 14
ENDMDL
MODEL 6
REMARK VINA RESULT:      -5.1      2.977      4.275
REMARK  Name = 
REMARK  18 active torsions:
REMARK  status: ('A' for Active; 'I' for Inactive)
REMARK    1  A    between atoms: C_2  and  C_3
REMARK    2  A    between atoms: C_2  and  C_4
REMARK    3  A    between atoms: C_2  and  C_10
REMARK    4  A    between atoms: C_4  and  C_5
REMARK    5  A    between atoms: C_5  and  C_6
REMARK    6  A    between atoms: C_6  and  C_7
REMARK    7  A    between atoms: C_7  and  C_8
REMARK    8  A    between atoms: C_7  and  C_9
REMARK    9  A    between atoms: C_10  and  C_11
REMARK   10  A    between atoms: C_11  and  C_12
REMARK   11  A    between atoms: C_12  and  C_13
REMARK   12  A    between atoms: C_13  and  C_15
REMARK   13  A    between atoms: C_13  and  C_16
REMARK   14  A    between atoms: C_16  and  C_17
REMARK   15  A    between atoms: C_17  and  O_19
REMARK   16  A    between atoms: C_17  and  P_20
REMARK   17  A    between atoms: P_20  and  O_21
REMARK   18  A    between atoms: P_20  and  O_22
REMARK                            x       y       z     vdW  Elec       q    Type
REMARK                         _______ _______ _______ _____ _____    ______ ____
ROOT
ATOM      1  C   UNL     1       8.557  -3.051  23.319  0.00  0.00    -0.011 C 
ATOM      2  C   UNL     1       9.293  -2.448  24.522  0.00  0.00    +0.007 C 
ENDROOT
BRANCH   1   3
ATOM      3  C   UNL     1       8.442  -2.046  22.146  0.00  0.00    +0.003 C 
BRANCH   3   4
ATOM      4  C   UNL     1       9.615  -1.076  22.137  0.00  0.00    +0.001 C 
BRANCH   4   5
ATOM      5  C   UNL     1       9.368   0.170  21.288  0.00  0.00    +0.003 C 
BRANCH   5   6
ATOM      6  C   UNL     1       9.775   1.467  22.019  0.00  0.00    -0.014 C 
ATOM      7  C   UNL     1      10.479   1.152  23.347  0.00  0.00    +0.007 C 
BRANCH   6   8
ATOM      8  C   UNL     1       8.557   2.390  22.220  0.00  0.00    +0.003 C 
BRANCH   8   9
ATOM      9  C   UNL     1       7.219   1.658  22.220  0.00  0.00    +0.001 C 
BRANCH   9  10
ATOM     10  C   UNL     1       6.585   1.680  23.618  0.00  0.00    +0.003 C 
BRANCH  10  11
ATOM     11  C   UNL     1       6.990   0.465  24.476  0.00  0.00    -0.017 C 
ATOM     12  C   UNL     1       5.751  -0.350  24.841  0.00  0.00    +0.007 C 
ATOM     13  C   UNL     1       7.737   0.884  25.740  0.00  0.00    +0.007 C 
ENDBRANCH  10  11
ENDBRANCH   9  10
ENDBRANCH   8   9
ENDBRANCH   6   8
ENDBRANCH   5   6
ENDBRANCH   4   5
ENDBRANCH   3   4
ENDBRANCH   1   3
BRANCH   1  14
ATOM     14  C   UNL     1       7.185  -3.563  23.782  0.00  0.00    +0.047 C 
BRANCH  14  15
ATOM     15  C   UNL     1       6.968  -5.048  23.511  0.00  0.00    +0.228 C 
BRANCH  15  16
ATOM     16  P   UNL     1       6.425  -5.323  21.786  0.00  0.00    +0.356 P 
ATOM     17  O   UNL     1       5.965  -5.556  20.326  0.00  0.00    -0.256 OA
BRANCH  16  18
ATOM     18  O   UNL     1       4.989  -4.590  22.170  0.00  0.00    -0.322 OA
ATOM     19  H   UNL     1       4.213  -5.193  22.124  0.00  0.00    +0.220 HD
ENDBRANCH  16  18
BRANCH  16  20
ATOM     20  O   UNL     1       5.968  -6.839  22.241  0.00  0.00    -0.322 OA
ATOM     21  H   UNL     1       5.952  -7.355  21.406  0.00  0.00    +0.220 HD
ENDBRANCH  16  20
ENDBRANCH  15  16
BRANCH  15  22
ATOM     22  O   UNL     1       6.040  -5.610  24.463  0.00  0.00    -0.380 OA
ATOM     23  H   UNL     1       6.362  -5.308  25.338  0.00  0.00    +0.211 HD
ENDBRANCH  15  22
ENDBRANCH  14  15
ENDBRANCH   1  14
TORSDOF 14
ENDMDL
MODEL 7
REMARK VINA RESULT:      -5.1      1.557      2.897
REMARK  Name = 
REMARK  18 active torsions:
REMARK  status: ('A' for Active; 'I' for Inactive)
REMARK    1  A    between atoms: C_2  and  C_3
REMARK    2  A    between atoms: C_2  and  C_4
REMARK    3  A    between atoms: C_2  and  C_10
REMARK    4  A    between atoms: C_4  and  C_5
REMARK    5  A    between atoms: C_5  and  C_6
REMARK    6  A    between atoms: C_6  and  C_7
REMARK    7  A    between atoms: C_7  and  C_8
REMARK    8  A    between atoms: C_7  and  C_9
REMARK    9  A    between atoms: C_10  and  C_11
REMARK   10  A    between atoms: C_11  and  C_12
REMARK   11  A    between atoms: C_12  and  C_13
REMARK   12  A    between atoms: C_13  and  C_15
REMARK   13  A    between atoms: C_13  and  C_16
REMARK   14  A    between atoms: C_16  and  C_17
REMARK   15  A    between atoms: C_17  and  O_19
REMARK   16  A    between atoms: C_17  and  P_20
REMARK   17  A    between atoms: P_20  and  O_21
REMARK   18  A    between atoms: P_20  and  O_22
REMARK                            x       y       z     vdW  Elec       q    Type
REMARK                         _______ _______ _______ _____ _____    ______ ____
ROOT
ATOM      1  C   UNL     1       9.280  -2.249  24.426  0.00  0.00    -0.011 C 
ATOM      2  C   UNL     1       8.269  -1.436  25.244  0.00  0.00    +0.007 C 
ENDROOT
BRANCH   1   3
ATOM      3  C   UNL     1       8.987  -2.177  22.906  0.00  0.00    +0.003 C 
BRANCH   3   4
ATOM      4  C   UNL     1      10.029  -1.334  22.186  0.00  0.00    +0.001 C 
BRANCH   4   5
ATOM      5  C   UNL     1       9.424  -0.263  21.279  0.00  0.00    +0.003 C 
BRANCH   5   6
ATOM      6  C   UNL     1       9.060   1.022  22.054  0.00  0.00    -0.014 C 
ATOM      7  C   UNL     1       7.882   1.749  21.391  0.00  0.00    +0.007 C 
BRANCH   6   8
ATOM      8  C   UNL     1      10.289   1.940  22.206  0.00  0.00    +0.003 C 
BRANCH   8   9
ATOM      9  C   UNL     1      10.378   2.635  23.561  0.00  0.00    +0.001 C 
BRANCH   9  10
ATOM     10  C   UNL     1       9.492   1.928  24.595  0.00  0.00    +0.003 C 
BRANCH  10  11
ATOM     11  C   UNL     1       8.373   2.837  25.142  0.00  0.00    -0.017 C 
ATOM     12  C   UNL     1       7.023   2.133  25.017  0.00  0.00    +0.007 C 
ATOM     13  C   UNL     1       8.334   4.185  24.428  0.00  0.00    +0.007 C 
ENDBRANCH  10  11
ENDBRANCH   9  10
ENDBRANCH   8   9
ENDBRANCH   6   8
ENDBRANCH   5   6
ENDBRANCH   4   5
ENDBRANCH   3   4
ENDBRANCH   1   3
BRANCH   1  14
ATOM     14  C   UNL     1       9.293  -3.694  24.946  0.00  0.00    +0.047 C 
BRANCH  14  15
ATOM     15  C   UNL     1       7.911  -4.338  24.983  0.00  0.00    +0.228 C 
BRANCH  15  16
ATOM     16  P   UNL     1       7.638  -5.204  26.572  0.00  0.00    +0.356 P 
ATOM     17  O   UNL     1       7.407  -5.937  27.916  0.00  0.00    -0.256 OA
BRANCH  16  18
ATOM     18  O   UNL     1       6.897  -3.834  27.138  0.00  0.00    -0.322 OA
ATOM     19  H   UNL     1       6.755  -3.836  28.111  0.00  0.00    +0.220 HD
ENDBRANCH  16  18
BRANCH  16  20
ATOM     20  O   UNL     1       9.165  -4.760  27.000  0.00  0.00    -0.322 OA
ATOM     21  H   UNL     1       9.573  -5.581  27.351  0.00  0.00    +0.220 HD
ENDBRANCH  16  20
ENDBRANCH  15  16
BRANCH  15  22
ATOM     22  O   UNL     1       7.727  -5.218  23.854  0.00  0.00    -0.380 OA
ATOM     23  H   UNL     1       6.791  -5.097  23.589  0.00  0.00    +0.211 HD
ENDBRANCH  15  22
ENDBRANCH  14  15
ENDBRANCH   1  14
TORSDOF 14
ENDMDL
MODEL 8
REMARK VINA RESULT:      -5.0      1.840      3.237
REMARK  Name = 
REMARK  18 active torsions:
REMARK  status: ('A' for Active; 'I' for Inactive)
REMARK    1  A    between atoms: C_2  and  C_3
REMARK    2  A    between atoms: C_2  and  C_4
REMARK    3  A    between atoms: C_2  and  C_10
REMARK    4  A    between atoms: C_4  and  C_5
REMARK    5  A    between atoms: C_5  and  C_6
REMARK    6  A    between atoms: C_6  and  C_7
REMARK    7  A    between atoms: C_7  and  C_8
REMARK    8  A    between atoms: C_7  and  C_9
REMARK    9  A    between atoms: C_10  and  C_11
REMARK   10  A    between atoms: C_11  and  C_12
REMARK   11  A    between atoms: C_12  and  C_13
REMARK   12  A    between atoms: C_13  and  C_15
REMARK   13  A    between atoms: C_13  and  C_16
REMARK   14  A    between atoms: C_16  and  C_17
REMARK   15  A    between atoms: C_17  and  O_19
REMARK   16  A    between atoms: C_17  and  P_20
REMARK   17  A    between atoms: P_20  and  O_21
REMARK   18  A    between atoms: P_20  and  O_22
REMARK                            x       y       z     vdW  Elec       q    Type
REMARK                         _______ _______ _______ _____ _____    ______ ____
ROOT
ATOM      1  C   UNL     1       7.353  -1.665  25.058  0.00  0.00    -0.011 C 
ATOM      2  C   UNL     1       7.199  -0.398  25.908  0.00  0.00    +0.007 C 
ENDROOT
BRANCH   1   3
ATOM      3  C   UNL     1       6.825  -1.463  23.615  0.00  0.00    +0.003 C 
BRANCH   3   4
ATOM      4  C   UNL     1       7.918  -1.725  22.589  0.00  0.00    +0.001 C 
BRANCH   4   5
ATOM      5  C   UNL     1       9.304  -1.904  23.208  0.00  0.00    +0.003 C 
BRANCH   5   6
ATOM      6  C   UNL     1      10.256  -0.741  22.857  0.00  0.00    -0.014 C 
ATOM      7  C   UNL     1      10.574   0.105  24.098  0.00  0.00    +0.007 C 
BRANCH   6   8
ATOM      8  C   UNL     1       9.680   0.114  21.711  0.00  0.00    +0.003 C 
BRANCH   8   9
ATOM      9  C   UNL     1       9.828   1.617  21.926  0.00  0.00    +0.001 C 
BRANCH   9  10
ATOM     10  C   UNL     1       8.458   2.308  21.905  0.00  0.00    +0.003 C 
BRANCH  10  11
ATOM     11  C   UNL     1       7.638   2.046  23.184  0.00  0.00    -0.017 C 
ATOM     12  C   UNL     1       6.152   2.260  22.902  0.00  0.00    +0.007 C 
ATOM     13  C   UNL     1       8.089   2.932  24.342  0.00  0.00    +0.007 C 
ENDBRANCH  10  11
ENDBRANCH   9  10
ENDBRANCH   8   9
ENDBRANCH   6   8
ENDBRANCH   5   6
ENDBRANCH   4   5
ENDBRANCH   3   4
ENDBRANCH   1   3
BRANCH   1  14
ATOM     14  C   UNL     1       6.654  -2.832  25.773  0.00  0.00    +0.047 C 
BRANCH  14  15
ATOM     15  C   UNL     1       7.600  -3.681  26.616  0.00  0.00    +0.228 C 
BRANCH  15  16
ATOM     16  P   UNL     1       8.621  -4.767  25.556  0.00  0.00    +0.356 P 
ATOM     17  O   UNL     1       9.485  -5.687  24.658  0.00  0.00    -0.256 OA
BRANCH  16  18
ATOM     18  O   UNL     1       7.254  -5.131  24.692  0.00  0.00    -0.322 OA
ATOM     19  H   UNL     1       6.839  -5.984  24.950  0.00  0.00    +0.220 HD
ENDBRANCH  16  18
BRANCH  16  20
ATOM     20  O   UNL     1       8.424  -5.947  26.689  0.00  0.00    -0.322 OA
ATOM     21  H   UNL     1       8.217  -5.462  27.517  0.00  0.00    +0.220 HD
ENDBRANCH  16  20
ENDBRANCH  15  16
BRANCH  15  22
ATOM     22  O   UNL     1       6.866  -4.432  27.606  0.00  0.00    -0.380 OA
ATOM     23  H   UNL     1       7.344  -4.276  28.447  0.00  0.00    +0.211 HD
ENDBRANCH  15  22
ENDBRANCH  14  15
ENDBRANCH   1  14
TORSDOF 14
ENDMDL
MODEL 9
REMARK VINA RESULT:      -5.0      3.186      3.838
REMARK  Name = 
REMARK  18 active torsions:
REMARK  status: ('A' for Active; 'I' for Inactive)
REMARK    1  A    between atoms: C_2  and  C_3
REMARK    2  A    between atoms: C_2  and  C_4
REMARK    3  A    between atoms: C_2  and  C_10
REMARK    4  A    between atoms: C_4  and  C_5
REMARK    5  A    between atoms: C_5  and  C_6
REMARK    6  A    between atoms: C_6  and  C_7
REMARK    7  A    between atoms: C_7  and  C_8
REMARK    8  A    between atoms: C_7  and  C_9
REMARK    9  A    between atoms: C_10  and  C_11
REMARK   10  A    between atoms: C_11  and  C_12
REMARK   11  A    between atoms: C_12  and  C_13
REMARK   12  A    between atoms: C_13  and  C_15
REMARK   13  A    between atoms: C_13  and  C_16
REMARK   14  A    between atoms: C_16  and  C_17
REMARK   15  A    between atoms: C_17  and  O_19
REMARK   16  A    between atoms: C_17  and  P_20
REMARK   17  A    between atoms: P_20  and  O_21
REMARK   18  A    between atoms: P_20  and  O_22
REMARK                            x       y       z     vdW  Elec       q    Type
REMARK                         _______ _______ _______ _____ _____    ______ ____
ROOT
ATOM      1  C   UNL     1       6.997  -5.348  25.737  0.00  0.00    -0.011 C 
ATOM      2  C   UNL     1       5.478  -5.511  25.873  0.00  0.00    +0.007 C 
ENDROOT
BRANCH   1   3
ATOM      3  C   UNL     1       7.564  -4.327  26.755  0.00  0.00    +0.003 C 
BRANCH   3   4
ATOM      4  C   UNL     1       8.697  -3.516  26.145  0.00  0.00    +0.001 C 
BRANCH   4   5
ATOM      5  C   UNL     1       8.464  -2.007  26.200  0.00  0.00    +0.003 C 
BRANCH   5   6
ATOM      6  C   UNL     1       8.933  -1.294  24.914  0.00  0.00    -0.014 C 
ATOM      7  C   UNL     1       9.733  -2.249  24.017  0.00  0.00    +0.007 C 
BRANCH   6   8
ATOM      8  C   UNL     1       9.732  -0.019  25.252  0.00  0.00    +0.003 C 
BRANCH   8   9
ATOM      9  C   UNL     1      10.725   0.393  24.170  0.00  0.00    +0.001 C 
BRANCH   9  10
ATOM     10  C   UNL     1      10.483   1.844  23.733  0.00  0.00    +0.003 C 
BRANCH  10  11
ATOM     11  C   UNL     1       9.778   1.946  22.366  0.00  0.00    -0.017 C 
ATOM     12  C   UNL     1       8.367   2.503  22.549  0.00  0.00    +0.007 C 
ATOM     13  C   UNL     1       9.725   0.598  21.651  0.00  0.00    +0.007 C 
ENDBRANCH  10  11
ENDBRANCH   9  10
ENDBRANCH   8   9
ENDBRANCH   6   8
ENDBRANCH   5   6
ENDBRANCH   4   5
ENDBRANCH   3   4
ENDBRANCH   1   3
BRANCH   1  14
ATOM     14  C   UNL     1       7.327  -4.965  24.287  0.00  0.00    +0.047 C 
BRANCH  14  15
ATOM     15  C   UNL     1       6.128  -4.431  23.512  0.00  0.00    +0.228 C 
BRANCH  15  16
ATOM     16  P   UNL     1       6.082  -5.127  21.820  0.00  0.00    +0.356 P 
ATOM     17  O   UNL     1       6.044  -5.716  20.388  0.00  0.00    -0.256 OA
BRANCH  16  18
ATOM     18  O   UNL     1       5.416  -3.701  21.302  0.00  0.00    -0.322 OA
ATOM     19  H   UNL     1       5.945  -2.907  21.541  0.00  0.00    +0.220 HD
ENDBRANCH  16  18
BRANCH  16  20
ATOM     20  O   UNL     1       4.655  -5.843  22.224  0.00  0.00    -0.322 OA
ATOM     21  H   UNL     1       4.021  -5.536  21.540  0.00  0.00    +0.220 HD
ENDBRANCH  16  20
ENDBRANCH  15  16
BRANCH  15  22
ATOM     22  O   UNL     1       6.130  -2.988  23.500  0.00  0.00    -0.380 OA
ATOM     23  H   UNL     1       6.252  -2.744  22.558  0.00  0.00    +0.211 HD
ENDBRANCH  15  22
ENDBRANCH  14  15
ENDBRANCH   1  14
TORSDOF 14
ENDMDL
