MODEL 1
REMARK VINA RESULT:      -7.3      0.000      0.000
REMARK  Name = 
REMARK  9 active torsions:
REMARK  status: ('A' for Active; 'I' for Inactive)
REMARK    1  A    between atoms: C_2  and  O_3
REMARK    2  A    between atoms: C_2  and  C_4
REMARK    3  A    between atoms: C_2  and  C_6
REMARK    4  A    between atoms: C_4  and  O_5
REMARK    5  A    between atoms: C_6  and  C_7
REMARK    6  A    between atoms: C_7  and  O_8
REMARK    7  A    between atoms: O_8  and  N_9
REMARK    8  A    between atoms: N_9  and  C_10
REMARK    9  A    between atoms: C_11  and  C_19
REMARK                            x       y       z     vdW  Elec       q    Type
REMARK                         _______ _______ _______ _____ _____    ______ ____
ROOT
ATOM      1  C   UNL     1       8.699  -1.944  23.212  0.00  0.00    +0.094 A 
ATOM      2  C   UNL     1       9.286  -0.661  23.060  0.00  0.00    +0.025 A 
ATOM      3  C   UNL     1       9.564  -0.194  24.344  0.00  0.00    +0.049 A 
ATOM      4  C   UNL     1      10.078   1.089  24.575  0.00  0.00    +0.026 A 
ATOM      5  C   UNL     1      10.317   1.906  23.462  0.00  0.00    +0.002 A 
ATOM      6  C   UNL     1      10.054   1.459  22.169  0.00  0.00    +0.001 A 
ATOM      7  N   UNL     1       9.207  -1.197  25.226  0.00  0.00    -0.352 N 
ATOM      8  H   UNL     1       9.264  -1.120  26.235  0.00  0.00    +0.166 HD
ATOM      9  C   UNL     1       9.534   0.181  21.956  0.00  0.00    +0.012 A 
ATOM     10  C   UNL     1       8.726  -2.298  24.545  0.00  0.00    +0.079 A 
ENDROOT
BRANCH  10  11
ATOM     11  C   UNL     1       8.350  -3.452  25.267  0.00  0.00    +0.073 C 
ATOM     12  C   UNL     1       9.138  -4.710  25.412  0.00  0.00    +0.270 C 
ATOM     13  O   UNL     1      10.143  -4.950  24.761  0.00  0.00    -0.268 OA
ATOM     14  N   UNL     1       8.541  -5.522  26.349  0.00  0.00    -0.176 NA
ATOM     15  C   UNL     1       7.471  -4.891  26.688  0.00  0.00    +0.065 A 
ATOM     16  C   UNL     1       6.494  -5.270  27.731  0.00  0.00    +0.026 A 
ATOM     17  C   UNL     1       5.456  -4.451  27.977  0.00  0.00    +0.002 A 
ATOM     18  C   UNL     1       5.213  -3.245  27.208  0.00  0.00    +0.001 A 
ATOM     19  C   UNL     1       6.050  -2.865  26.232  0.00  0.00    +0.010 A 
ATOM     20  C   UNL     1       7.237  -3.626  25.984  0.00  0.00    +0.012 A 
ENDBRANCH  10  11
BRANCH   1  21
ATOM     21  N   UNL     1       8.166  -2.643  22.188  0.00  0.00    -0.263 N 
ATOM     22  H   UNL     1       8.466  -2.505  21.226  0.00  0.00    +0.194 HD
BRANCH  21  23
ATOM     23  O   UNL     1       7.333  -3.743  22.395  0.00  0.00    -0.274 OA
BRANCH  23  24
ATOM     24  C   UNL     1       5.971  -3.319  22.230  0.00  0.00    +0.195 C 
BRANCH  24  25
ATOM     25  C   UNL     1       5.014  -4.292  22.914  0.00  0.00    +0.064 C 
BRANCH  25  26
ATOM     26  C   UNL     1       5.704  -5.584  23.325  0.00  0.00    +0.142 C 
BRANCH  26  27
ATOM     27  O   UNL     1       5.802  -6.447  22.189  0.00  0.00    -0.389 OA
ATOM     28  H   UNL     1       4.999  -7.001  22.198  0.00  0.00    +0.210 HD
ENDBRANCH  26  27
BRANCH  26  29
ATOM     29  C   UNL     1       4.904  -6.289  24.421  0.00  0.00    +0.187 C 
BRANCH  29  30
ATOM     30  O   UNL     1       4.366  -7.510  23.914  0.00  0.00    -0.392 OA
ATOM     31  H   UNL     1       4.995  -8.207  24.173  0.00  0.00    +0.210 HD
ENDBRANCH  29  30
ENDBRANCH  26  29
ENDBRANCH  25  26
ENDBRANCH  24  25
ENDBRANCH  23  24
ENDBRANCH  21  23
ENDBRANCH   1  21
TORSDOF 9
ENDMDL
MODEL 2
REMARK VINA RESULT:      -7.1      2.160      3.507
REMARK  Name = 
REMARK  9 active torsions:
REMARK  status: ('A' for Active; 'I' for Inactive)
REMARK    1  A    between atoms: C_2  and  O_3
REMARK    2  A    between atoms: C_2  and  C_4
REMARK    3  A    between atoms: C_2  and  C_6
REMARK    4  A    between atoms: C_4  and  O_5
REMARK    5  A    between atoms: C_6  and  C_7
REMARK    6  A    between atoms: C_7  and  O_8
REMARK    7  A    between atoms: O_8  and  N_9
REMARK    8  A    between atoms: N_9  and  C_10
REMARK    9  A    between atoms: C_11  and  C_19
REMARK                            x       y       z     vdW  Elec       q    Type
REMARK                         _______ _______ _______ _____ _____    ______ ____
ROOT
ATOM      1  C   UNL     1       8.139  -1.279  22.505  0.00  0.00    +0.094 A 
ATOM      2  C   UNL     1       8.528   0.084  22.436  0.00  0.00    +0.025 A 
ATOM      3  C   UNL     1       7.377   0.840  22.660  0.00  0.00    +0.049 A 
ATOM      4  C   UNL     1       7.378   2.239  22.582  0.00  0.00    +0.026 A 
ATOM      5  C   UNL     1       8.588   2.874  22.272  0.00  0.00    +0.002 A 
ATOM      6  C   UNL     1       9.752   2.141  22.051  0.00  0.00    +0.001 A 
ATOM      7  N   UNL     1       6.350  -0.050  22.914  0.00  0.00    -0.352 N 
ATOM      8  H   UNL     1       5.386   0.218  23.075  0.00  0.00    +0.166 HD
ATOM      9  C   UNL     1       9.733   0.747  22.125  0.00  0.00    +0.012 A 
ATOM     10  C   UNL     1       6.812  -1.351  22.877  0.00  0.00    +0.079 A 
ENDROOT
BRANCH  10  11
ATOM     11  C   UNL     1       5.923  -2.412  23.158  0.00  0.00    +0.073 C 
ATOM     12  C   UNL     1       5.438  -3.447  22.199  0.00  0.00    +0.270 C 
ATOM     13  O   UNL     1       5.625  -3.385  20.994  0.00  0.00    -0.268 OA
ATOM     14  N   UNL     1       4.753  -4.424  22.884  0.00  0.00    -0.176 NA
ATOM     15  C   UNL     1       4.739  -4.013  24.105  0.00  0.00    +0.065 A 
ATOM     16  C   UNL     1       4.206  -4.722  25.288  0.00  0.00    +0.026 A 
ATOM     17  C   UNL     1       4.327  -4.149  26.498  0.00  0.00    +0.002 A 
ATOM     18  C   UNL     1       4.894  -2.826  26.683  0.00  0.00    +0.001 A 
ATOM     19  C   UNL     1       5.368  -2.124  25.642  0.00  0.00    +0.010 A 
ATOM     20  C   UNL     1       5.375  -2.713  24.338  0.00  0.00    +0.012 A 
ENDBRANCH  10  11
BRANCH   1  21
ATOM     21  N   UNL     1       8.960  -2.303  22.195  0.00  0.00    -0.263 N 
ATOM     22  H   UNL     1       8.892  -2.800  21.310  0.00  0.00    +0.194 HD
BRANCH  21  23
ATOM     23  O   UNL     1      10.087  -2.608  22.959  0.00  0.00    -0.274 OA
BRANCH  23  24
ATOM     24  C   UNL     1       9.673  -2.804  24.320  0.00  0.00    +0.195 C 
BRANCH  24  25
ATOM     25  C   UNL     1       9.000  -4.163  24.490  0.00  0.00    +0.064 C 
BRANCH  25  26
ATOM     26  C   UNL     1       9.308  -4.792  25.840  0.00  0.00    +0.142 C 
BRANCH  26  27
ATOM     27  O   UNL     1       9.648  -6.169  25.653  0.00  0.00    -0.389 OA
ATOM     28  H   UNL     1      10.621  -6.218  25.704  0.00  0.00    +0.210 HD
ENDBRANCH  26  27
BRANCH  26  29
ATOM     29  C   UNL     1       8.090  -4.700  26.762  0.00  0.00    +0.187 C 
BRANCH  29  30
ATOM     30  O   UNL     1       7.908  -5.939  27.444  0.00  0.00    -0.392 OA
ATOM     31  H   UNL     1       7.053  -6.290  27.139  0.00  0.00    +0.210 HD
ENDBRANCH  29  30
ENDBRANCH  26  29
ENDBRANCH  25  26
ENDBRANCH  24  25
ENDBRANCH  23  24
ENDBRANCH  21  23
ENDBRANCH   1  21
TORSDOF 9
ENDMDL
MODEL 3
REMARK VINA RESULT:      -7.0      2.136      5.980
REMARK  Name = 
REMARK  9 active torsions:
REMARK  status: ('A' for Active; 'I' for Inactive)
REMARK    1  A    between atoms: C_2  and  O_3
REMARK    2  A    between atoms: C_2  and  C_4
REMARK    3  A    between atoms: C_2  and  C_6
REMARK    4  A    between atoms: C_4  and  O_5
REMARK    5  A    between atoms: C_6  and  C_7
REMARK    6  A    between atoms: C_7  and  O_8
REMARK    7  A    between atoms: O_8  and  N_9
REMARK    8  A    between atoms: N_9  and  C_10
REMARK    9  A    between atoms: C_11  and  C_19
REMARK                            x       y       z     vdW  Elec       q    Type
REMARK                         _______ _______ _______ _____ _____    ______ ____
ROOT
ATOM      1  C   UNL     1       6.368  -2.674  23.693  0.00  0.00    +0.094 A 
ATOM      2  C   UNL     1       5.838  -3.936  23.319  0.00  0.00    +0.025 A 
ATOM      3  C   UNL     1       6.648  -4.421  22.293  0.00  0.00    +0.049 A 
ATOM      4  C   UNL     1       6.366  -5.620  21.625  0.00  0.00    +0.026 A 
ATOM      5  C   UNL     1       5.230  -6.337  22.023  0.00  0.00    +0.002 A 
ATOM      6  C   UNL     1       4.409  -5.876  23.050  0.00  0.00    +0.001 A 
ATOM      7  N   UNL     1       7.662  -3.501  22.106  0.00  0.00    -0.352 N 
ATOM      8  H   UNL     1       8.380  -3.575  21.395  0.00  0.00    +0.166 HD
ATOM      9  C   UNL     1       4.700  -4.676  23.702  0.00  0.00    +0.012 A 
ATOM     10  C   UNL     1       7.536  -2.450  22.994  0.00  0.00    +0.079 A 
ENDROOT
BRANCH  10  11
ATOM     11  C   UNL     1       8.505  -1.422  22.996  0.00  0.00    +0.073 C 
ATOM     12  C   UNL     1       9.976  -1.583  23.181  0.00  0.00    +0.270 C 
ATOM     13  O   UNL     1      10.497  -2.630  23.534  0.00  0.00    -0.268 OA
ATOM     14  N   UNL     1      10.607  -0.389  22.919  0.00  0.00    -0.176 NA
ATOM     15  C   UNL     1       9.648   0.437  22.681  0.00  0.00    +0.065 A 
ATOM     16  C   UNL     1       9.760   1.849  22.255  0.00  0.00    +0.026 A 
ATOM     17  C   UNL     1       8.636   2.542  22.004  0.00  0.00    +0.002 A 
ATOM     18  C   UNL     1       7.311   1.984  22.206  0.00  0.00    +0.001 A 
ATOM     19  C   UNL     1       7.149   0.718  22.617  0.00  0.00    +0.010 A 
ATOM     20  C   UNL     1       8.296  -0.118  22.800  0.00  0.00    +0.012 A 
ENDBRANCH  10  11
BRANCH   1  21
ATOM     21  N   UNL     1       5.758  -1.839  24.560  0.00  0.00    -0.263 N 
ATOM     22  H   UNL     1       5.296  -0.987  24.254  0.00  0.00    +0.194 HD
BRANCH  21  23
ATOM     23  O   UNL     1       5.531  -2.189  25.891  0.00  0.00    -0.274 OA
BRANCH  23  24
ATOM     24  C   UNL     1       6.776  -2.608  26.470  0.00  0.00    +0.195 C 
BRANCH  24  25
ATOM     25  C   UNL     1       6.633  -3.978  27.128  0.00  0.00    +0.064 C 
BRANCH  25  26
ATOM     26  C   UNL     1       7.556  -5.015  26.506  0.00  0.00    +0.142 C 
BRANCH  26  27
ATOM     27  O   UNL     1       7.927  -5.973  27.500  0.00  0.00    -0.389 OA
ATOM     28  H   UNL     1       7.335  -6.738  27.375  0.00  0.00    +0.210 HD
ENDBRANCH  26  27
BRANCH  26  29
ATOM     29  C   UNL     1       8.819  -4.346  25.961  0.00  0.00    +0.187 C 
BRANCH  29  30
ATOM     30  O   UNL     1       9.163  -4.921  24.702  0.00  0.00    -0.392 OA
ATOM     31  H   UNL     1      10.017  -5.369  24.836  0.00  0.00    +0.210 HD
ENDBRANCH  29  30
ENDBRANCH  26  29
ENDBRANCH  25  26
ENDBRANCH  24  25
ENDBRANCH  23  24
ENDBRANCH  21  23
ENDBRANCH   1  21
TORSDOF 9
ENDMDL
MODEL 4
REMARK VINA RESULT:      -6.9      2.136      4.033
REMARK  Name = 
REMARK  9 active torsions:
REMARK  status: ('A' for Active; 'I' for Inactive)
REMARK    1  A    between atoms: C_2  and  O_3
REMARK    2  A    between atoms: C_2  and  C_4
REMARK    3  A    between atoms: C_2  and  C_6
REMARK    4  A    between atoms: C_4  and  O_5
REMARK    5  A    between atoms: C_6  and  C_7
REMARK    6  A    between atoms: C_7  and  O_8
REMARK    7  A    between atoms: O_8  and  N_9
REMARK    8  A    between atoms: N_9  and  C_10
REMARK    9  A    between atoms: C_11  and  C_19
REMARK                            x       y       z     vdW  Elec       q    Type
REMARK                         _______ _______ _______ _____ _____    ______ ____
ROOT
ATOM      1  C   UNL     1       8.408  -1.220  24.682  0.00  0.00    +0.094 A 
ATOM      2  C   UNL     1       9.096  -0.109  24.128  0.00  0.00    +0.025 A 
ATOM      3  C   UNL     1       8.648   0.024  22.814  0.00  0.00    +0.049 A 
ATOM      4  C   UNL     1       9.181   0.979  21.937  0.00  0.00    +0.026 A 
ATOM      5  C   UNL     1      10.193   1.817  22.424  0.00  0.00    +0.002 A 
ATOM      6  C   UNL     1      10.653   1.708  23.735  0.00  0.00    +0.001 A 
ATOM      7  N   UNL     1       7.679  -0.943  22.616  0.00  0.00    -0.352 N 
ATOM      8  H   UNL     1       7.203  -1.106  21.736  0.00  0.00    +0.166 HD
ATOM      9  C   UNL     1      10.116   0.747  24.594  0.00  0.00    +0.012 A 
ATOM     10  C   UNL     1       7.481  -1.678  23.768  0.00  0.00    +0.079 A 
ENDROOT
BRANCH  10  11
ATOM     11  C   UNL     1       6.495  -2.689  23.787  0.00  0.00    +0.073 C 
ATOM     12  C   UNL     1       5.156  -2.617  24.440  0.00  0.00    +0.270 C 
ATOM     13  O   UNL     1       4.827  -1.718  25.198  0.00  0.00    -0.268 OA
ATOM     14  N   UNL     1       4.404  -3.709  24.070  0.00  0.00    -0.176 NA
ATOM     15  C   UNL     1       5.199  -4.417  23.345  0.00  0.00    +0.065 A 
ATOM     16  C   UNL     1       4.881  -5.662  22.612  0.00  0.00    +0.026 A 
ATOM     17  C   UNL     1       5.837  -6.235  21.861  0.00  0.00    +0.002 A 
ATOM     18  C   UNL     1       7.193  -5.724  21.798  0.00  0.00    +0.001 A 
ATOM     19  C   UNL     1       7.547  -4.614  22.463  0.00  0.00    +0.010 A 
ATOM     20  C   UNL     1       6.557  -3.885  23.197  0.00  0.00    +0.012 A 
ENDBRANCH  10  11
BRANCH   1  21
ATOM     21  N   UNL     1       8.691  -1.739  25.894  0.00  0.00    -0.263 N 
ATOM     22  H   UNL     1       9.299  -1.263  26.557  0.00  0.00    +0.194 HD
BRANCH  21  23
ATOM     23  O   UNL     1       8.009  -2.843  26.406  0.00  0.00    -0.274 OA
BRANCH  23  24
ATOM     24  C   UNL     1       8.861  -3.994  26.298  0.00  0.00    +0.195 C 
BRANCH  24  25
ATOM     25  C   UNL     1       8.034  -5.267  26.141  0.00  0.00    +0.064 C 
BRANCH  25  26
ATOM     26  C   UNL     1       7.005  -5.425  27.250  0.00  0.00    +0.142 C 
BRANCH  26  27
ATOM     27  O   UNL     1       7.507  -6.332  28.234  0.00  0.00    -0.389 OA
ATOM     28  H   UNL     1       8.002  -5.790  28.877  0.00  0.00    +0.210 HD
ENDBRANCH  26  27
BRANCH  26  29
ATOM     29  C   UNL     1       5.694  -5.975  26.685  0.00  0.00    +0.187 C 
BRANCH  29  30
ATOM     30  O   UNL     1       4.661  -5.002  26.830  0.00  0.00    -0.392 OA
ATOM     31  H   UNL     1       3.822  -5.485  26.730  0.00  0.00    +0.210 HD
ENDBRANCH  29  30
ENDBRANCH  26  29
ENDBRANCH  25  26
ENDBRANCH  24  25
ENDBRANCH  23  24
ENDBRANCH  21  23
ENDBRANCH   1  21
TORSDOF 9
ENDMDL
MODEL 5
REMARK VINA RESULT:      -6.8      2.159      5.926
REMARK  Name = 
REMARK  9 active torsions:
REMARK  status: ('A' for Active; 'I' for Inactive)
REMARK    1  A    between atoms: C_2  and  O_3
REMARK    2  A    between atoms: C_2  and  C_4
REMARK    3  A    between atoms: C_2  and  C_6
REMARK    4  A    between atoms: C_4  and  O_5
REMARK    5  A    between atoms: C_6  and  C_7
REMARK    6  A    between atoms: C_7  and  O_8
REMARK    7  A    between atoms: O_8  and  N_9
REMARK    8  A    between atoms: N_9  and  C_10
REMARK    9  A    between atoms: C_11  and  C_19
REMARK                            x       y       z     vdW  Elec       q    Type
REMARK                         _______ _______ _______ _____ _____    ______ ____
ROOT
ATOM      1  C   UNL     1       8.080  -2.996  23.612  0.00  0.00    +0.094 A 
ATOM      2  C   UNL     1       7.212  -4.008  23.126  0.00  0.00    +0.025 A 
ATOM      3  C   UNL     1       5.925  -3.470  23.139  0.00  0.00    +0.049 A 
ATOM      4  C   UNL     1       4.797  -4.228  22.796  0.00  0.00    +0.026 A 
ATOM      5  C   UNL     1       4.998  -5.565  22.428  0.00  0.00    +0.002 A 
ATOM      6  C   UNL     1       6.274  -6.123  22.402  0.00  0.00    +0.001 A 
ATOM      7  N   UNL     1       6.037  -2.159  23.562  0.00  0.00    -0.352 N 
ATOM      8  H   UNL     1       5.253  -1.533  23.703  0.00  0.00    +0.166 HD
ATOM      9  C   UNL     1       7.387  -5.356  22.753  0.00  0.00    +0.012 A 
ATOM     10  C   UNL     1       7.358  -1.836  23.804  0.00  0.00    +0.079 A 
ENDROOT
BRANCH  10  11
ATOM     11  C   UNL     1       7.691  -0.522  24.202  0.00  0.00    +0.073 C 
ATOM     12  C   UNL     1       7.315   0.144  25.483  0.00  0.00    +0.270 C 
ATOM     13  O   UNL     1       6.509  -0.326  26.272  0.00  0.00    -0.268 OA
ATOM     14  N   UNL     1       7.989   1.338  25.596  0.00  0.00    -0.176 NA
ATOM     15  C   UNL     1       8.640   1.447  24.490  0.00  0.00    +0.065 A 
ATOM     16  C   UNL     1       9.602   2.505  24.112  0.00  0.00    +0.026 A 
ATOM     17  C   UNL     1      10.226   2.420  22.924  0.00  0.00    +0.002 A 
ATOM     18  C   UNL     1       9.939   1.372  21.963  0.00  0.00    +0.001 A 
ATOM     19  C   UNL     1       9.055   0.401  22.240  0.00  0.00    +0.010 A 
ATOM     20  C   UNL     1       8.432   0.361  23.528  0.00  0.00    +0.012 A 
ENDBRANCH  10  11
BRANCH   1  21
ATOM     21  N   UNL     1       9.387  -3.202  23.877  0.00  0.00    -0.263 N 
ATOM     22  H   UNL     1      10.103  -2.529  23.616  0.00  0.00    +0.194 HD
BRANCH  21  23
ATOM     23  O   UNL     1       9.821  -4.235  24.709  0.00  0.00    -0.274 OA
BRANCH  23  24
ATOM     24  C   UNL     1       9.320  -3.992  26.033  0.00  0.00    +0.195 C 
BRANCH  24  25
ATOM     25  C   UNL     1       8.425  -5.140  26.492  0.00  0.00    +0.064 C 
BRANCH  25  26
ATOM     26  C   UNL     1       6.985  -4.699  26.700  0.00  0.00    +0.142 C 
BRANCH  26  27
ATOM     27  O   UNL     1       6.955  -3.292  26.955  0.00  0.00    -0.389 OA
ATOM     28  H   UNL     1       7.829  -3.063  27.322  0.00  0.00    +0.210 HD
ENDBRANCH  26  27
BRANCH  26  29
ATOM     29  C   UNL     1       6.368  -5.435  27.890  0.00  0.00    +0.187 C 
BRANCH  29  30
ATOM     30  O   UNL     1       7.270  -6.438  28.355  0.00  0.00    -0.392 OA
ATOM     31  H   UNL     1       7.385  -6.274  29.308  0.00  0.00    +0.210 HD
ENDBRANCH  29  30
ENDBRANCH  26  29
ENDBRANCH  25  26
ENDBRANCH  24  25
ENDBRANCH  23  24
ENDBRANCH  21  23
ENDBRANCH   1  21
TORSDOF 9
ENDMDL
MODEL 6
REMARK VINA RESULT:      -6.5      2.102      3.722
REMARK  Name = 
REMARK  9 active torsions:
REMARK  status: ('A' for Active; 'I' for Inactive)
REMARK    1  A    between atoms: C_2  and  O_3
REMARK    2  A    between atoms: C_2  and  C_4
REMARK    3  A    between atoms: C_2  and  C_6
REMARK    4  A    between atoms: C_4  and  O_5
REMARK    5  A    between atoms: C_6  and  C_7
REMARK    6  A    between atoms: C_7  and  O_8
REMARK    7  A    between atoms: O_8  and  N_9
REMARK    8  A    between atoms: N_9  and  C_10
REMARK    9  A    between atoms: C_11  and  C_19
REMARK                            x       y       z     vdW  Elec       q    Type
REMARK                         _______ _______ _______ _____ _____    ______ ____
ROOT
ATOM      1  C   UNL     1       8.165  -2.650  24.197  0.00  0.00    +0.094 A 
ATOM      2  C   UNL     1       8.916  -1.528  23.761  0.00  0.00    +0.025 A 
ATOM      3  C   UNL     1       8.643  -1.368  22.403  0.00  0.00    +0.049 A 
ATOM      4  C   UNL     1       9.283  -0.395  21.624  0.00  0.00    +0.026 A 
ATOM      5  C   UNL     1      10.220   0.433  22.257  0.00  0.00    +0.002 A 
ATOM      6  C   UNL     1      10.505   0.297  23.614  0.00  0.00    +0.001 A 
ATOM      7  N   UNL     1       7.712  -2.330  22.060  0.00  0.00    -0.352 N 
ATOM      8  H   UNL     1       7.355  -2.475  21.122  0.00  0.00    +0.166 HD
ATOM      9  C   UNL     1       9.863  -0.682  24.375  0.00  0.00    +0.012 A 
ATOM     10  C   UNL     1       7.367  -3.089  23.161  0.00  0.00    +0.079 A 
ENDROOT
BRANCH  10  11
ATOM     11  C   UNL     1       6.389  -4.101  23.029  0.00  0.00    +0.073 C 
ATOM     12  C   UNL     1       6.517  -5.370  22.255  0.00  0.00    +0.270 C 
ATOM     13  O   UNL     1       7.441  -5.597  21.488  0.00  0.00    -0.268 OA
ATOM     14  N   UNL     1       5.445  -6.187  22.530  0.00  0.00    -0.176 NA
ATOM     15  C   UNL     1       4.698  -5.487  23.311  0.00  0.00    +0.065 A 
ATOM     16  C   UNL     1       3.452  -5.912  23.985  0.00  0.00    +0.026 A 
ATOM     17  C   UNL     1       2.834  -5.050  24.810  0.00  0.00    +0.002 A 
ATOM     18  C   UNL     1       3.298  -3.690  25.011  0.00  0.00    +0.001 A 
ATOM     19  C   UNL     1       4.407  -3.240  24.405  0.00  0.00    +0.010 A 
ATOM     20  C   UNL     1       5.182  -4.133  23.597  0.00  0.00    +0.012 A 
ENDBRANCH  10  11
BRANCH   1  21
ATOM     21  N   UNL     1       8.288  -3.195  25.425  0.00  0.00    -0.263 N 
ATOM     22  H   UNL     1       7.887  -2.758  26.252  0.00  0.00    +0.194 HD
BRANCH  21  23
ATOM     23  O   UNL     1       8.777  -4.488  25.618  0.00  0.00    -0.274 OA
BRANCH  23  24
ATOM     24  C   UNL     1       8.128  -5.051  26.769  0.00  0.00    +0.195 C 
BRANCH  24  25
ATOM     25  C   UNL     1       6.621  -4.810  26.713  0.00  0.00    +0.064 C 
BRANCH  25  26
ATOM     26  C   UNL     1       5.897  -5.416  27.905  0.00  0.00    +0.142 C 
BRANCH  26  27
ATOM     27  O   UNL     1       6.859  -5.861  28.865  0.00  0.00    -0.389 OA
ATOM     28  H   UNL     1       7.434  -6.496  28.399  0.00  0.00    +0.210 HD
ENDBRANCH  26  27
BRANCH  26  29
ATOM     29  C   UNL     1       5.046  -6.607  27.462  0.00  0.00    +0.187 C 
BRANCH  29  30
ATOM     30  O   UNL     1       5.227  -7.692  28.370  0.00  0.00    -0.392 OA
ATOM     31  H   UNL     1       6.110  -7.569  28.762  0.00  0.00    +0.210 HD
ENDBRANCH  29  30
ENDBRANCH  26  29
ENDBRANCH  25  26
ENDBRANCH  24  25
ENDBRANCH  23  24
ENDBRANCH  21  23
ENDBRANCH   1  21
TORSDOF 9
ENDMDL
MODEL 7
REMARK VINA RESULT:      -6.5      2.619      4.046
REMARK  Name = 
REMARK  9 active torsions:
REMARK  status: ('A' for Active; 'I' for Inactive)
REMARK    1  A    between atoms: C_2  and  O_3
REMARK    2  A    between atoms: C_2  and  C_4
REMARK    3  A    between atoms: C_2  and  C_6
REMARK    4  A    between atoms: C_4  and  O_5
REMARK    5  A    between atoms: C_6  and  C_7
REMARK    6  A    between atoms: C_7  and  O_8
REMARK    7  A    between atoms: O_8  and  N_9
REMARK    8  A    between atoms: N_9  and  C_10
REMARK    9  A    between atoms: C_11  and  C_19
REMARK                            x       y       z     vdW  Elec       q    Type
REMARK                         _______ _______ _______ _____ _____    ______ ____
ROOT
ATOM      1  C   UNL     1       6.487  -0.215  24.018  0.00  0.00    +0.094 A 
ATOM      2  C   UNL     1       6.422   1.101  23.491  0.00  0.00    +0.025 A 
ATOM      3  C   UNL     1       7.428   1.197  22.531  0.00  0.00    +0.049 A 
ATOM      4  C   UNL     1       7.706   2.396  21.860  0.00  0.00    +0.026 A 
ATOM      5  C   UNL     1       6.930   3.517  22.181  0.00  0.00    +0.002 A 
ATOM      6  C   UNL     1       5.915   3.444  23.132  0.00  0.00    +0.001 A 
ATOM      7  N   UNL     1       8.031  -0.044  22.449  0.00  0.00    -0.352 N 
ATOM      8  H   UNL     1       8.825  -0.258  21.856  0.00  0.00    +0.166 HD
ATOM      9  C   UNL     1       5.654   2.244  23.797  0.00  0.00    +0.012 A 
ATOM     10  C   UNL     1       7.430  -0.936  23.315  0.00  0.00    +0.079 A 
ENDROOT
BRANCH  10  11
ATOM     11  C   UNL     1       7.873  -2.278  23.349  0.00  0.00    +0.073 C 
ATOM     12  C   UNL     1       9.099  -2.796  24.022  0.00  0.00    +0.270 C 
ATOM     13  O   UNL     1       9.968  -2.071  24.481  0.00  0.00    -0.268 OA
ATOM     14  N   UNL     1       9.084  -4.172  24.010  0.00  0.00    -0.176 NA
ATOM     15  C   UNL     1       8.026  -4.477  23.342  0.00  0.00    +0.065 A 
ATOM     16  C   UNL     1       7.475  -5.827  23.095  0.00  0.00    +0.026 A 
ATOM     17  C   UNL     1       6.324  -5.944  22.412  0.00  0.00    +0.002 A 
ATOM     18  C   UNL     1       5.635  -4.801  21.840  0.00  0.00    +0.001 A 
ATOM     19  C   UNL     1       6.102  -3.555  22.009  0.00  0.00    +0.010 A 
ATOM     20  C   UNL     1       7.263  -3.340  22.818  0.00  0.00    +0.012 A 
ENDBRANCH  10  11
BRANCH   1  21
ATOM     21  N   UNL     1       5.758  -0.629  25.075  0.00  0.00    -0.263 N 
ATOM     22  H   UNL     1       5.783  -0.147  25.970  0.00  0.00    +0.194 HD
BRANCH  21  23
ATOM     23  O   UNL     1       4.766  -1.603  24.956  0.00  0.00    -0.274 OA
BRANCH  23  24
ATOM     24  C   UNL     1       4.725  -2.360  26.176  0.00  0.00    +0.195 C 
BRANCH  24  25
ATOM     25  C   UNL     1       5.496  -3.669  26.025  0.00  0.00    +0.064 C 
BRANCH  25  26
ATOM     26  C   UNL     1       6.652  -3.773  27.009  0.00  0.00    +0.142 C 
BRANCH  26  27
ATOM     27  O   UNL     1       7.645  -2.800  26.673  0.00  0.00    -0.389 OA
ATOM     28  H   UNL     1       7.186  -2.109  26.160  0.00  0.00    +0.210 HD
ENDBRANCH  26  27
BRANCH  26  29
ATOM     29  C   UNL     1       7.278  -5.167  26.951  0.00  0.00    +0.187 C 
BRANCH  29  30
ATOM     30  O   UNL     1       8.699  -5.059  27.014  0.00  0.00    -0.392 OA
ATOM     31  H   UNL     1       9.042  -5.963  26.897  0.00  0.00    +0.210 HD
ENDBRANCH  29  30
ENDBRANCH  26  29
ENDBRANCH  25  26
ENDBRANCH  24  25
ENDBRANCH  23  24
ENDBRANCH  21  23
ENDBRANCH   1  21
TORSDOF 9
ENDMDL
MODEL 8
REMARK VINA RESULT:      -6.3      3.186      4.727
REMARK  Name = 
REMARK  9 active torsions:
REMARK  status: ('A' for Active; 'I' for Inactive)
REMARK    1  A    between atoms: C_2  and  O_3
REMARK    2  A    between atoms: C_2  and  C_4
REMARK    3  A    between atoms: C_2  and  C_6
REMARK    4  A    between atoms: C_4  and  O_5
REMARK    5  A    between atoms: C_6  and  C_7
REMARK    6  A    between atoms: C_7  and  O_8
REMARK    7  A    between atoms: O_8  and  N_9
REMARK    8  A    between atoms: N_9  and  C_10
REMARK    9  A    between atoms: C_11  and  C_19
REMARK                            x       y       z     vdW  Elec       q    Type
REMARK                         _______ _______ _______ _____ _____    ______ ____
ROOT
ATOM      1  C   UNL     1       8.708  -1.058  25.107  0.00  0.00    +0.094 A 
ATOM      2  C   UNL     1       9.085  -0.072  24.159  0.00  0.00    +0.025 A 
ATOM      3  C   UNL     1       9.268  -0.734  22.946  0.00  0.00    +0.049 A 
ATOM      4  C   UNL     1       9.727  -0.073  21.798  0.00  0.00    +0.026 A 
ATOM      5  C   UNL     1       9.998   1.298  21.901  0.00  0.00    +0.002 A 
ATOM      6  C   UNL     1       9.817   1.982  23.100  0.00  0.00    +0.001 A 
ATOM      7  N   UNL     1       8.949  -2.062  23.156  0.00  0.00    -0.352 N 
ATOM      8  H   UNL     1       9.027  -2.789  22.453  0.00  0.00    +0.166 HD
ATOM      9  C   UNL     1       9.366   1.308  24.237  0.00  0.00    +0.012 A 
ATOM     10  C   UNL     1       8.551  -2.268  24.462  0.00  0.00    +0.079 A 
ENDROOT
BRANCH  10  11
ATOM     11  C   UNL     1       8.138  -3.556  24.869  0.00  0.00    +0.073 C 
ATOM     12  C   UNL     1       9.017  -4.727  25.151  0.00  0.00    +0.270 C 
ATOM     13  O   UNL     1      10.209  -4.750  24.887  0.00  0.00    -0.268 OA
ATOM     14  N   UNL     1       8.271  -5.737  25.714  0.00  0.00    -0.176 NA
ATOM     15  C   UNL     1       7.064  -5.289  25.709  0.00  0.00    +0.065 A 
ATOM     16  C   UNL     1       5.861  -5.932  26.280  0.00  0.00    +0.026 A 
ATOM     17  C   UNL     1       4.686  -5.282  26.221  0.00  0.00    +0.002 A 
ATOM     18  C   UNL     1       4.534  -4.003  25.553  0.00  0.00    +0.001 A 
ATOM     19  C   UNL     1       5.585  -3.384  24.993  0.00  0.00    +0.010 A 
ATOM     20  C   UNL     1       6.889  -3.962  25.110  0.00  0.00    +0.012 A 
ENDBRANCH  10  11
BRANCH   1  21
ATOM     21  N   UNL     1       8.586  -0.811  26.428  0.00  0.00    -0.263 N 
ATOM     22  H   UNL     1       9.258  -0.238  26.934  0.00  0.00    +0.194 HD
BRANCH  21  23
ATOM     23  O   UNL     1       7.432  -1.137  27.141  0.00  0.00    -0.274 OA
BRANCH  23  24
ATOM     24  C   UNL     1       6.381  -0.249  26.733  0.00  0.00    +0.195 C 
BRANCH  24  25
ATOM     25  C   UNL     1       5.792   0.482  27.938  0.00  0.00    +0.064 C 
BRANCH  25  26
ATOM     26  C   UNL     1       6.625   1.688  28.343  0.00  0.00    +0.142 C 
BRANCH  26  27
ATOM     27  O   UNL     1       7.609   1.941  27.337  0.00  0.00    -0.389 OA
ATOM     28  H   UNL     1       7.256   2.666  26.788  0.00  0.00    +0.210 HD
ENDBRANCH  26  27
BRANCH  26  29
ATOM     29  C   UNL     1       7.328   1.426  29.676  0.00  0.00    +0.187 C 
BRANCH  29  30
ATOM     30  O   UNL     1       8.169   2.532  30.001  0.00  0.00    -0.392 OA
ATOM     31  H   UNL     1       7.667   3.072  30.637  0.00  0.00    +0.210 HD
ENDBRANCH  29  30
ENDBRANCH  26  29
ENDBRANCH  25  26
ENDBRANCH  24  25
ENDBRANCH  23  24
ENDBRANCH  21  23
ENDBRANCH   1  21
TORSDOF 9
ENDMDL
MODEL 9
REMARK VINA RESULT:      -6.2      1.773      2.568
REMARK  Name = 
REMARK  9 active torsions:
REMARK  status: ('A' for Active; 'I' for Inactive)
REMARK    1  A    between atoms: C_2  and  O_3
REMARK    2  A    between atoms: C_2  and  C_4
REMARK    3  A    between atoms: C_2  and  C_6
REMARK    4  A    between atoms: C_4  and  O_5
REMARK    5  A    between atoms: C_6  and  C_7
REMARK    6  A    between atoms: C_7  and  O_8
REMARK    7  A    between atoms: O_8  and  N_9
REMARK    8  A    between atoms: N_9  and  C_10
REMARK    9  A    between atoms: C_11  and  C_19
REMARK                            x       y       z     vdW  Elec       q    Type
REMARK                         _______ _______ _______ _____ _____    ______ ____
ROOT
ATOM      1  C   UNL     1       7.968  -0.842  23.377  0.00  0.00    +0.094 A 
ATOM      2  C   UNL     1       8.816   0.265  23.113  0.00  0.00    +0.025 A 
ATOM      3  C   UNL     1       8.851   1.027  24.280  0.00  0.00    +0.049 A 
ATOM      4  C   UNL     1       9.535   2.249  24.352  0.00  0.00    +0.026 A 
ATOM      5  C   UNL     1      10.199   2.691  23.201  0.00  0.00    +0.002 A 
ATOM      6  C   UNL     1      10.184   1.944  22.025  0.00  0.00    +0.001 A 
ATOM      7  N   UNL     1       8.094   0.359  25.225  0.00  0.00    -0.352 N 
ATOM      8  H   UNL     1       7.912   0.703  26.161  0.00  0.00    +0.166 HD
ATOM      9  C   UNL     1       9.492   0.732  21.968  0.00  0.00    +0.012 A 
ATOM     10  C   UNL     1       7.591  -0.816  24.704  0.00  0.00    +0.079 A 
ENDROOT
BRANCH  10  11
ATOM     11  C   UNL     1       6.826  -1.671  25.529  0.00  0.00    +0.073 C 
ATOM     12  C   UNL     1       5.387  -1.511  25.887  0.00  0.00    +0.270 C 
ATOM     13  O   UNL     1       4.743  -0.503  25.642  0.00  0.00    -0.268 OA
ATOM     14  N   UNL     1       4.946  -2.642  26.536  0.00  0.00    -0.176 NA
ATOM     15  C   UNL     1       5.995  -3.382  26.644  0.00  0.00    +0.065 A 
ATOM     16  C   UNL     1       6.076  -4.755  27.186  0.00  0.00    +0.026 A 
ATOM     17  C   UNL     1       7.261  -5.391  27.170  0.00  0.00    +0.002 A 
ATOM     18  C   UNL     1       8.482  -4.756  26.709  0.00  0.00    +0.001 A 
ATOM     19  C   UNL     1       8.473  -3.503  26.232  0.00  0.00    +0.010 A 
ATOM     20  C   UNL     1       7.232  -2.800  26.114  0.00  0.00    +0.012 A 
ENDBRANCH  10  11
BRANCH   1  21
ATOM     21  N   UNL     1       7.579  -1.722  22.431  0.00  0.00    -0.263 N 
ATOM     22  H   UNL     1       7.662  -1.518  21.437  0.00  0.00    +0.194 HD
BRANCH  21  23
ATOM     23  O   UNL     1       7.244  -3.042  22.737  0.00  0.00    -0.274 OA
BRANCH  23  24
ATOM     24  C   UNL     1       5.869  -3.255  22.381  0.00  0.00    +0.195 C 
BRANCH  24  25
ATOM     25  C   UNL     1       5.271  -4.400  23.195  0.00  0.00    +0.064 C 
BRANCH  25  26
ATOM     26  C   UNL     1       5.059  -5.651  22.357  0.00  0.00    +0.142 C 
BRANCH  26  27
ATOM     27  O   UNL     1       5.122  -6.801  23.205  0.00  0.00    -0.389 OA
ATOM     28  H   UNL     1       4.324  -6.769  23.766  0.00  0.00    +0.210 HD
ENDBRANCH  26  27
BRANCH  26  29
ATOM     29  C   UNL     1       6.142  -5.763  21.282  0.00  0.00    +0.187 C 
BRANCH  29  30
ATOM     30  O   UNL     1       7.386  -6.111  21.887  0.00  0.00    -0.392 OA
ATOM     31  H   UNL     1       7.218  -6.922  22.399  0.00  0.00    +0.210 HD
ENDBRANCH  29  30
ENDBRANCH  26  29
ENDBRANCH  25  26
ENDBRANCH  24  25
ENDBRANCH  23  24
ENDBRANCH  21  23
ENDBRANCH   1  21
TORSDOF 9
ENDMDL
