MODEL 1
REMARK VINA RESULT:      -8.4      0.000      0.000
REMARK  Name = 
REMARK  9 active torsions:
REMARK  status: ('A' for Active; 'I' for Inactive)
REMARK    1  A    between atoms: C_1  and  C_2
REMARK    2  A    between atoms: C_2  and  C_3
REMARK    3  A    between atoms: C_6  and  C_7
REMARK    4  A    between atoms: C_6  and  C_8
REMARK    5  A    between atoms: C_13  and  C_15
REMARK    6  A    between atoms: C_15  and  O_17
REMARK    7  A    between atoms: C_15  and  C_18
REMARK    8  A    between atoms: C_25  and  C_28
REMARK    9  A    between atoms: C_28  and  O_29
REMARK                            x       y       z     vdW  Elec       q    Type
REMARK                         _______ _______ _______ _____ _____    ______ ____
ROOT
ATOM      1  C   UNL     1       9.835  -1.921  24.137  0.00  0.00    +0.175 C 
ENDROOT
BRANCH   1   7
ATOM      2  C   UNL     1       5.655  -6.242  26.685  0.00  0.00    +0.016 C 
ATOM      3  C   UNL     1       5.130  -5.090  25.798  0.00  0.00    -0.010 C 
ATOM      4  C   UNL     1       6.318  -4.244  25.319  0.00  0.00    -0.038 A 
ATOM      5  C   UNL     1       7.033  -3.456  26.246  0.00  0.00    +0.005 A 
ATOM      6  C   UNL     1       8.151  -2.703  25.871  0.00  0.00    +0.007 A 
ATOM      7  C   UNL     1       8.582  -2.687  24.544  0.00  0.00    -0.014 A 
ATOM      8  C   UNL     1       7.839  -3.421  23.607  0.00  0.00    +0.011 A 
ATOM      9  C   UNL     1       6.761  -4.259  23.978  0.00  0.00    -0.038 A 
ATOM     10  C   UNL     1       6.153  -5.181  22.914  0.00  0.00    -0.010 C 
ATOM     11  C   UNL     1       5.349  -4.346  21.896  0.00  0.00    +0.016 C 
ATOM     12  C   UNL     1       7.271  -5.941  22.157  0.00  0.00    +0.016 C 
ATOM     13  C   UNL     1       5.246  -6.259  23.546  0.00  0.00    +0.012 C 
ATOM     14  C   UNL     1       4.332  -5.674  24.610  0.00  0.00    +0.012 C 
ATOM     15  C   UNL     1       4.130  -4.256  26.631  0.00  0.00    +0.016 C 
ENDBRANCH   1   7
BRANCH   1  16
ATOM     16  C   UNL     1       9.659  -0.449  23.824  0.00  0.00    -0.014 A 
ATOM     17  C   UNL     1      10.544   0.483  24.387  0.00  0.00    +0.007 A 
ATOM     18  C   UNL     1      10.356   1.857  24.195  0.00  0.00    +0.009 A 
ATOM     19  C   UNL     1       9.266   2.333  23.455  0.00  0.00    -0.017 A 
ATOM     20  C   UNL     1       8.986   3.708  23.341  0.00  0.00    +0.023 A 
ATOM     21  C   UNL     1       7.846   4.142  22.645  0.00  0.00    +0.059 A 
ATOM     22  C   UNL     1       7.001   3.215  22.036  0.00  0.00    +0.015 A 
ATOM     23  C   UNL     1       7.293   1.854  22.113  0.00  0.00    +0.009 A 
ATOM     24  C   UNL     1       8.404   1.399  22.834  0.00  0.00    -0.017 A 
ATOM     25  C   UNL     1       8.633   0.025  22.995  0.00  0.00    +0.015 A 
BRANCH  21  26
ATOM     26  C   UNL     1       7.459   5.573  22.594  0.00  0.00    +0.337 C 
ATOM     27  O   UNL     1       7.081   6.196  23.573  0.00  0.00    -0.245 OA
BRANCH  26  28
ATOM     28  O   UNL     1       7.539   6.102  21.356  0.00  0.00    -0.477 OA
ATOM     29  H   UNL     1       8.387   5.947  20.905  0.00  0.00    +0.295 HD
ENDBRANCH  26  28
ENDBRANCH  21  26
ENDBRANCH   1  16
BRANCH   1  30
ATOM     30  O   UNL     1      10.494  -2.540  23.031  0.00  0.00    -0.383 OA
ATOM     31  H   UNL     1      10.034  -2.236  22.232  0.00  0.00    +0.211 HD
ENDBRANCH   1  30
TORSDOF 5
ENDMDL
MODEL 2
REMARK VINA RESULT:      -8.4      3.025      8.766
REMARK  Name = 
REMARK  9 active torsions:
REMARK  status: ('A' for Active; 'I' for Inactive)
REMARK    1  A    between atoms: C_1  and  C_2
REMARK    2  A    between atoms: C_2  and  C_3
REMARK    3  A    between atoms: C_6  and  C_7
REMARK    4  A    between atoms: C_6  and  C_8
REMARK    5  A    between atoms: C_13  and  C_15
REMARK    6  A    between atoms: C_15  and  O_17
REMARK    7  A    between atoms: C_15  and  C_18
REMARK    8  A    between atoms: C_25  and  C_28
REMARK    9  A    between atoms: C_28  and  O_29
REMARK                            x       y       z     vdW  Elec       q    Type
REMARK                         _______ _______ _______ _____ _____    ______ ____
ROOT
ATOM      1  C   UNL     1       9.025   1.729  21.769  0.00  0.00    +0.175 C 
ENDROOT
BRANCH   1   7
ATOM      2  C   UNL     1       4.607   6.459  22.628  0.00  0.00    +0.016 C 
ATOM      3  C   UNL     1       5.108   5.641  23.840  0.00  0.00    -0.010 C 
ATOM      4  C   UNL     1       6.149   4.619  23.361  0.00  0.00    -0.038 A 
ATOM      5  C   UNL     1       5.741   3.533  22.556  0.00  0.00    +0.005 A 
ATOM      6  C   UNL     1       6.656   2.601  22.054  0.00  0.00    +0.007 A 
ATOM      7  C   UNL     1       8.013   2.703  22.362  0.00  0.00    -0.014 A 
ATOM      8  C   UNL     1       8.414   3.745  23.210  0.00  0.00    +0.011 A 
ATOM      9  C   UNL     1       7.524   4.750  23.655  0.00  0.00    -0.038 A 
ATOM     10  C   UNL     1       8.101   5.960  24.400  0.00  0.00    -0.010 C 
ATOM     11  C   UNL     1       8.563   5.536  25.809  0.00  0.00    +0.016 C 
ATOM     12  C   UNL     1       9.317   6.535  23.632  0.00  0.00    +0.016 C 
ATOM     13  C   UNL     1       7.072   7.107  24.506  0.00  0.00    +0.012 C 
ATOM     14  C   UNL     1       5.697   6.598  24.903  0.00  0.00    +0.012 C 
ATOM     15  C   UNL     1       3.889   4.953  24.497  0.00  0.00    +0.016 C 
ENDBRANCH   1   7
BRANCH   1  16
ATOM     16  C   UNL     1       9.251   0.439  22.530  0.00  0.00    -0.014 A 
ATOM     17  C   UNL     1       9.937  -0.615  21.906  0.00  0.00    +0.007 A 
ATOM     18  C   UNL     1      10.083  -1.853  22.543  0.00  0.00    +0.009 A 
ATOM     19  C   UNL     1       9.528  -2.075  23.810  0.00  0.00    -0.017 A 
ATOM     20  C   UNL     1       9.558  -3.340  24.426  0.00  0.00    +0.023 A 
ATOM     21  C   UNL     1       8.932  -3.536  25.668  0.00  0.00    +0.059 A 
ATOM     22  C   UNL     1       8.304  -2.472  26.313  0.00  0.00    +0.015 A 
ATOM     23  C   UNL     1       8.302  -1.207  25.727  0.00  0.00    +0.009 A 
ATOM     24  C   UNL     1       8.888  -1.000  24.471  0.00  0.00    -0.017 A 
ATOM     25  C   UNL     1       8.792   0.249  23.840  0.00  0.00    +0.015 A 
BRANCH  21  26
ATOM     26  C   UNL     1       8.850  -4.877  26.298  0.00  0.00    +0.337 C 
ATOM     27  O   UNL     1       8.071  -5.143  27.199  0.00  0.00    -0.245 OA
BRANCH  26  28
ATOM     28  O   UNL     1       9.740  -5.757  25.795  0.00  0.00    -0.477 OA
ATOM     29  H   UNL     1      10.605  -5.755  26.239  0.00  0.00    +0.295 HD
ENDBRANCH  26  28
ENDBRANCH  21  26
ENDBRANCH   1  16
BRANCH   1  30
ATOM     30  O   UNL     1      10.292   2.353  21.555  0.00  0.00    -0.383 OA
ATOM     31  H   UNL     1      10.518   2.807  22.383  0.00  0.00    +0.211 HD
ENDBRANCH   1  30
TORSDOF 5
ENDMDL
MODEL 3
REMARK VINA RESULT:      -8.2      2.817      8.414
REMARK  Name = 
REMARK  9 active torsions:
REMARK  status: ('A' for Active; 'I' for Inactive)
REMARK    1  A    between atoms: C_1  and  C_2
REMARK    2  A    between atoms: C_2  and  C_3
REMARK    3  A    between atoms: C_6  and  C_7
REMARK    4  A    between atoms: C_6  and  C_8
REMARK    5  A    between atoms: C_13  and  C_15
REMARK    6  A    between atoms: C_15  and  O_17
REMARK    7  A    between atoms: C_15  and  C_18
REMARK    8  A    between atoms: C_25  and  C_28
REMARK    9  A    between atoms: C_28  and  O_29
REMARK                            x       y       z     vdW  Elec       q    Type
REMARK                         _______ _______ _______ _____ _____    ______ ____
ROOT
ATOM      1  C   UNL     1       9.152  -1.998  22.342  0.00  0.00    +0.175 C 
ENDROOT
BRANCH   1   7
ATOM      2  C   UNL     1       9.299   4.335  23.924  0.00  0.00    +0.016 C 
ATOM      3  C   UNL     1       7.976   3.687  23.454  0.00  0.00    -0.010 C 
ATOM      4  C   UNL     1       8.220   2.198  23.171  0.00  0.00    -0.038 A 
ATOM      5  C   UNL     1       9.016   1.819  22.069  0.00  0.00    +0.005 A 
ATOM      6  C   UNL     1       9.308   0.478  21.794  0.00  0.00    +0.007 A 
ATOM      7  C   UNL     1       8.789  -0.539  22.596  0.00  0.00    -0.014 A 
ATOM      8  C   UNL     1       7.948  -0.171  23.655  0.00  0.00    +0.011 A 
ATOM      9  C   UNL     1       7.712   1.179  24.007  0.00  0.00    -0.038 A 
ATOM     10  C   UNL     1       6.953   1.474  25.307  0.00  0.00    -0.010 C 
ATOM     11  C   UNL     1       5.465   1.102  25.140  0.00  0.00    +0.016 C 
ATOM     12  C   UNL     1       7.543   0.645  26.475  0.00  0.00    +0.016 C 
ATOM     13  C   UNL     1       7.083   2.957  25.717  0.00  0.00    +0.012 C 
ATOM     14  C   UNL     1       6.888   3.890  24.534  0.00  0.00    +0.012 C 
ATOM     15  C   UNL     1       7.490   4.439  22.194  0.00  0.00    +0.016 C 
ENDBRANCH   1   7
BRANCH   1  16
ATOM     16  C   UNL     1       8.308  -3.040  23.047  0.00  0.00    -0.014 A 
ATOM     17  C   UNL     1       7.158  -3.536  22.414  0.00  0.00    +0.007 A 
ATOM     18  C   UNL     1       6.305  -4.429  23.073  0.00  0.00    +0.009 A 
ATOM     19  C   UNL     1       6.568  -4.830  24.389  0.00  0.00    -0.017 A 
ATOM     20  C   UNL     1       5.671  -5.635  25.117  0.00  0.00    +0.023 A 
ATOM     21  C   UNL     1       5.941  -5.961  26.457  0.00  0.00    +0.059 A 
ATOM     22  C   UNL     1       7.115  -5.515  27.064  0.00  0.00    +0.015 A 
ATOM     23  C   UNL     1       8.026  -4.750  26.338  0.00  0.00    +0.009 A 
ATOM     24  C   UNL     1       7.757  -4.383  25.013  0.00  0.00    -0.017 A 
ATOM     25  C   UNL     1       8.627  -3.527  24.322  0.00  0.00    +0.015 A 
BRANCH  21  26
ATOM     26  C   UNL     1       4.971  -6.714  27.288  0.00  0.00    +0.337 C 
ATOM     27  O   UNL     1       3.762  -6.617  27.154  0.00  0.00    -0.245 OA
BRANCH  26  28
ATOM     28  O   UNL     1       5.560  -7.491  28.220  0.00  0.00    -0.477 OA
ATOM     29  H   UNL     1       5.354  -7.246  29.139  0.00  0.00    +0.295 HD
ENDBRANCH  26  28
ENDBRANCH  21  26
ENDBRANCH   1  16
BRANCH   1  30
ATOM     30  O   UNL     1      10.525  -2.257  22.637  0.00  0.00    -0.383 OA
ATOM     31  H   UNL     1      10.644  -2.067  23.582  0.00  0.00    +0.211 HD
ENDBRANCH   1  30
TORSDOF 5
ENDMDL
MODEL 4
REMARK VINA RESULT:      -8.0      2.044      4.066
REMARK  Name = 
REMARK  9 active torsions:
REMARK  status: ('A' for Active; 'I' for Inactive)
REMARK    1  A    between atoms: C_1  and  C_2
REMARK    2  A    between atoms: C_2  and  C_3
REMARK    3  A    between atoms: C_6  and  C_7
REMARK    4  A    between atoms: C_6  and  C_8
REMARK    5  A    between atoms: C_13  and  C_15
REMARK    6  A    between atoms: C_15  and  O_17
REMARK    7  A    between atoms: C_15  and  C_18
REMARK    8  A    between atoms: C_25  and  C_28
REMARK    9  A    between atoms: C_28  and  O_29
REMARK                            x       y       z     vdW  Elec       q    Type
REMARK                         _______ _______ _______ _____ _____    ______ ____
ROOT
ATOM      1  C   UNL     1       8.654  -4.867  25.462  0.00  0.00    +0.175 C 
ENDROOT
BRANCH   1   7
ATOM      2  C   UNL     1       2.208  -4.932  24.420  0.00  0.00    +0.016 C 
ATOM      3  C   UNL     1       2.905  -6.172  25.025  0.00  0.00    -0.010 C 
ATOM      4  C   UNL     1       4.404  -5.879  25.182  0.00  0.00    -0.038 A 
ATOM      5  C   UNL     1       5.214  -5.751  24.033  0.00  0.00    +0.005 A 
ATOM      6  C   UNL     1       6.575  -5.439  24.118  0.00  0.00    +0.007 A 
ATOM      7  C   UNL     1       7.187  -5.270  25.361  0.00  0.00    -0.014 A 
ATOM      8  C   UNL     1       6.401  -5.456  26.506  0.00  0.00    +0.011 A 
ATOM      9  C   UNL     1       5.006  -5.682  26.445  0.00  0.00    -0.038 A 
ATOM     10  C   UNL     1       4.203  -5.659  27.751  0.00  0.00    -0.010 C 
ATOM     11  C   UNL     1       4.521  -6.918  28.584  0.00  0.00    +0.016 C 
ATOM     12  C   UNL     1       4.569  -4.407  28.586  0.00  0.00    +0.016 C 
ATOM     13  C   UNL     1       2.684  -5.574  27.484  0.00  0.00    +0.012 C 
ATOM     14  C   UNL     1       2.250  -6.525  26.381  0.00  0.00    +0.012 C 
ATOM     15  C   UNL     1       2.650  -7.376  24.089  0.00  0.00    +0.016 C 
ENDBRANCH   1   7
BRANCH   1  16
ATOM     16  C   UNL     1       8.970  -3.399  25.262  0.00  0.00    -0.014 A 
ATOM     17  C   UNL     1       8.651  -2.483  26.277  0.00  0.00    +0.007 A 
ATOM     18  C   UNL     1       8.843  -1.109  26.090  0.00  0.00    +0.009 A 
ATOM     19  C   UNL     1       9.336  -0.615  24.876  0.00  0.00    -0.017 A 
ATOM     20  C   UNL     1       9.432   0.766  24.617  0.00  0.00    +0.023 A 
ATOM     21  C   UNL     1       9.869   1.220  23.362  0.00  0.00    +0.059 A 
ATOM     22  C   UNL     1      10.242   0.308  22.376  0.00  0.00    +0.015 A 
ATOM     23  C   UNL     1      10.186  -1.060  22.639  0.00  0.00    +0.009 A 
ATOM     24  C   UNL     1       9.717  -1.534  23.870  0.00  0.00    -0.017 A 
ATOM     25  C   UNL     1       9.564  -2.910  24.090  0.00  0.00    +0.015 A 
BRANCH  21  26
ATOM     26  C   UNL     1       9.881   2.662  23.015  0.00  0.00    +0.337 C 
ATOM     27  O   UNL     1      10.708   3.446  23.453  0.00  0.00    -0.245 OA
BRANCH  26  28
ATOM     28  O   UNL     1       8.873   3.021  22.195  0.00  0.00    -0.477 OA
ATOM     29  H   UNL     1       8.129   2.395  22.171  0.00  0.00    +0.295 HD
ENDBRANCH  26  28
ENDBRANCH  21  26
ENDBRANCH   1  16
BRANCH   1  30
ATOM     30  O   UNL     1       9.470  -5.627  24.570  0.00  0.00    -0.383 OA
ATOM     31  H   UNL     1       9.143  -6.541  24.608  0.00  0.00    +0.211 HD
ENDBRANCH   1  30
TORSDOF 5
ENDMDL
MODEL 5
REMARK VINA RESULT:      -7.9      2.767      8.545
REMARK  Name = 
REMARK  9 active torsions:
REMARK  status: ('A' for Active; 'I' for Inactive)
REMARK    1  A    between atoms: C_1  and  C_2
REMARK    2  A    between atoms: C_2  and  C_3
REMARK    3  A    between atoms: C_6  and  C_7
REMARK    4  A    between atoms: C_6  and  C_8
REMARK    5  A    between atoms: C_13  and  C_15
REMARK    6  A    between atoms: C_15  and  O_17
REMARK    7  A    between atoms: C_15  and  C_18
REMARK    8  A    between atoms: C_25  and  C_28
REMARK    9  A    between atoms: C_28  and  O_29
REMARK                            x       y       z     vdW  Elec       q    Type
REMARK                         _______ _______ _______ _____ _____    ______ ____
ROOT
ATOM      1  C   UNL     1      10.582   0.670  24.282  0.00  0.00    +0.175 C 
ENDROOT
BRANCH   1   7
ATOM      2  C   UNL     1       9.062   6.983  24.963  0.00  0.00    +0.016 C 
ATOM      3  C   UNL     1       8.148   6.054  24.133  0.00  0.00    -0.010 C 
ATOM      4  C   UNL     1       8.724   4.631  24.155  0.00  0.00    -0.038 A 
ATOM      5  C   UNL     1       9.933   4.357  23.481  0.00  0.00    +0.005 A 
ATOM      6  C   UNL     1      10.525   3.089  23.510  0.00  0.00    +0.007 A 
ATOM      7  C   UNL     1       9.914   2.037  24.193  0.00  0.00    -0.014 A 
ATOM      8  C   UNL     1       8.682   2.289  24.814  0.00  0.00    +0.011 A 
ATOM      9  C   UNL     1       8.110   3.582  24.874  0.00  0.00    -0.038 A 
ATOM     10  C   UNL     1       6.873   3.793  25.756  0.00  0.00    -0.010 C 
ATOM     11  C   UNL     1       5.647   3.118  25.109  0.00  0.00    +0.016 C 
ATOM     12  C   UNL     1       7.099   3.171  27.157  0.00  0.00    +0.016 C 
ATOM     13  C   UNL     1       6.589   5.293  25.988  0.00  0.00    +0.012 C 
ATOM     14  C   UNL     1       6.711   6.096  24.703  0.00  0.00    +0.012 C 
ATOM     15  C   UNL     1       8.065   6.617  22.695  0.00  0.00    +0.016 C 
ENDBRANCH   1   7
BRANCH   1  16
ATOM     16  C   UNL     1       9.822  -0.497  23.687  0.00  0.00    -0.014 A 
ATOM     17  C   UNL     1       9.472  -0.468  22.328  0.00  0.00    +0.007 A 
ATOM     18  C   UNL     1       8.690  -1.484  21.766  0.00  0.00    +0.009 A 
ATOM     19  C   UNL     1       8.220  -2.543  22.554  0.00  0.00    -0.017 A 
ATOM     20  C   UNL     1       7.339  -3.516  22.045  0.00  0.00    +0.023 A 
ATOM     21  C   UNL     1       6.838  -4.524  22.886  0.00  0.00    +0.059 A 
ATOM     22  C   UNL     1       7.235  -4.585  24.221  0.00  0.00    +0.015 A 
ATOM     23  C   UNL     1       8.137  -3.647  24.722  0.00  0.00    +0.009 A 
ATOM     24  C   UNL     1       8.618  -2.612  23.910  0.00  0.00    -0.017 A 
ATOM     25  C   UNL     1       9.442  -1.613  24.446  0.00  0.00    +0.015 A 
BRANCH  21  26
ATOM     26  C   UNL     1       5.827  -5.501  22.416  0.00  0.00    +0.337 C 
ATOM     27  O   UNL     1       4.644  -5.227  22.289  0.00  0.00    -0.245 OA
BRANCH  26  28
ATOM     28  O   UNL     1       6.340  -6.725  22.174  0.00  0.00    -0.477 OA
ATOM     29  H   UNL     1       6.857  -7.099  22.909  0.00  0.00    +0.295 HD
ENDBRANCH  26  28
ENDBRANCH  21  26
ENDBRANCH   1  16
BRANCH   1  30
ATOM     30  O   UNL     1      10.928   0.341  25.629  0.00  0.00    -0.383 OA
ATOM     31  H   UNL     1      10.199  -0.198  25.976  0.00  0.00    +0.211 HD
ENDBRANCH   1  30
TORSDOF 5
ENDMDL
MODEL 6
REMARK VINA RESULT:      -7.9      1.968      3.779
REMARK  Name = 
REMARK  9 active torsions:
REMARK  status: ('A' for Active; 'I' for Inactive)
REMARK    1  A    between atoms: C_1  and  C_2
REMARK    2  A    between atoms: C_2  and  C_3
REMARK    3  A    between atoms: C_6  and  C_7
REMARK    4  A    between atoms: C_6  and  C_8
REMARK    5  A    between atoms: C_13  and  C_15
REMARK    6  A    between atoms: C_15  and  O_17
REMARK    7  A    between atoms: C_15  and  C_18
REMARK    8  A    between atoms: C_25  and  C_28
REMARK    9  A    between atoms: C_28  and  O_29
REMARK                            x       y       z     vdW  Elec       q    Type
REMARK                         _______ _______ _______ _____ _____    ______ ____
ROOT
ATOM      1  C   UNL     1       8.988  -4.283  25.399  0.00  0.00    +0.175 C 
ENDROOT
BRANCH   1   7
ATOM      2  C   UNL     1       2.537  -4.953  24.641  0.00  0.00    +0.016 C 
ATOM      3  C   UNL     1       3.386  -6.150  25.129  0.00  0.00    -0.010 C 
ATOM      4  C   UNL     1       4.854  -5.713  25.239  0.00  0.00    -0.038 A 
ATOM      5  C   UNL     1       5.587  -5.429  24.066  0.00  0.00    +0.005 A 
ATOM      6  C   UNL     1       6.912  -4.982  24.112  0.00  0.00    +0.007 A 
ATOM      7  C   UNL     1       7.566  -4.829  25.335  0.00  0.00    -0.014 A 
ATOM      8  C   UNL     1       6.862  -5.168  26.500  0.00  0.00    +0.011 A 
ATOM      9  C   UNL     1       5.496  -5.534  26.484  0.00  0.00    -0.038 A 
ATOM     10  C   UNL     1       4.762  -5.677  27.824  0.00  0.00    -0.010 C 
ATOM     11  C   UNL     1       5.248  -6.946  28.554  0.00  0.00    +0.016 C 
ATOM     12  C   UNL     1       5.043  -4.449  28.725  0.00  0.00    +0.016 C 
ATOM     13  C   UNL     1       3.231  -5.734  27.630  0.00  0.00    +0.012 C 
ATOM     14  C   UNL     1       2.840  -6.653  26.486  0.00  0.00    +0.012 C 
ATOM     15  C   UNL     1       3.206  -7.312  24.125  0.00  0.00    +0.016 C 
ENDBRANCH   1   7
BRANCH   1  16
ATOM     16  C   UNL     1       9.224  -2.929  24.762  0.00  0.00    -0.014 A 
ATOM     17  C   UNL     1      10.067  -2.833  23.644  0.00  0.00    +0.007 A 
ATOM     18  C   UNL     1      10.381  -1.587  23.087  0.00  0.00    +0.009 A 
ATOM     19  C   UNL     1       9.879  -0.406  23.648  0.00  0.00    -0.017 A 
ATOM     20  C   UNL     1      10.268   0.864  23.183  0.00  0.00    +0.023 A 
ATOM     21  C   UNL     1       9.793   2.025  23.816  0.00  0.00    +0.059 A 
ATOM     22  C   UNL     1       8.908   1.926  24.889  0.00  0.00    +0.015 A 
ATOM     23  C   UNL     1       8.488   0.672  25.331  0.00  0.00    +0.009 A 
ATOM     24  C   UNL     1       8.981  -0.497  24.737  0.00  0.00    -0.017 A 
ATOM     25  C   UNL     1       8.637  -1.755  25.254  0.00  0.00    +0.015 A 
BRANCH  21  26
ATOM     26  C   UNL     1      10.262   3.376  23.424  0.00  0.00    +0.337 C 
ATOM     27  O   UNL     1      11.443   3.679  23.364  0.00  0.00    -0.245 OA
BRANCH  26  28
ATOM     28  O   UNL     1       9.256   4.237  23.171  0.00  0.00    -0.477 OA
ATOM     29  H   UNL     1       8.389   3.817  23.033  0.00  0.00    +0.295 HD
ENDBRANCH  26  28
ENDBRANCH  21  26
ENDBRANCH   1  16
BRANCH   1  30
ATOM     30  O   UNL     1       9.931  -5.207  24.852  0.00  0.00    -0.383 OA
ATOM     31  H   UNL     1      10.408  -5.591  25.605  0.00  0.00    +0.211 HD
ENDBRANCH   1  30
TORSDOF 5
ENDMDL
MODEL 7
REMARK VINA RESULT:      -7.8      1.000      2.450
REMARK  Name = 
REMARK  9 active torsions:
REMARK  status: ('A' for Active; 'I' for Inactive)
REMARK    1  A    between atoms: C_1  and  C_2
REMARK    2  A    between atoms: C_2  and  C_3
REMARK    3  A    between atoms: C_6  and  C_7
REMARK    4  A    between atoms: C_6  and  C_8
REMARK    5  A    between atoms: C_13  and  C_15
REMARK    6  A    between atoms: C_15  and  O_17
REMARK    7  A    between atoms: C_15  and  C_18
REMARK    8  A    between atoms: C_25  and  C_28
REMARK    9  A    between atoms: C_28  and  O_29
REMARK                            x       y       z     vdW  Elec       q    Type
REMARK                         _______ _______ _______ _____ _____    ______ ____
ROOT
ATOM      1  C   UNL     1      10.133  -1.571  23.177  0.00  0.00    +0.175 C 
ENDROOT
BRANCH   1   7
ATOM      2  C   UNL     1       4.147  -4.172  23.360  0.00  0.00    +0.016 C 
ATOM      3  C   UNL     1       5.381  -5.055  23.652  0.00  0.00    -0.010 C 
ATOM      4  C   UNL     1       6.648  -4.192  23.563  0.00  0.00    -0.038 A 
ATOM      5  C   UNL     1       7.066  -3.693  22.311  0.00  0.00    +0.005 A 
ATOM      6  C   UNL     1       8.186  -2.864  22.181  0.00  0.00    +0.007 A 
ATOM      7  C   UNL     1       8.949  -2.524  23.299  0.00  0.00    -0.014 A 
ATOM      8  C   UNL     1       8.573  -3.066  24.536  0.00  0.00    +0.011 A 
ATOM      9  C   UNL     1       7.396  -3.831  24.706  0.00  0.00    -0.038 A 
ATOM     10  C   UNL     1       6.961  -4.196  26.131  0.00  0.00    -0.010 C 
ATOM     11  C   UNL     1       7.915  -5.259  26.714  0.00  0.00    +0.016 C 
ATOM     12  C   UNL     1       6.998  -2.944  27.043  0.00  0.00    +0.016 C 
ATOM     13  C   UNL     1       5.507  -4.716  26.167  0.00  0.00    +0.012 C 
ATOM     14  C   UNL     1       5.234  -5.706  25.047  0.00  0.00    +0.012 C 
ATOM     15  C   UNL     1       5.403  -6.212  22.628  0.00  0.00    +0.016 C 
ENDBRANCH   1   7
BRANCH   1  16
ATOM     16  C   UNL     1       9.810  -0.091  23.124  0.00  0.00    -0.014 A 
ATOM     17  C   UNL     1      10.561   0.804  23.901  0.00  0.00    +0.007 A 
ATOM     18  C   UNL     1      10.232   2.164  23.948  0.00  0.00    +0.009 A 
ATOM     19  C   UNL     1       9.130   2.658  23.239  0.00  0.00    -0.017 A 
ATOM     20  C   UNL     1       8.705   3.995  23.357  0.00  0.00    +0.023 A 
ATOM     21  C   UNL     1       7.556   4.434  22.679  0.00  0.00    +0.059 A 
ATOM     22  C   UNL     1       6.846   3.557  21.860  0.00  0.00    +0.015 A 
ATOM     23  C   UNL     1       7.283   2.242  21.708  0.00  0.00    +0.009 A 
ATOM     24  C   UNL     1       8.404   1.774  22.405  0.00  0.00    -0.017 A 
ATOM     25  C   UNL     1       8.776   0.424  22.330  0.00  0.00    +0.015 A 
BRANCH  21  26
ATOM     26  C   UNL     1       7.017   5.804  22.862  0.00  0.00    +0.337 C 
ATOM     27  O   UNL     1       6.186   6.084  23.711  0.00  0.00    -0.245 OA
BRANCH  26  28
ATOM     28  O   UNL     1       7.515   6.695  21.980  0.00  0.00    -0.477 OA
ATOM     29  H   UNL     1       7.703   6.329  21.099  0.00  0.00    +0.295 HD
ENDBRANCH  26  28
ENDBRANCH  21  26
ENDBRANCH   1  16
BRANCH   1  30
ATOM     30  O   UNL     1      10.953  -1.892  22.053  0.00  0.00    -0.383 OA
ATOM     31  H   UNL     1      10.415  -1.721  21.262  0.00  0.00    +0.211 HD
ENDBRANCH   1  30
TORSDOF 5
ENDMDL
MODEL 8
REMARK VINA RESULT:      -7.7      1.894      2.937
REMARK  Name = 
REMARK  9 active torsions:
REMARK  status: ('A' for Active; 'I' for Inactive)
REMARK    1  A    between atoms: C_1  and  C_2
REMARK    2  A    between atoms: C_2  and  C_3
REMARK    3  A    between atoms: C_6  and  C_7
REMARK    4  A    between atoms: C_6  and  C_8
REMARK    5  A    between atoms: C_13  and  C_15
REMARK    6  A    between atoms: C_15  and  O_17
REMARK    7  A    between atoms: C_15  and  C_18
REMARK    8  A    between atoms: C_25  and  C_28
REMARK    9  A    between atoms: C_28  and  O_29
REMARK                            x       y       z     vdW  Elec       q    Type
REMARK                         _______ _______ _______ _____ _____    ______ ____
ROOT
ATOM      1  C   UNL     1       9.719  -1.183  22.542  0.00  0.00    +0.175 C 
ENDROOT
BRANCH   1   7
ATOM      2  C   UNL     1       4.175  -3.971  24.571  0.00  0.00    +0.016 C 
ATOM      3  C   UNL     1       5.315  -4.845  24.001  0.00  0.00    -0.010 C 
ATOM      4  C   UNL     1       6.499  -3.943  23.624  0.00  0.00    -0.038 A 
ATOM      5  C   UNL     1       6.380  -3.056  22.533  0.00  0.00    +0.005 A 
ATOM      6  C   UNL     1       7.411  -2.179  22.176  0.00  0.00    +0.007 A 
ATOM      7  C   UNL     1       8.615  -2.177  22.882  0.00  0.00    -0.014 A 
ATOM      8  C   UNL     1       8.760  -3.099  23.929  0.00  0.00    +0.011 A 
ATOM      9  C   UNL     1       7.702  -3.930  24.364  0.00  0.00    -0.038 A 
ATOM     10  C   UNL     1       7.894  -4.746  25.649  0.00  0.00    -0.010 C 
ATOM     11  C   UNL     1       8.891  -5.895  25.394  0.00  0.00    +0.016 C 
ATOM     12  C   UNL     1       8.454  -3.847  26.779  0.00  0.00    +0.016 C 
ATOM     13  C   UNL     1       6.555  -5.314  26.168  0.00  0.00    +0.012 C 
ATOM     14  C   UNL     1       5.722  -5.911  25.046  0.00  0.00    +0.012 C 
ATOM     15  C   UNL     1       4.769  -5.617  22.778  0.00  0.00    +0.016 C 
ENDBRANCH   1   7
BRANCH   1  16
ATOM     16  C   UNL     1       9.471   0.263  22.920  0.00  0.00    -0.014 A 
ATOM     17  C   UNL     1      10.131   1.281  22.213  0.00  0.00    +0.007 A 
ATOM     18  C   UNL     1       9.997   2.621  22.595  0.00  0.00    +0.009 A 
ATOM     19  C   UNL     1       9.220   2.975  23.705  0.00  0.00    -0.017 A 
ATOM     20  C   UNL     1       9.159   4.298  24.181  0.00  0.00    +0.023 A 
ATOM     21  C   UNL     1       8.420   4.600  25.337  0.00  0.00    +0.059 A 
ATOM     22  C   UNL     1       7.717   3.596  26.002  0.00  0.00    +0.015 A 
ATOM     23  C   UNL     1       7.741   2.291  25.514  0.00  0.00    +0.009 A 
ATOM     24  C   UNL     1       8.503   1.962  24.385  0.00  0.00    -0.017 A 
ATOM     25  C   UNL     1       8.608   0.630  23.962  0.00  0.00    +0.015 A 
BRANCH  21  26
ATOM     26  C   UNL     1       8.418   5.959  25.930  0.00  0.00    +0.337 C 
ATOM     27  O   UNL     1       9.142   6.282  26.858  0.00  0.00    -0.245 OA
BRANCH  26  28
ATOM     28  O   UNL     1       7.519   6.788  25.361  0.00  0.00    -0.477 OA
ATOM     29  H   UNL     1       6.657   6.818  25.809  0.00  0.00    +0.295 HD
ENDBRANCH  26  28
ENDBRANCH  21  26
ENDBRANCH   1  16
BRANCH   1  30
ATOM     30  O   UNL     1      10.061  -1.232  21.156  0.00  0.00    -0.383 OA
ATOM     31  H   UNL     1      11.021  -1.091  21.104  0.00  0.00    +0.211 HD
ENDBRANCH   1  30
TORSDOF 5
ENDMDL
MODEL 9
REMARK VINA RESULT:      -7.5      1.589      1.784
REMARK  Name = 
REMARK  9 active torsions:
REMARK  status: ('A' for Active; 'I' for Inactive)
REMARK    1  A    between atoms: C_1  and  C_2
REMARK    2  A    between atoms: C_2  and  C_3
REMARK    3  A    between atoms: C_6  and  C_7
REMARK    4  A    between atoms: C_6  and  C_8
REMARK    5  A    between atoms: C_13  and  C_15
REMARK    6  A    between atoms: C_15  and  O_17
REMARK    7  A    between atoms: C_15  and  C_18
REMARK    8  A    between atoms: C_25  and  C_28
REMARK    9  A    between atoms: C_28  and  O_29
REMARK                            x       y       z     vdW  Elec       q    Type
REMARK                         _______ _______ _______ _____ _____    ______ ____
ROOT
ATOM      1  C   UNL     1       9.279  -2.143  24.736  0.00  0.00    +0.175 C 
ENDROOT
BRANCH   1   7
ATOM      2  C   UNL     1       4.059  -5.945  25.697  0.00  0.00    +0.016 C 
ATOM      3  C   UNL     1       4.005  -4.812  24.648  0.00  0.00    -0.010 C 
ATOM      4  C   UNL     1       5.363  -4.095  24.613  0.00  0.00    -0.038 A 
ATOM      5  C   UNL     1       5.767  -3.312  25.715  0.00  0.00    +0.005 A 
ATOM      6  C   UNL     1       7.014  -2.677  25.754  0.00  0.00    +0.007 A 
ATOM      7  C   UNL     1       7.894  -2.778  24.676  0.00  0.00    -0.014 A 
ATOM      8  C   UNL     1       7.472  -3.505  23.554  0.00  0.00    +0.011 A 
ATOM      9  C   UNL     1       6.257  -4.229  23.528  0.00  0.00    -0.038 A 
ATOM     10  C   UNL     1       5.988  -5.162  22.341  0.00  0.00    -0.010 C 
ATOM     11  C   UNL     1       5.692  -4.328  21.077  0.00  0.00    +0.016 C 
ATOM     12  C   UNL     1       7.223  -6.055  22.067  0.00  0.00    +0.016 C 
ATOM     13  C   UNL     1       4.812  -6.122  22.627  0.00  0.00    +0.012 C 
ATOM     14  C   UNL     1       3.637  -5.401  23.266  0.00  0.00    +0.012 C 
ATOM     15  C   UNL     1       2.858  -3.849  25.034  0.00  0.00    +0.016 C 
ENDBRANCH   1   7
BRANCH   1  16
ATOM     16  C   UNL     1       9.387  -0.708  24.262  0.00  0.00    -0.014 A 
ATOM     17  C   UNL     1      10.206  -0.408  23.161  0.00  0.00    +0.007 A 
ATOM     18  C   UNL     1      10.403   0.917  22.754  0.00  0.00    +0.009 A 
ATOM     19  C   UNL     1       9.806   1.976  23.451  0.00  0.00    -0.017 A 
ATOM     20  C   UNL     1      10.077   3.321  23.137  0.00  0.00    +0.023 A 
ATOM     21  C   UNL     1       9.509   4.353  23.902  0.00  0.00    +0.059 A 
ATOM     22  C   UNL     1       8.649   4.052  24.958  0.00  0.00    +0.015 A 
ATOM     23  C   UNL     1       8.346   2.723  25.250  0.00  0.00    +0.009 A 
ATOM     24  C   UNL     1       8.932   1.679  24.523  0.00  0.00    -0.017 A 
ATOM     25  C   UNL     1       8.706   0.344  24.889  0.00  0.00    +0.015 A 
BRANCH  21  26
ATOM     26  C   UNL     1       9.854   5.777  23.671  0.00  0.00    +0.337 C 
ATOM     27  O   UNL     1       9.095   6.697  23.931  0.00  0.00    -0.245 OA
BRANCH  26  28
ATOM     28  O   UNL     1      11.074   5.947  23.121  0.00  0.00    -0.477 OA
ATOM     29  H   UNL     1      11.777   6.164  23.757  0.00  0.00    +0.295 HD
ENDBRANCH  26  28
ENDBRANCH  21  26
ENDBRANCH   1  16
BRANCH   1  30
ATOM     30  O   UNL     1      10.246  -2.923  24.031  0.00  0.00    -0.383 OA
ATOM     31  H   UNL     1       9.875  -3.817  23.953  0.00  0.00    +0.211 HD
ENDBRANCH   1  30
TORSDOF 5
ENDMDL
