MODEL 1
REMARK VINA RESULT:      -7.8      0.000      0.000
REMARK  Name = 
REMARK  6 active torsions:
REMARK  status: ('A' for Active; 'I' for Inactive)
REMARK    1  A    between atoms: N_1  and  C_2
REMARK    2  A    between atoms: C_2  and  C_3
REMARK    3  A    between atoms: N_6  and  C_7
REMARK    4  A    between atoms: C_7  and  C_8
REMARK    5  A    between atoms: C_13  and  C_15
REMARK    6  A    between atoms: C_22  and  C_24
REMARK                            x       y       z     vdW  Elec       q    Type
REMARK                         _______ _______ _______ _____ _____    ______ ____
ROOT
ATOM      1  C   UNL     1       9.618  -0.852  24.694  0.00  0.00    -0.033 A 
ATOM      2  C   UNL     1       9.272  -0.541  26.018  0.00  0.00    +0.007 A 
ATOM      3  C   UNL     1       8.565  -1.439  26.822  0.00  0.00    +0.026 A 
ATOM      4  C   UNL     1       8.183  -2.651  26.243  0.00  0.00    +0.047 A 
ATOM      5  N   UNL     1       7.409  -3.669  26.743  0.00  0.00    -0.353 N 
ATOM      6  H   UNL     1       6.966  -3.687  27.651  0.00  0.00    +0.166 HD
ATOM      7  C   UNL     1       7.158  -4.597  25.765  0.00  0.00    +0.068 A 
ATOM      8  C   UNL     1       7.931  -4.272  24.674  0.00  0.00    +0.037 A 
ATOM      9  C   UNL     1       8.528  -3.008  24.939  0.00  0.00    +0.001 A 
ATOM     10  C   UNL     1       9.278  -2.108  24.161  0.00  0.00    +0.015 A 
ENDROOT
BRANCH   7  11
ATOM     11  C   UNL     1       6.141  -5.667  25.916  0.00  0.00    +0.116 A 
ATOM     12  C   UNL     1       5.088  -6.023  25.031  0.00  0.00    +0.029 A 
ATOM     13  C   UNL     1       4.652  -5.655  23.741  0.00  0.00    +0.013 A 
ATOM     14  C   UNL     1       3.501  -6.249  23.209  0.00  0.00    +0.019 A 
ATOM     15  C   UNL     1       2.778  -7.192  23.944  0.00  0.00    +0.054 A 
ATOM     16  C   UNL     1       3.191  -7.572  25.229  0.00  0.00    +0.046 A 
ATOM     17  C   UNL     1       4.353  -6.974  25.732  0.00  0.00    +0.068 A 
ATOM     18  N   UNL     1       5.007  -7.133  26.924  0.00  0.00    -0.276 N 
ATOM     19  H   UNL     1       4.746  -7.734  27.698  0.00  0.00    +0.189 HD
ATOM     20  N   UNL     1       6.115  -6.385  27.048  0.00  0.00    -0.171 NA
BRANCH  15  21
ATOM     21  C   UNL     1       1.603  -7.782  23.378  0.00  0.00    +0.099 C 
ATOM     22  N   UNL     1       0.651  -8.267  22.918  0.00  0.00    -0.191 NA
ENDBRANCH  15  21
ENDBRANCH   7  11
BRANCH   1  23
ATOM     23  C   UNL     1      10.315   0.174  23.827  0.00  0.00    +0.119 C 
BRANCH  23  27
ATOM     24  C   UNL     1       9.457   3.779  24.118  0.00  0.00    +0.005 C 
ATOM     25  C   UNL     1      10.603   3.183  23.283  0.00  0.00    +0.020 C 
ATOM     26  C   UNL     1      10.117   2.082  22.334  0.00  0.00    +0.085 C 
ATOM     27  N   UNL     1       9.395   0.998  23.018  0.00  0.00    -0.298 NA
ATOM     28  C   UNL     1       8.264   1.546  23.782  0.00  0.00    +0.085 C 
ATOM     29  C   UNL     1       8.659   2.641  24.780  0.00  0.00    +0.020 C 
BRANCH  24  30
ATOM     30  C   UNL     1       8.512   4.695  23.310  0.00  0.00    +0.081 C 
BRANCH  30  31
ATOM     31  N   UNL     1       9.155   5.932  22.881  0.00  0.00    -0.330 NA
ATOM     32  H   UNL     1      10.167   5.841  22.947  0.00  0.00    +0.118 HD
ATOM     33  H   UNL     1       8.961   6.080  21.889  0.00  0.00    +0.118 HD
ENDBRANCH  30  31
ENDBRANCH  24  30
ENDBRANCH  23  27
ENDBRANCH   1  23
TORSDOF 6
ENDMDL
MODEL 2
REMARK VINA RESULT:      -7.7      1.930      2.904
REMARK  Name = 
REMARK  6 active torsions:
REMARK  status: ('A' for Active; 'I' for Inactive)
REMARK    1  A    between atoms: N_1  and  C_2
REMARK    2  A    between atoms: C_2  and  C_3
REMARK    3  A    between atoms: N_6  and  C_7
REMARK    4  A    between atoms: C_7  and  C_8
REMARK    5  A    between atoms: C_13  and  C_15
REMARK    6  A    between atoms: C_22  and  C_24
REMARK                            x       y       z     vdW  Elec       q    Type
REMARK                         _______ _______ _______ _____ _____    ______ ____
ROOT
ATOM      1  C   UNL     1       8.883   1.115  22.526  0.00  0.00    -0.033 A 
ATOM      2  C   UNL     1       9.779   0.260  21.867  0.00  0.00    +0.007 A 
ATOM      3  C   UNL     1       9.592  -1.126  21.847  0.00  0.00    +0.026 A 
ATOM      4  C   UNL     1       8.491  -1.631  22.542  0.00  0.00    +0.047 A 
ATOM      5  N   UNL     1       8.112  -2.929  22.781  0.00  0.00    -0.353 N 
ATOM      6  H   UNL     1       8.608  -3.757  22.482  0.00  0.00    +0.166 HD
ATOM      7  C   UNL     1       7.050  -2.960  23.649  0.00  0.00    +0.068 A 
ATOM      8  C   UNL     1       6.620  -1.665  23.826  0.00  0.00    +0.037 A 
ATOM      9  C   UNL     1       7.565  -0.813  23.189  0.00  0.00    +0.001 A 
ATOM     10  C   UNL     1       7.747   0.580  23.160  0.00  0.00    +0.015 A 
ENDROOT
BRANCH   7  11
ATOM     11  C   UNL     1       6.586  -4.207  24.305  0.00  0.00    +0.116 A 
ATOM     12  C   UNL     1       5.442  -4.995  24.007  0.00  0.00    +0.029 A 
ATOM     13  C   UNL     1       4.428  -5.017  23.028  0.00  0.00    +0.013 A 
ATOM     14  C   UNL     1       3.420  -5.986  23.103  0.00  0.00    +0.019 A 
ATOM     15  C   UNL     1       3.403  -6.921  24.142  0.00  0.00    +0.054 A 
ATOM     16  C   UNL     1       4.399  -6.917  25.128  0.00  0.00    +0.046 A 
ATOM     17  C   UNL     1       5.404  -5.947  25.022  0.00  0.00    +0.068 A 
ATOM     18  N   UNL     1       6.497  -5.690  25.803  0.00  0.00    -0.276 N 
ATOM     19  H   UNL     1       6.781  -6.172  26.649  0.00  0.00    +0.189 HD
ATOM     20  N   UNL     1       7.254  -4.668  25.372  0.00  0.00    -0.171 NA
BRANCH  15  21
ATOM     21  C   UNL     1       2.359  -7.899  24.197  0.00  0.00    +0.099 C 
ATOM     22  N   UNL     1       1.515  -8.698  24.242  0.00  0.00    -0.191 NA
ENDBRANCH  15  21
ENDBRANCH   7  11
BRANCH   1  23
ATOM     23  C   UNL     1       9.158   2.602  22.594  0.00  0.00    +0.119 C 
BRANCH  23  27
ATOM     24  C   UNL     1      10.643   5.879  23.530  0.00  0.00    +0.005 C 
ATOM     25  C   UNL     1       9.168   5.472  23.686  0.00  0.00    +0.020 C 
ATOM     26  C   UNL     1       9.008   4.157  24.456  0.00  0.00    +0.085 C 
ATOM     27  N   UNL     1       9.763   3.040  23.868  0.00  0.00    -0.298 NA
ATOM     28  C   UNL     1      11.187   3.394  23.757  0.00  0.00    +0.085 C 
ATOM     29  C   UNL     1      11.448   4.688  22.977  0.00  0.00    +0.020 C 
BRANCH  24  30
ATOM     30  C   UNL     1      11.285   6.399  24.834  0.00  0.00    +0.081 C 
BRANCH  30  31
ATOM     31  N   UNL     1      12.738   6.509  24.743  0.00  0.00    -0.330 NA
ATOM     32  H   UNL     1      13.138   5.619  24.455  0.00  0.00    +0.118 HD
ATOM     33  H   UNL     1      12.974   7.166  23.997  0.00  0.00    +0.118 HD
ENDBRANCH  30  31
ENDBRANCH  24  30
ENDBRANCH  23  27
ENDBRANCH   1  23
TORSDOF 6
ENDMDL
MODEL 3
REMARK VINA RESULT:      -7.6      2.613      3.944
REMARK  Name = 
REMARK  6 active torsions:
REMARK  status: ('A' for Active; 'I' for Inactive)
REMARK    1  A    between atoms: N_1  and  C_2
REMARK    2  A    between atoms: C_2  and  C_3
REMARK    3  A    between atoms: N_6  and  C_7
REMARK    4  A    between atoms: C_7  and  C_8
REMARK    5  A    between atoms: C_13  and  C_15
REMARK    6  A    between atoms: C_22  and  C_24
REMARK                            x       y       z     vdW  Elec       q    Type
REMARK                         _______ _______ _______ _____ _____    ______ ____
ROOT
ATOM      1  C   UNL     1       8.867   1.206  22.361  0.00  0.00    -0.033 A 
ATOM      2  C   UNL     1       9.831   0.329  21.843  0.00  0.00    +0.007 A 
ATOM      3  C   UNL     1       9.610  -1.050  21.781  0.00  0.00    +0.026 A 
ATOM      4  C   UNL     1       8.400  -1.527  22.289  0.00  0.00    +0.047 A 
ATOM      5  N   UNL     1       7.951  -2.814  22.453  0.00  0.00    -0.353 N 
ATOM      6  H   UNL     1       8.465  -3.655  22.228  0.00  0.00    +0.166 HD
ATOM      7  C   UNL     1       6.766  -2.818  23.143  0.00  0.00    +0.068 A 
ATOM      8  C   UNL     1       6.350  -1.512  23.263  0.00  0.00    +0.037 A 
ATOM      9  C   UNL     1       7.407  -0.685  22.791  0.00  0.00    +0.001 A 
ATOM     10  C   UNL     1       7.632   0.702  22.804  0.00  0.00    +0.015 A 
ENDROOT
BRANCH   7  11
ATOM     11  C   UNL     1       6.169  -4.054  23.706  0.00  0.00    +0.116 A 
ATOM     12  C   UNL     1       5.984  -4.411  25.069  0.00  0.00    +0.029 A 
ATOM     13  C   UNL     1       6.153  -3.802  26.329  0.00  0.00    +0.013 A 
ATOM     14  C   UNL     1       5.869  -4.532  27.490  0.00  0.00    +0.019 A 
ATOM     15  C   UNL     1       5.430  -5.856  27.412  0.00  0.00    +0.054 A 
ATOM     16  C   UNL     1       5.257  -6.484  26.170  0.00  0.00    +0.046 A 
ATOM     17  C   UNL     1       5.534  -5.727  25.025  0.00  0.00    +0.068 A 
ATOM     18  N   UNL     1       5.459  -6.040  23.694  0.00  0.00    -0.276 N 
ATOM     19  H   UNL     1       5.186  -6.926  23.282  0.00  0.00    +0.189 HD
ATOM     20  N   UNL     1       5.798  -5.036  22.872  0.00  0.00    -0.171 NA
BRANCH  15  21
ATOM     21  C   UNL     1       5.150  -6.582  28.613  0.00  0.00    +0.099 C 
ATOM     22  N   UNL     1       4.928  -7.171  29.591  0.00  0.00    -0.191 NA
ENDBRANCH  15  21
ENDBRANCH   7  11
BRANCH   1  23
ATOM     23  C   UNL     1       9.170   2.684  22.486  0.00  0.00    +0.119 C 
BRANCH  23  27
ATOM     24  C   UNL     1      10.703   5.893  23.571  0.00  0.00    +0.005 C 
ATOM     25  C   UNL     1       9.214   5.520  23.664  0.00  0.00    +0.020 C 
ATOM     26  C   UNL     1       8.995   4.188  24.388  0.00  0.00    +0.085 C 
ATOM     27  N   UNL     1       9.741   3.069  23.793  0.00  0.00    -0.298 NA
ATOM     28  C   UNL     1      11.176   3.389  23.741  0.00  0.00    +0.085 C 
ATOM     29  C   UNL     1      11.497   4.698  23.010  0.00  0.00    +0.020 C 
BRANCH  24  30
ATOM     30  C   UNL     1      11.313   6.357  24.911  0.00  0.00    +0.081 C 
BRANCH  30  31
ATOM     31  N   UNL     1      12.754   6.571  24.832  0.00  0.00    -0.330 NA
ATOM     32  H   UNL     1      13.084   6.376  23.889  0.00  0.00    +0.118 HD
ATOM     33  H   UNL     1      12.951   7.560  24.989  0.00  0.00    +0.118 HD
ENDBRANCH  30  31
ENDBRANCH  24  30
ENDBRANCH  23  27
ENDBRANCH   1  23
TORSDOF 6
ENDMDL
MODEL 4
REMARK VINA RESULT:      -7.4      1.356      1.974
REMARK  Name = 
REMARK  6 active torsions:
REMARK  status: ('A' for Active; 'I' for Inactive)
REMARK    1  A    between atoms: N_1  and  C_2
REMARK    2  A    between atoms: C_2  and  C_3
REMARK    3  A    between atoms: N_6  and  C_7
REMARK    4  A    between atoms: C_7  and  C_8
REMARK    5  A    between atoms: C_13  and  C_15
REMARK    6  A    between atoms: C_22  and  C_24
REMARK                            x       y       z     vdW  Elec       q    Type
REMARK                         _______ _______ _______ _____ _____    ______ ____
ROOT
ATOM      1  C   UNL     1       9.726   0.411  23.993  0.00  0.00    -0.033 A 
ATOM      2  C   UNL     1      10.430  -0.461  23.149  0.00  0.00    +0.007 A 
ATOM      3  C   UNL     1       9.996  -1.770  22.920  0.00  0.00    +0.026 A 
ATOM      4  C   UNL     1       8.847  -2.189  23.594  0.00  0.00    +0.047 A 
ATOM      5  N   UNL     1       8.249  -3.424  23.645  0.00  0.00    -0.353 N 
ATOM      6  H   UNL     1       8.577  -4.263  23.186  0.00  0.00    +0.166 HD
ATOM      7  C   UNL     1       7.230  -3.419  24.563  0.00  0.00    +0.068 A 
ATOM      8  C   UNL     1       7.046  -2.118  24.973  0.00  0.00    +0.037 A 
ATOM      9  C   UNL     1       8.106  -1.346  24.422  0.00  0.00    +0.001 A 
ATOM     10  C   UNL     1       8.535  -0.020  24.604  0.00  0.00    +0.015 A 
ENDROOT
BRANCH   7  11
ATOM     11  C   UNL     1       6.572  -4.661  25.039  0.00  0.00    +0.116 A 
ATOM     12  C   UNL     1       5.437  -5.327  24.503  0.00  0.00    +0.029 A 
ATOM     13  C   UNL     1       4.600  -5.198  23.376  0.00  0.00    +0.013 A 
ATOM     14  C   UNL     1       3.523  -6.079  23.215  0.00  0.00    +0.019 A 
ATOM     15  C   UNL     1       3.265  -7.074  24.162  0.00  0.00    +0.054 A 
ATOM     16  C   UNL     1       4.083  -7.219  25.292  0.00  0.00    +0.046 A 
ATOM     17  C   UNL     1       5.161  -6.334  25.422  0.00  0.00    +0.068 A 
ATOM     18  N   UNL     1       6.127  -6.222  26.385  0.00  0.00    -0.276 N 
ATOM     19  H   UNL     1       6.230  -6.781  27.225  0.00  0.00    +0.189 HD
ATOM     20  N   UNL     1       7.018  -5.244  26.160  0.00  0.00    -0.171 NA
BRANCH  15  21
ATOM     21  C   UNL     1       2.157  -7.959  23.976  0.00  0.00    +0.099 C 
ATOM     22  N   UNL     1       1.259  -8.683  23.826  0.00  0.00    -0.191 NA
ENDBRANCH  15  21
ENDBRANCH   7  11
BRANCH   1  23
ATOM     23  C   UNL     1      10.266   1.795  24.281  0.00  0.00    +0.119 C 
BRANCH  23  27
ATOM     24  C   UNL     1       8.055   4.745  23.793  0.00  0.00    +0.005 C 
ATOM     25  C   UNL     1       9.451   4.752  24.439  0.00  0.00    +0.020 C 
ATOM     26  C   UNL     1      10.508   4.099  23.544  0.00  0.00    +0.085 C 
ATOM     27  N   UNL     1      10.165   2.727  23.140  0.00  0.00    -0.298 NA
ATOM     28  C   UNL     1       8.854   2.708  22.474  0.00  0.00    +0.085 C 
ATOM     29  C   UNL     1       7.723   3.321  23.308  0.00  0.00    +0.020 C 
BRANCH  24  30
ATOM     30  C   UNL     1       7.903   5.752  22.633  0.00  0.00    +0.081 C 
BRANCH  30  31
ATOM     31  N   UNL     1       6.787   5.430  21.749  0.00  0.00    -0.330 NA
ATOM     32  H   UNL     1       6.911   5.890  20.849  0.00  0.00    +0.118 HD
ATOM     33  H   UNL     1       6.802   4.430  21.547  0.00  0.00    +0.118 HD
ENDBRANCH  30  31
ENDBRANCH  24  30
ENDBRANCH  23  27
ENDBRANCH   1  23
TORSDOF 6
ENDMDL
MODEL 5
REMARK VINA RESULT:      -7.1      3.119      4.231
REMARK  Name = 
REMARK  6 active torsions:
REMARK  status: ('A' for Active; 'I' for Inactive)
REMARK    1  A    between atoms: N_1  and  C_2
REMARK    2  A    between atoms: C_2  and  C_3
REMARK    3  A    between atoms: N_6  and  C_7
REMARK    4  A    between atoms: C_7  and  C_8
REMARK    5  A    between atoms: C_13  and  C_15
REMARK    6  A    between atoms: C_22  and  C_24
REMARK                            x       y       z     vdW  Elec       q    Type
REMARK                         _______ _______ _______ _____ _____    ______ ____
ROOT
ATOM      1  C   UNL     1       9.465   2.069  23.735  0.00  0.00    -0.033 A 
ATOM      2  C   UNL     1      10.039   1.334  22.686  0.00  0.00    +0.007 A 
ATOM      3  C   UNL     1       9.905  -0.055  22.604  0.00  0.00    +0.026 A 
ATOM      4  C   UNL     1       9.204  -0.691  23.631  0.00  0.00    +0.047 A 
ATOM      5  N   UNL     1       8.999  -2.027  23.871  0.00  0.00    -0.353 N 
ATOM      6  H   UNL     1       9.355  -2.792  23.314  0.00  0.00    +0.166 HD
ATOM      7  C   UNL     1       8.389  -2.201  25.087  0.00  0.00    +0.068 A 
ATOM      8  C   UNL     1       8.028  -0.959  25.553  0.00  0.00    +0.037 A 
ATOM      9  C   UNL     1       8.599   0.006  24.677  0.00  0.00    +0.001 A 
ATOM     10  C   UNL     1       8.708   1.407  24.717  0.00  0.00    +0.015 A 
ENDROOT
BRANCH   7  11
ATOM     11  C   UNL     1       8.276  -3.526  25.745  0.00  0.00    +0.116 A 
ATOM     12  C   UNL     1       7.223  -4.030  26.556  0.00  0.00    +0.029 A 
ATOM     13  C   UNL     1       5.940  -3.610  26.961  0.00  0.00    +0.013 A 
ATOM     14  C   UNL     1       5.192  -4.419  27.825  0.00  0.00    +0.019 A 
ATOM     15  C   UNL     1       5.708  -5.629  28.296  0.00  0.00    +0.054 A 
ATOM     16  C   UNL     1       6.983  -6.066  27.909  0.00  0.00    +0.046 A 
ATOM     17  C   UNL     1       7.704  -5.245  27.033  0.00  0.00    +0.068 A 
ATOM     18  N   UNL     1       8.945  -5.390  26.474  0.00  0.00    -0.276 N 
ATOM     19  H   UNL     1       9.601  -6.150  26.613  0.00  0.00    +0.189 HD
ATOM     20  N   UNL     1       9.302  -4.385  25.659  0.00  0.00    -0.171 NA
BRANCH  15  21
ATOM     21  C   UNL     1       4.925  -6.436  29.182  0.00  0.00    +0.099 C 
ATOM     22  N   UNL     1       4.294  -7.096  29.902  0.00  0.00    -0.191 NA
ENDBRANCH  15  21
ENDBRANCH   7  11
BRANCH   1  23
ATOM     23  C   UNL     1       9.696   3.562  23.835  0.00  0.00    +0.119 C 
BRANCH  23  27
ATOM     24  C   UNL     1       7.711   6.290  22.272  0.00  0.00    +0.005 C 
ATOM     25  C   UNL     1       7.433   4.781  22.155  0.00  0.00    +0.020 C 
ATOM     26  C   UNL     1       7.346   4.099  23.524  0.00  0.00    +0.085 C 
ATOM     27  N   UNL     1       8.537   4.312  24.360  0.00  0.00    -0.298 NA
ATOM     28  C   UNL     1       8.789   5.752  24.525  0.00  0.00    +0.085 C 
ATOM     29  C   UNL     1       8.918   6.517  23.202  0.00  0.00    +0.020 C 
BRANCH  24  30
ATOM     30  C   UNL     1       6.497   7.108  22.762  0.00  0.00    +0.081 C 
BRANCH  30  31
ATOM     31  N   UNL     1       5.264   6.761  22.063  0.00  0.00    -0.330 NA
ATOM     32  H   UNL     1       5.477   6.413  21.131  0.00  0.00    +0.118 HD
ATOM     33  H   UNL     1       4.816   5.983  22.548  0.00  0.00    +0.118 HD
ENDBRANCH  30  31
ENDBRANCH  24  30
ENDBRANCH  23  27
ENDBRANCH   1  23
TORSDOF 6
ENDMDL
MODEL 6
REMARK VINA RESULT:      -7.1      2.233     10.164
REMARK  Name = 
REMARK  6 active torsions:
REMARK  status: ('A' for Active; 'I' for Inactive)
REMARK    1  A    between atoms: N_1  and  C_2
REMARK    2  A    between atoms: C_2  and  C_3
REMARK    3  A    between atoms: N_6  and  C_7
REMARK    4  A    between atoms: C_7  and  C_8
REMARK    5  A    between atoms: C_13  and  C_15
REMARK    6  A    between atoms: C_22  and  C_24
REMARK                            x       y       z     vdW  Elec       q    Type
REMARK                         _______ _______ _______ _____ _____    ______ ____
ROOT
ATOM      1  C   UNL     1       4.872  -5.288  23.013  0.00  0.00    -0.033 A 
ATOM      2  C   UNL     1       5.993  -5.892  22.423  0.00  0.00    +0.007 A 
ATOM      3  C   UNL     1       7.193  -5.196  22.247  0.00  0.00    +0.026 A 
ATOM      4  C   UNL     1       7.222  -3.860  22.649  0.00  0.00    +0.047 A 
ATOM      5  N   UNL     1       8.207  -2.912  22.513  0.00  0.00    -0.353 N 
ATOM      6  H   UNL     1       9.102  -3.047  22.065  0.00  0.00    +0.166 HD
ATOM      7  C   UNL     1       7.740  -1.685  22.910  0.00  0.00    +0.068 A 
ATOM      8  C   UNL     1       6.504  -1.874  23.483  0.00  0.00    +0.037 A 
ATOM      9  C   UNL     1       6.137  -3.231  23.261  0.00  0.00    +0.001 A 
ATOM     10  C   UNL     1       4.954  -3.961  23.469  0.00  0.00    +0.015 A 
ENDROOT
BRANCH   7  11
ATOM     11  C   UNL     1       8.470  -0.423  22.634  0.00  0.00    +0.116 A 
ATOM     12  C   UNL     1       8.502   0.772  23.404  0.00  0.00    +0.029 A 
ATOM     13  C   UNL     1       8.018   1.209  24.654  0.00  0.00    +0.013 A 
ATOM     14  C   UNL     1       8.251   2.530  25.058  0.00  0.00    +0.019 A 
ATOM     15  C   UNL     1       8.947   3.417  24.232  0.00  0.00    +0.054 A 
ATOM     16  C   UNL     1       9.436   3.005  22.985  0.00  0.00    +0.046 A 
ATOM     17  C   UNL     1       9.202   1.676  22.611  0.00  0.00    +0.068 A 
ATOM     18  N   UNL     1       9.549   0.979  21.485  0.00  0.00    -0.276 N 
ATOM     19  H   UNL     1      10.051   1.324  20.675  0.00  0.00    +0.189 HD
ATOM     20  N   UNL     1       9.154  -0.304  21.488  0.00  0.00    -0.171 NA
BRANCH  15  21
ATOM     21  C   UNL     1       9.169   4.763  24.667  0.00  0.00    +0.099 C 
ATOM     22  N   UNL     1       9.346   5.858  25.016  0.00  0.00    -0.191 NA
ENDBRANCH  15  21
ENDBRANCH   7  11
BRANCH   1  23
ATOM     23  C   UNL     1       3.565  -6.045  23.117  0.00  0.00    +0.119 C 
BRANCH  23  27
ATOM     24  C   UNL     1       1.582  -6.669  26.200  0.00  0.00    +0.005 C 
ATOM     25  C   UNL     1       1.202  -7.097  24.772  0.00  0.00    +0.020 C 
ATOM     26  C   UNL     1       2.318  -7.892  24.088  0.00  0.00    +0.085 C 
ATOM     27  N   UNL     1       3.606  -7.183  24.058  0.00  0.00    -0.298 NA
ATOM     28  C   UNL     1       4.011  -6.810  25.422  0.00  0.00    +0.085 C 
ATOM     29  C   UNL     1       2.963  -5.987  26.179  0.00  0.00    +0.020 C 
BRANCH  24  30
ATOM     30  C   UNL     1       1.576  -7.830  27.218  0.00  0.00    +0.081 C 
BRANCH  30  31
ATOM     31  N   UNL     1       2.318  -7.517  28.435  0.00  0.00    -0.330 NA
ATOM     32  H   UNL     1       3.285  -7.294  28.206  0.00  0.00    +0.118 HD
ATOM     33  H   UNL     1       1.934  -6.666  28.848  0.00  0.00    +0.118 HD
ENDBRANCH  30  31
ENDBRANCH  24  30
ENDBRANCH  23  27
ENDBRANCH   1  23
TORSDOF 6
ENDMDL
MODEL 7
REMARK VINA RESULT:      -7.0      2.059      3.287
REMARK  Name = 
REMARK  6 active torsions:
REMARK  status: ('A' for Active; 'I' for Inactive)
REMARK    1  A    between atoms: N_1  and  C_2
REMARK    2  A    between atoms: C_2  and  C_3
REMARK    3  A    between atoms: N_6  and  C_7
REMARK    4  A    between atoms: C_7  and  C_8
REMARK    5  A    between atoms: C_13  and  C_15
REMARK    6  A    between atoms: C_22  and  C_24
REMARK                            x       y       z     vdW  Elec       q    Type
REMARK                         _______ _______ _______ _____ _____    ______ ____
ROOT
ATOM      1  C   UNL     1       8.281   1.759  22.365  0.00  0.00    -0.033 A 
ATOM      2  C   UNL     1       9.412   1.076  21.893  0.00  0.00    +0.007 A 
ATOM      3  C   UNL     1       9.498  -0.319  21.937  0.00  0.00    +0.026 A 
ATOM      4  C   UNL     1       8.424  -1.008  22.504  0.00  0.00    +0.047 A 
ATOM      5  N   UNL     1       8.270  -2.346  22.772  0.00  0.00    -0.353 N 
ATOM      6  H   UNL     1       8.954  -3.069  22.598  0.00  0.00    +0.166 HD
ATOM      7  C   UNL     1       7.117  -2.555  23.484  0.00  0.00    +0.068 A 
ATOM      8  C   UNL     1       6.425  -1.366  23.517  0.00  0.00    +0.037 A 
ATOM      9  C   UNL     1       7.273  -0.367  22.963  0.00  0.00    +0.001 A 
ATOM     10  C   UNL     1       7.188   1.033  22.869  0.00  0.00    +0.015 A 
ENDROOT
BRANCH   7  11
ATOM     11  C   UNL     1       6.808  -3.846  24.149  0.00  0.00    +0.116 A 
ATOM     12  C   UNL     1       5.695  -4.706  23.946  0.00  0.00    +0.029 A 
ATOM     13  C   UNL     1       4.591  -4.780  23.073  0.00  0.00    +0.013 A 
ATOM     14  C   UNL     1       3.664  -5.819  23.222  0.00  0.00    +0.019 A 
ATOM     15  C   UNL     1       3.817  -6.773  24.231  0.00  0.00    +0.054 A 
ATOM     16  C   UNL     1       4.906  -6.719  25.112  0.00  0.00    +0.046 A 
ATOM     17  C   UNL     1       5.826  -5.679  24.933  0.00  0.00    +0.068 A 
ATOM     18  N   UNL     1       6.974  -5.361  25.607  0.00  0.00    -0.276 N 
ATOM     19  H   UNL     1       7.374  -5.840  26.406  0.00  0.00    +0.189 HD
ATOM     20  N   UNL     1       7.611  -4.279  25.131  0.00  0.00    -0.171 NA
BRANCH  15  21
ATOM     21  C   UNL     1       2.854  -7.823  24.364  0.00  0.00    +0.099 C 
ATOM     22  N   UNL     1       2.075  -8.680  24.474  0.00  0.00    -0.191 NA
ENDBRANCH  15  21
ENDBRANCH   7  11
BRANCH   1  23
ATOM     23  C   UNL     1       8.253   3.272  22.375  0.00  0.00    +0.119 C 
BRANCH  23  27
ATOM     24  C   UNL     1       7.342   5.453  25.245  0.00  0.00    +0.005 C 
ATOM     25  C   UNL     1       7.403   3.916  25.255  0.00  0.00    +0.020 C 
ATOM     26  C   UNL     1       8.749   3.386  24.751  0.00  0.00    +0.085 C 
ATOM     27  N   UNL     1       9.109   3.880  23.414  0.00  0.00    -0.298 NA
ATOM     28  C   UNL     1       9.105   5.351  23.399  0.00  0.00    +0.085 C 
ATOM     29  C   UNL     1       7.784   5.974  23.865  0.00  0.00    +0.020 C 
BRANCH  24  30
ATOM     30  C   UNL     1       8.181   6.115  26.359  0.00  0.00    +0.081 C 
BRANCH  30  31
ATOM     31  N   UNL     1       7.860   5.602  27.687  0.00  0.00    -0.330 NA
ATOM     32  H   UNL     1       8.447   4.798  27.902  0.00  0.00    +0.118 HD
ATOM     33  H   UNL     1       8.103   6.309  28.383  0.00  0.00    +0.118 HD
ENDBRANCH  30  31
ENDBRANCH  24  30
ENDBRANCH  23  27
ENDBRANCH   1  23
TORSDOF 6
ENDMDL
MODEL 8
REMARK VINA RESULT:      -6.9      2.326      2.729
REMARK  Name = 
REMARK  6 active torsions:
REMARK  status: ('A' for Active; 'I' for Inactive)
REMARK    1  A    between atoms: N_1  and  C_2
REMARK    2  A    between atoms: C_2  and  C_3
REMARK    3  A    between atoms: N_6  and  C_7
REMARK    4  A    between atoms: C_7  and  C_8
REMARK    5  A    between atoms: C_13  and  C_15
REMARK    6  A    between atoms: C_22  and  C_24
REMARK                            x       y       z     vdW  Elec       q    Type
REMARK                         _______ _______ _______ _____ _____    ______ ____
ROOT
ATOM      1  C   UNL     1       9.807  -0.003  24.432  0.00  0.00    -0.033 A 
ATOM      2  C   UNL     1      10.212  -0.984  23.515  0.00  0.00    +0.007 A 
ATOM      3  C   UNL     1       9.696  -2.283  23.554  0.00  0.00    +0.026 A 
ATOM      4  C   UNL     1       8.782  -2.577  24.567  0.00  0.00    +0.047 A 
ATOM      5  N   UNL     1       8.192  -3.768  24.912  0.00  0.00    -0.353 N 
ATOM      6  H   UNL     1       8.351  -4.661  24.466  0.00  0.00    +0.166 HD
ATOM      7  C   UNL     1       7.483  -3.624  26.078  0.00  0.00    +0.068 A 
ATOM      8  C   UNL     1       7.461  -2.285  26.389  0.00  0.00    +0.037 A 
ATOM      9  C   UNL     1       8.335  -1.624  25.482  0.00  0.00    +0.001 A 
ATOM     10  C   UNL     1       8.834  -0.312  25.399  0.00  0.00    +0.015 A 
ENDROOT
BRANCH   7  11
ATOM     11  C   UNL     1       6.960  -4.781  26.846  0.00  0.00    +0.116 A 
ATOM     12  C   UNL     1       5.609  -5.168  27.060  0.00  0.00    +0.029 A 
ATOM     13  C   UNL     1       4.334  -4.758  26.618  0.00  0.00    +0.013 A 
ATOM     14  C   UNL     1       3.195  -5.410  27.105  0.00  0.00    +0.019 A 
ATOM     15  C   UNL     1       3.309  -6.453  28.029  0.00  0.00    +0.054 A 
ATOM     16  C   UNL     1       4.566  -6.876  28.484  0.00  0.00    +0.046 A 
ATOM     17  C   UNL     1       5.689  -6.216  27.971  0.00  0.00    +0.068 A 
ATOM     18  N   UNL     1       7.026  -6.394  28.204  0.00  0.00    -0.276 N 
ATOM     19  H   UNL     1       7.461  -7.060  28.832  0.00  0.00    +0.189 HD
ATOM     20  N   UNL     1       7.821  -5.566  27.508  0.00  0.00    -0.171 NA
BRANCH  15  21
ATOM     21  C   UNL     1       2.128  -7.101  28.514  0.00  0.00    +0.099 C 
ATOM     22  N   UNL     1       1.167  -7.629  28.902  0.00  0.00    -0.191 NA
ENDBRANCH  15  21
ENDBRANCH   7  11
BRANCH   1  23
ATOM     23  C   UNL     1      10.444   1.370  24.411  0.00  0.00    +0.119 C 
BRANCH  23  27
ATOM     24  C   UNL     1       8.026   4.127  23.795  0.00  0.00    +0.005 C 
ATOM     25  C   UNL     1       9.477   4.282  24.280  0.00  0.00    +0.020 C 
ATOM     26  C   UNL     1      10.474   3.564  23.365  0.00  0.00    +0.085 C 
ATOM     27  N   UNL     1      10.173   2.137  23.178  0.00  0.00    -0.298 NA
ATOM     28  C   UNL     1       8.804   1.971  22.666  0.00  0.00    +0.085 C 
ATOM     29  C   UNL     1       7.730   2.638  23.534  0.00  0.00    +0.020 C 
BRANCH  24  30
ATOM     30  C   UNL     1       7.698   4.964  22.541  0.00  0.00    +0.081 C 
BRANCH  30  31
ATOM     31  N   UNL     1       6.399   4.631  21.963  0.00  0.00    -0.330 NA
ATOM     32  H   UNL     1       6.025   5.432  21.459  0.00  0.00    +0.118 HD
ATOM     33  H   UNL     1       6.527   3.903  21.259  0.00  0.00    +0.118 HD
ENDBRANCH  30  31
ENDBRANCH  24  30
ENDBRANCH  23  27
ENDBRANCH   1  23
TORSDOF 6
ENDMDL
MODEL 9
REMARK VINA RESULT:      -6.6      1.733      1.990
REMARK  Name = 
REMARK  6 active torsions:
REMARK  status: ('A' for Active; 'I' for Inactive)
REMARK    1  A    between atoms: N_1  and  C_2
REMARK    2  A    between atoms: C_2  and  C_3
REMARK    3  A    between atoms: N_6  and  C_7
REMARK    4  A    between atoms: C_7  and  C_8
REMARK    5  A    between atoms: C_13  and  C_15
REMARK    6  A    between atoms: C_22  and  C_24
REMARK                            x       y       z     vdW  Elec       q    Type
REMARK                         _______ _______ _______ _____ _____    ______ ____
ROOT
ATOM      1  C   UNL     1       9.651  -0.454  24.862  0.00  0.00    -0.033 A 
ATOM      2  C   UNL     1       9.075  -0.479  26.141  0.00  0.00    +0.007 A 
ATOM      3  C   UNL     1       8.231  -1.518  26.545  0.00  0.00    +0.026 A 
ATOM      4  C   UNL     1       7.953  -2.516  25.609  0.00  0.00    +0.047 A 
ATOM      5  N   UNL     1       7.098  -3.588  25.682  0.00  0.00    -0.353 N 
ATOM      6  H   UNL     1       6.500  -3.819  26.463  0.00  0.00    +0.166 HD
ATOM      7  C   UNL     1       7.022  -4.216  24.464  0.00  0.00    +0.068 A 
ATOM      8  C   UNL     1       7.979  -3.659  23.648  0.00  0.00    +0.037 A 
ATOM      9  C   UNL     1       8.524  -2.539  24.336  0.00  0.00    +0.001 A 
ATOM     10  C   UNL     1       9.405  -1.508  23.965  0.00  0.00    +0.015 A 
ENDROOT
BRANCH   7  11
ATOM     11  C   UNL     1       5.989  -5.234  24.150  0.00  0.00    +0.116 A 
ATOM     12  C   UNL     1       4.888  -5.657  24.943  0.00  0.00    +0.029 A 
ATOM     13  C   UNL     1       4.290  -5.284  26.164  0.00  0.00    +0.013 A 
ATOM     14  C   UNL     1       3.182  -6.001  26.634  0.00  0.00    +0.019 A 
ATOM     15  C   UNL     1       2.672  -7.083  25.911  0.00  0.00    +0.054 A 
ATOM     16  C   UNL     1       3.251  -7.472  24.696  0.00  0.00    +0.046 A 
ATOM     17  C   UNL     1       4.349  -6.731  24.241  0.00  0.00    +0.068 A 
ATOM     18  N   UNL     1       5.116  -6.850  23.114  0.00  0.00    -0.276 N 
ATOM     19  H   UNL     1       5.028  -7.540  22.376  0.00  0.00    +0.189 HD
ATOM     20  N   UNL     1       6.091  -5.934  23.011  0.00  0.00    -0.171 NA
BRANCH  15  21
ATOM     21  C   UNL     1       1.541  -7.800  26.415  0.00  0.00    +0.099 C 
ATOM     22  N   UNL     1       0.618  -8.379  26.824  0.00  0.00    -0.191 NA
ENDBRANCH  15  21
ENDBRANCH   7  11
BRANCH   1  23
ATOM     23  C   UNL     1      10.496   0.725  24.430  0.00  0.00    +0.119 C 
BRANCH  23  27
ATOM     24  C   UNL     1       8.133   3.498  23.685  0.00  0.00    +0.005 C 
ATOM     25  C   UNL     1       9.642   3.636  23.952  0.00  0.00    +0.020 C 
ATOM     26  C   UNL     1      10.477   2.724  23.047  0.00  0.00    +0.085 C 
ATOM     27  N   UNL     1      10.094   1.307  23.133  0.00  0.00    -0.298 NA
ATOM     28  C   UNL     1       8.663   1.149  22.832  0.00  0.00    +0.085 C 
ATOM     29  C   UNL     1       7.744   2.008  23.708  0.00  0.00    +0.020 C 
BRANCH  24  30
ATOM     30  C   UNL     1       7.674   4.150  22.363  0.00  0.00    +0.081 C 
BRANCH  30  31
ATOM     31  N   UNL     1       6.299   3.809  22.015  0.00  0.00    -0.330 NA
ATOM     32  H   UNL     1       5.780   4.652  21.776  0.00  0.00    +0.118 HD
ATOM     33  H   UNL     1       6.303   3.244  21.164  0.00  0.00    +0.118 HD
ENDBRANCH  30  31
ENDBRANCH  24  30
ENDBRANCH  23  27
ENDBRANCH   1  23
TORSDOF 6
ENDMDL
