MODEL 1
REMARK VINA RESULT:      -4.9      0.000      0.000
REMARK  Name = 
REMARK  11 active torsions:
REMARK  status: ('A' for Active; 'I' for Inactive)
REMARK    1  A    between atoms: N_1  and  CA_2
REMARK    2  A    between atoms: CA_2  and  CB_4
REMARK    3  A    between atoms: CA_2  and  C_14
REMARK    4  A    between atoms: CB_4  and  SG_5
REMARK    5  A    between atoms: SG_5  and  SG_6
REMARK    6  A    between atoms: SG_6  and  CB_7
REMARK    7  A    between atoms: CB_7  and  CA_8
REMARK    8  A    between atoms: CA_8  and  N_10
REMARK    9  A    between atoms: CA_8  and  C_11
REMARK   10  A    between atoms: C_11  and  O_12
REMARK   11  A    between atoms: C_14  and  O_15
REMARK                            x       y       z     vdW  Elec       q    Type
REMARK                         _______ _______ _______ _____ _____    ______ ____
ROOT
ATOM      1  SG  CYS A   1       9.462  -2.248  23.541  0.00  0.00    -0.091 S 
ENDROOT
BRANCH   1   2
ATOM      2  CB  CYS A   1       8.736  -0.571  23.548  0.00  0.00    +0.111 C 
BRANCH   2   3
ATOM      3  CA  CYS A   1       9.037   0.182  22.247  0.00  0.00    +0.171 C 
BRANCH   3   4
ATOM      4  N   CYS A   1       9.672  -0.671  21.184  0.00  0.00    -0.318 NA
ATOM      5  H1  CYS A   1      10.122  -1.469  21.646  0.00  0.00    +0.119 HD
ATOM      6  H2  CYS A   1       8.903  -1.111  20.664  0.00  0.00    +0.119 HD
ENDBRANCH   3   4
BRANCH   3   7
ATOM      7  C   CYS A   1       9.993   1.342  22.565  0.00  0.00    +0.323 C 
ATOM      8  OXT CYS A   1      10.597   1.488  23.618  0.00  0.00    -0.249 OA
BRANCH   7   9
ATOM      9  O   CYS A   1      10.090   2.204  21.522  0.00  0.00    -0.480 OA
ATOM     10  H   CYS A   1       9.521   1.826  20.804  0.00  0.00    +0.295 HD
ENDBRANCH   7   9
ENDBRANCH   3   7
ENDBRANCH   2   3
ENDBRANCH   1   2
BRANCH   1  11
ATOM     11  SG  CYS A   1       7.819  -3.400  23.089  0.00  0.00    -0.091 S 
BRANCH  11  12
ATOM     12  CB  CYS A   1       8.166  -4.935  24.018  0.00  0.00    +0.111 C 
BRANCH  12  13
ATOM     13  CA  CYS A   1       9.066  -4.655  25.230  0.00  0.00    +0.171 C 
BRANCH  13  14
ATOM     14  N   CYS A   1      10.150  -5.676  25.401  0.00  0.00    -0.318 NA
ATOM     15  H1  CYS A   1      10.606  -5.483  26.301  0.00  0.00    +0.119 HD
ATOM     16  H2  CYS A   1       9.699  -6.587  25.543  0.00  0.00    +0.119 HD
ENDBRANCH  13  14
BRANCH  13  17
ATOM     17  C   CYS A   1       8.177  -4.697  26.477  0.00  0.00    +0.323 C 
ATOM     18  OXT CYS A   1       7.491  -3.772  26.879  0.00  0.00    -0.249 OA
BRANCH  17  19
ATOM     19  O   CYS A   1       8.206  -5.923  27.063  0.00  0.00    -0.480 OA
ATOM     20  H   CYS A   1       8.720  -6.511  26.453  0.00  0.00    +0.295 HD
ENDBRANCH  17  19
ENDBRANCH  13  17
ENDBRANCH  12  13
ENDBRANCH  11  12
ENDBRANCH   1  11
TORSDOF 11
ENDMDL
MODEL 2
REMARK VINA RESULT:      -4.9      1.672      6.712
REMARK  Name = 
REMARK  11 active torsions:
REMARK  status: ('A' for Active; 'I' for Inactive)
REMARK    1  A    between atoms: N_1  and  CA_2
REMARK    2  A    between atoms: CA_2  and  CB_4
REMARK    3  A    between atoms: CA_2  and  C_14
REMARK    4  A    between atoms: CB_4  and  SG_5
REMARK    5  A    between atoms: SG_5  and  SG_6
REMARK    6  A    between atoms: SG_6  and  CB_7
REMARK    7  A    between atoms: CB_7  and  CA_8
REMARK    8  A    between atoms: CA_8  and  N_10
REMARK    9  A    between atoms: CA_8  and  C_11
REMARK   10  A    between atoms: C_11  and  O_12
REMARK   11  A    between atoms: C_14  and  O_15
REMARK                            x       y       z     vdW  Elec       q    Type
REMARK                         _______ _______ _______ _____ _____    ______ ____
ROOT
ATOM      1  SG  CYS A   1       9.784  -2.573  23.812  0.00  0.00    -0.091 S 
ENDROOT
BRANCH   1   2
ATOM      2  CB  CYS A   1       8.610  -3.894  24.274  0.00  0.00    +0.111 C 
BRANCH   2   3
ATOM      3  CA  CYS A   1       9.036  -4.607  25.563  0.00  0.00    +0.171 C 
BRANCH   3   4
ATOM      4  N   CYS A   1      10.133  -5.616  25.365  0.00  0.00    -0.318 NA
ATOM      5  H1  CYS A   1      10.919  -5.352  25.969  0.00  0.00    +0.119 HD
ATOM      6  H2  CYS A   1       9.804  -6.493  25.789  0.00  0.00    +0.119 HD
ENDBRANCH   3   4
BRANCH   3   7
ATOM      7  C   CYS A   1       7.814  -5.335  26.144  0.00  0.00    +0.323 C 
ATOM      8  OXT CYS A   1       6.741  -5.475  25.574  0.00  0.00    -0.249 OA
BRANCH   7   9
ATOM      9  O   CYS A   1       8.068  -5.814  27.388  0.00  0.00    -0.480 OA
ATOM     10  H   CYS A   1       7.218  -6.214  27.702  0.00  0.00    +0.295 HD
ENDBRANCH   7   9
ENDBRANCH   3   7
ENDBRANCH   2   3
ENDBRANCH   1   2
BRANCH   1  11
ATOM     11  SG  CYS A   1       8.555  -1.275  22.794  0.00  0.00    -0.091 S 
BRANCH  11  12
ATOM     12  CB  CYS A   1       9.758  -0.105  22.069  0.00  0.00    +0.111 C 
BRANCH  12  13
ATOM     13  CA  CYS A   1       9.567   1.307  22.639  0.00  0.00    +0.171 C 
BRANCH  13  14
ATOM     14  N   CYS A   1      10.260   2.362  21.830  0.00  0.00    -0.318 NA
ATOM     15  H1  CYS A   1       9.556   2.771  21.204  0.00  0.00    +0.119 HD
ATOM     16  H2  CYS A   1      10.502   3.131  22.466  0.00  0.00    +0.119 HD
ENDBRANCH  13  14
BRANCH  13  17
ATOM     17  C   CYS A   1      10.173   1.316  24.046  0.00  0.00    +0.323 C 
ATOM     18  OXT CYS A   1      11.261   0.851  24.343  0.00  0.00    -0.249 OA
BRANCH  17  19
ATOM     19  O   CYS A   1       9.362   1.958  24.928  0.00  0.00    -0.480 OA
ATOM     20  H   CYS A   1       9.958   2.444  25.552  0.00  0.00    +0.295 HD
ENDBRANCH  17  19
ENDBRANCH  13  17
ENDBRANCH  12  13
ENDBRANCH  11  12
ENDBRANCH   1  11
TORSDOF 11
ENDMDL
MODEL 3
REMARK VINA RESULT:      -4.9      1.269      6.697
REMARK  Name = 
REMARK  11 active torsions:
REMARK  status: ('A' for Active; 'I' for Inactive)
REMARK    1  A    between atoms: N_1  and  CA_2
REMARK    2  A    between atoms: CA_2  and  CB_4
REMARK    3  A    between atoms: CA_2  and  C_14
REMARK    4  A    between atoms: CB_4  and  SG_5
REMARK    5  A    between atoms: SG_5  and  SG_6
REMARK    6  A    between atoms: SG_6  and  CB_7
REMARK    7  A    between atoms: CB_7  and  CA_8
REMARK    8  A    between atoms: CA_8  and  N_10
REMARK    9  A    between atoms: CA_8  and  C_11
REMARK   10  A    between atoms: C_11  and  O_12
REMARK   11  A    between atoms: C_14  and  O_15
REMARK                            x       y       z     vdW  Elec       q    Type
REMARK                         _______ _______ _______ _____ _____    ______ ____
ROOT
ATOM      1  SG  CYS A   1       7.967  -3.068  23.232  0.00  0.00    -0.091 S 
ENDROOT
BRANCH   1   2
ATOM      2  CB  CYS A   1       8.188  -4.720  23.981  0.00  0.00    +0.111 C 
BRANCH   2   3
ATOM      3  CA  CYS A   1       9.036  -4.656  25.256  0.00  0.00    +0.171 C 
BRANCH   3   4
ATOM      4  N   CYS A   1      10.046  -5.764  25.370  0.00  0.00    -0.318 NA
ATOM      5  H1  CYS A   1       9.812  -6.322  26.198  0.00  0.00    +0.119 HD
ATOM      6  H2  CYS A   1       9.857  -6.413  24.595  0.00  0.00    +0.119 HD
ENDBRANCH   3   4
BRANCH   3   7
ATOM      7  C   CYS A   1       8.097  -4.738  26.470  0.00  0.00    +0.323 C 
ATOM      8  OXT CYS A   1       7.377  -3.833  26.866  0.00  0.00    -0.249 OA
BRANCH   7   9
ATOM      9  O   CYS A   1       8.163  -5.956  27.065  0.00  0.00    -0.480 OA
ATOM     10  H   CYS A   1       8.565  -5.800  27.957  0.00  0.00    +0.295 HD
ENDBRANCH   7   9
ENDBRANCH   3   7
ENDBRANCH   2   3
ENDBRANCH   1   2
BRANCH   1  11
ATOM     11  SG  CYS A   1       9.758  -2.169  23.697  0.00  0.00    -0.091 S 
BRANCH  11  12
ATOM     12  CB  CYS A   1       9.272  -0.414  23.849  0.00  0.00    +0.111 C 
BRANCH  12  13
ATOM     13  CA  CYS A   1      10.343   0.510  23.253  0.00  0.00    +0.171 C 
BRANCH  13  14
ATOM     14  N   CYS A   1      10.599   1.726  24.092  0.00  0.00    -0.318 NA
ATOM     15  H1  CYS A   1      10.368   1.475  25.061  0.00  0.00    +0.119 HD
ATOM     16  H2  CYS A   1      11.613   1.881  24.111  0.00  0.00    +0.119 HD
ENDBRANCH  13  14
BRANCH  13  17
ATOM     17  C   CYS A   1       9.833   0.977  21.886  0.00  0.00    +0.323 C 
ATOM     18  OXT CYS A   1       9.149   0.309  21.128  0.00  0.00    -0.249 OA
BRANCH  17  19
ATOM     19  O   CYS A   1      10.198   2.261  21.636  0.00  0.00    -0.480 OA
ATOM     20  H   CYS A   1      10.581   2.612  22.480  0.00  0.00    +0.295 HD
ENDBRANCH  17  19
ENDBRANCH  13  17
ENDBRANCH  12  13
ENDBRANCH  11  12
ENDBRANCH   1  11
TORSDOF 11
ENDMDL
MODEL 4
REMARK VINA RESULT:      -4.9      1.068      6.688
REMARK  Name = 
REMARK  11 active torsions:
REMARK  status: ('A' for Active; 'I' for Inactive)
REMARK    1  A    between atoms: N_1  and  CA_2
REMARK    2  A    between atoms: CA_2  and  CB_4
REMARK    3  A    between atoms: CA_2  and  C_14
REMARK    4  A    between atoms: CB_4  and  SG_5
REMARK    5  A    between atoms: SG_5  and  SG_6
REMARK    6  A    between atoms: SG_6  and  CB_7
REMARK    7  A    between atoms: CB_7  and  CA_8
REMARK    8  A    between atoms: CA_8  and  N_10
REMARK    9  A    between atoms: CA_8  and  C_11
REMARK   10  A    between atoms: C_11  and  O_12
REMARK   11  A    between atoms: C_14  and  O_15
REMARK                            x       y       z     vdW  Elec       q    Type
REMARK                         _______ _______ _______ _____ _____    ______ ____
ROOT
ATOM      1  SG  CYS A   1       8.361  -2.069  24.651  0.00  0.00    -0.091 S 
ENDROOT
BRANCH   1   2
ATOM      2  CB  CYS A   1       8.923  -3.775  24.318  0.00  0.00    +0.111 C 
BRANCH   2   3
ATOM      3  CA  CYS A   1       9.227  -4.535  25.615  0.00  0.00    +0.171 C 
BRANCH   3   4
ATOM      4  N   CYS A   1      10.301  -5.576  25.470  0.00  0.00    -0.318 NA
ATOM      5  H1  CYS A   1       9.990  -6.256  24.768  0.00  0.00    +0.119 HD
ATOM      6  H2  CYS A   1      11.095  -5.116  25.008  0.00  0.00    +0.119 HD
ENDBRANCH   3   4
BRANCH   3   7
ATOM      7  C   CYS A   1       7.940  -5.235  26.081  0.00  0.00    +0.323 C 
ATOM      8  OXT CYS A   1       6.931  -5.375  25.406  0.00  0.00    -0.249 OA
BRANCH   7   9
ATOM      9  O   CYS A   1       8.057  -5.686  27.356  0.00  0.00    -0.480 OA
ATOM     10  H   CYS A   1       8.971  -5.439  27.648  0.00  0.00    +0.295 HD
ENDBRANCH   7   9
ENDBRANCH   3   7
ENDBRANCH   2   3
ENDBRANCH   1   2
BRANCH   1  11
ATOM     11  SG  CYS A   1       7.420  -1.598  22.883  0.00  0.00    -0.091 S 
BRANCH  11  12
ATOM     12  CB  CYS A   1       7.812   0.178  22.707  0.00  0.00    +0.111 C 
BRANCH  12  13
ATOM     13  CA  CYS A   1       8.943   0.395  21.692  0.00  0.00    +0.171 C 
BRANCH  13  14
ATOM     14  N   CYS A   1       9.601  -0.884  21.268  0.00  0.00    -0.318 NA
ATOM     15  H1  CYS A   1       9.141  -1.184  20.400  0.00  0.00    +0.119 HD
ATOM     16  H2  CYS A   1      10.558  -0.657  20.975  0.00  0.00    +0.119 HD
ENDBRANCH  13  14
BRANCH  13  17
ATOM     17  C   CYS A   1      10.002   1.270  22.369  0.00  0.00    +0.323 C 
ATOM     18  OXT CYS A   1      10.538   1.020  23.436  0.00  0.00    -0.249 OA
BRANCH  17  19
ATOM     19  O   CYS A   1      10.313   2.349  21.604  0.00  0.00    -0.480 OA
ATOM     20  H   CYS A   1      10.861   2.946  22.173  0.00  0.00    +0.295 HD
ENDBRANCH  17  19
ENDBRANCH  13  17
ENDBRANCH  12  13
ENDBRANCH  11  12
ENDBRANCH   1  11
TORSDOF 11
ENDMDL
MODEL 5
REMARK VINA RESULT:      -4.8      1.578      1.810
REMARK  Name = 
REMARK  11 active torsions:
REMARK  status: ('A' for Active; 'I' for Inactive)
REMARK    1  A    between atoms: N_1  and  CA_2
REMARK    2  A    between atoms: CA_2  and  CB_4
REMARK    3  A    between atoms: CA_2  and  C_14
REMARK    4  A    between atoms: CB_4  and  SG_5
REMARK    5  A    between atoms: SG_5  and  SG_6
REMARK    6  A    between atoms: SG_6  and  CB_7
REMARK    7  A    between atoms: CB_7  and  CA_8
REMARK    8  A    between atoms: CA_8  and  N_10
REMARK    9  A    between atoms: CA_8  and  C_11
REMARK   10  A    between atoms: C_11  and  O_12
REMARK   11  A    between atoms: C_14  and  O_15
REMARK                            x       y       z     vdW  Elec       q    Type
REMARK                         _______ _______ _______ _____ _____    ______ ____
ROOT
ATOM      1  SG  CYS A   1       9.033  -1.578  22.267  0.00  0.00    -0.091 S 
ENDROOT
BRANCH   1   2
ATOM      2  CB  CYS A   1      10.078  -0.090  22.091  0.00  0.00    +0.111 C 
BRANCH   2   3
ATOM      3  CA  CYS A   1       9.369   1.166  22.612  0.00  0.00    +0.171 C 
BRANCH   3   4
ATOM      4  N   CYS A   1       9.103   2.196  21.550  0.00  0.00    -0.318 NA
ATOM      5  H1  CYS A   1       9.616   1.922  20.706  0.00  0.00    +0.119 HD
ATOM      6  H2  CYS A   1       8.121   2.080  21.269  0.00  0.00    +0.119 HD
ENDBRANCH   3   4
BRANCH   3   7
ATOM      7  C   CYS A   1      10.250   1.809  23.694  0.00  0.00    +0.323 C 
ATOM      8  OXT CYS A   1      10.952   2.798  23.535  0.00  0.00    -0.249 OA
BRANCH   7   9
ATOM      9  O   CYS A   1      10.159   1.138  24.870  0.00  0.00    -0.480 OA
ATOM     10  H   CYS A   1       9.743   1.770  25.510  0.00  0.00    +0.295 HD
ENDBRANCH   7   9
ENDBRANCH   3   7
ENDBRANCH   2   3
ENDBRANCH   1   2
BRANCH   1  11
ATOM     11  SG  CYS A   1       9.844  -2.450  23.944  0.00  0.00    -0.091 S 
BRANCH  11  12
ATOM     12  CB  CYS A   1       8.673  -3.817  24.263  0.00  0.00    +0.111 C 
BRANCH  12  13
ATOM     13  CA  CYS A   1       9.048  -4.577  25.543  0.00  0.00    +0.171 C 
BRANCH  13  14
ATOM     14  N   CYS A   1      10.145  -5.577  25.328  0.00  0.00    -0.318 NA
ATOM     15  H1  CYS A   1       9.815  -6.471  25.710  0.00  0.00    +0.119 HD
ATOM     16  H2  CYS A   1      10.213  -5.749  24.318  0.00  0.00    +0.119 HD
ENDBRANCH  13  14
BRANCH  13  17
ATOM     17  C   CYS A   1       7.801  -5.336  26.004  0.00  0.00    +0.323 C 
ATOM     18  OXT CYS A   1       6.763  -5.428  25.370  0.00  0.00    -0.249 OA
BRANCH  17  19
ATOM     19  O   CYS A   1       8.008  -5.946  27.201  0.00  0.00    -0.480 OA
ATOM     20  H   CYS A   1       7.198  -6.485  27.384  0.00  0.00    +0.295 HD
ENDBRANCH  17  19
ENDBRANCH  13  17
ENDBRANCH  12  13
ENDBRANCH  11  12
ENDBRANCH   1  11
TORSDOF 11
ENDMDL
MODEL 6
REMARK VINA RESULT:      -4.6      2.613      5.807
REMARK  Name = 
REMARK  11 active torsions:
REMARK  status: ('A' for Active; 'I' for Inactive)
REMARK    1  A    between atoms: N_1  and  CA_2
REMARK    2  A    between atoms: CA_2  and  CB_4
REMARK    3  A    between atoms: CA_2  and  C_14
REMARK    4  A    between atoms: CB_4  and  SG_5
REMARK    5  A    between atoms: SG_5  and  SG_6
REMARK    6  A    between atoms: SG_6  and  CB_7
REMARK    7  A    between atoms: CB_7  and  CA_8
REMARK    8  A    between atoms: CA_8  and  N_10
REMARK    9  A    between atoms: CA_8  and  C_11
REMARK   10  A    between atoms: C_11  and  O_12
REMARK   11  A    between atoms: C_14  and  O_15
REMARK                            x       y       z     vdW  Elec       q    Type
REMARK                         _______ _______ _______ _____ _____    ______ ____
ROOT
ATOM      1  SG  CYS A   1       6.672  -2.425  26.519  0.00  0.00    -0.091 S 
ENDROOT
BRANCH   1   2
ATOM      2  CB  CYS A   1       8.225  -3.384  26.444  0.00  0.00    +0.111 C 
BRANCH   2   3
ATOM      3  CA  CYS A   1       7.965  -4.862  26.130  0.00  0.00    +0.171 C 
BRANCH   3   4
ATOM      4  N   CYS A   1       7.956  -5.748  27.344  0.00  0.00    -0.318 NA
ATOM      5  H1  CYS A   1       7.927  -5.147  28.174  0.00  0.00    +0.119 HD
ATOM      6  H2  CYS A   1       7.038  -6.210  27.362  0.00  0.00    +0.119 HD
ENDBRANCH   3   4
BRANCH   3   7
ATOM      7  C   CYS A   1       9.067  -5.359  25.181  0.00  0.00    +0.323 C 
ATOM      8  OXT CYS A   1       8.932  -5.545  23.980  0.00  0.00    -0.249 OA
BRANCH   7   9
ATOM      9  O   CYS A   1      10.231  -5.574  25.845  0.00  0.00    -0.480 OA
ATOM     10  H   CYS A   1      10.338  -6.558  25.892  0.00  0.00    +0.295 HD
ENDBRANCH   7   9
ENDBRANCH   3   7
ENDBRANCH   2   3
ENDBRANCH   1   2
BRANCH   1  11
ATOM     11  SG  CYS A   1       6.172  -2.303  24.528  0.00  0.00    -0.091 S 
BRANCH  11  12
ATOM     12  CB  CYS A   1       7.543  -1.301  23.853  0.00  0.00    +0.111 C 
BRANCH  12  13
ATOM     13  CA  CYS A   1       8.099  -1.922  22.564  0.00  0.00    +0.171 C 
BRANCH  13  14
ATOM     14  N   CYS A   1       7.742  -3.370  22.412  0.00  0.00    -0.318 NA
ATOM     15  H1  CYS A   1       6.885  -3.526  22.957  0.00  0.00    +0.119 HD
ATOM     16  H2  CYS A   1       7.446  -3.516  21.440  0.00  0.00    +0.119 HD
ENDBRANCH  13  14
BRANCH  13  17
ATOM     17  C   CYS A   1       9.625  -1.815  22.628  0.00  0.00    +0.323 C 
ATOM     18  OXT CYS A   1      10.297  -1.004  22.013  0.00  0.00    -0.249 OA
BRANCH  17  19
ATOM     19  O   CYS A   1      10.146  -2.715  23.504  0.00  0.00    -0.480 OA
ATOM     20  H   CYS A   1       9.375  -3.157  23.941  0.00  0.00    +0.295 HD
ENDBRANCH  17  19
ENDBRANCH  13  17
ENDBRANCH  12  13
ENDBRANCH  11  12
ENDBRANCH   1  11
TORSDOF 11
ENDMDL
MODEL 7
REMARK VINA RESULT:      -4.6      1.906      2.098
REMARK  Name = 
REMARK  11 active torsions:
REMARK  status: ('A' for Active; 'I' for Inactive)
REMARK    1  A    between atoms: N_1  and  CA_2
REMARK    2  A    between atoms: CA_2  and  CB_4
REMARK    3  A    between atoms: CA_2  and  C_14
REMARK    4  A    between atoms: CB_4  and  SG_5
REMARK    5  A    between atoms: SG_5  and  SG_6
REMARK    6  A    between atoms: SG_6  and  CB_7
REMARK    7  A    between atoms: CB_7  and  CA_8
REMARK    8  A    between atoms: CA_8  and  N_10
REMARK    9  A    between atoms: CA_8  and  C_11
REMARK   10  A    between atoms: C_11  and  O_12
REMARK   11  A    between atoms: C_14  and  O_15
REMARK                            x       y       z     vdW  Elec       q    Type
REMARK                         _______ _______ _______ _____ _____    ______ ____
ROOT
ATOM      1  SG  CYS A   1       8.261  -0.533  24.725  0.00  0.00    -0.091 S 
ENDROOT
BRANCH   1   2
ATOM      2  CB  CYS A   1       9.913  -0.715  23.965  0.00  0.00    +0.111 C 
BRANCH   2   3
ATOM      3  CA  CYS A   1      10.440   0.621  23.427  0.00  0.00    +0.171 C 
BRANCH   3   4
ATOM      4  N   CYS A   1      10.017   1.812  24.241  0.00  0.00    -0.318 NA
ATOM      5  H1  CYS A   1       9.462   1.473  25.035  0.00  0.00    +0.119 HD
ATOM      6  H2  CYS A   1      10.866   2.174  24.694  0.00  0.00    +0.119 HD
ENDBRANCH   3   4
BRANCH   3   7
ATOM      7  C   CYS A   1       9.916   0.809  21.995  0.00  0.00    +0.323 C 
ATOM      8  OXT CYS A   1       9.444  -0.075  21.295  0.00  0.00    -0.249 OA
BRANCH   7   9
ATOM      9  O   CYS A   1      10.043   2.098  21.587  0.00  0.00    -0.480 OA
ATOM     10  H   CYS A   1       9.275   2.267  20.984  0.00  0.00    +0.295 HD
ENDBRANCH   7   9
ENDBRANCH   3   7
ENDBRANCH   2   3
ENDBRANCH   1   2
BRANCH   1  11
ATOM     11  SG  CYS A   1       8.296  -2.028  26.137  0.00  0.00    -0.091 S 
BRANCH  11  12
ATOM     12  CB  CYS A   1       8.858  -3.463  25.156  0.00  0.00    +0.111 C 
BRANCH  12  13
ATOM     13  CA  CYS A   1       9.215  -4.648  26.064  0.00  0.00    +0.171 C 
BRANCH  13  14
ATOM     14  N   CYS A   1      10.075  -5.669  25.382  0.00  0.00    -0.318 NA
ATOM     15  H1  CYS A   1      10.734  -5.155  24.785  0.00  0.00    +0.119 HD
ATOM     16  H2  CYS A   1      10.673  -6.098  26.098  0.00  0.00    +0.119 HD
ENDBRANCH  13  14
BRANCH  13  17
ATOM     17  C   CYS A   1       7.902  -5.327  26.464  0.00  0.00    +0.323 C 
ATOM     18  OXT CYS A   1       7.636  -5.735  27.583  0.00  0.00    -0.249 OA
BRANCH  17  19
ATOM     19  O   CYS A   1       7.035  -5.378  25.419  0.00  0.00    -0.480 OA
ATOM     20  H   CYS A   1       6.369  -6.077  25.642  0.00  0.00    +0.295 HD
ENDBRANCH  17  19
ENDBRANCH  13  17
ENDBRANCH  12  13
ENDBRANCH  11  12
ENDBRANCH   1  11
TORSDOF 11
ENDMDL
MODEL 8
REMARK VINA RESULT:      -4.6      2.412      2.745
REMARK  Name = 
REMARK  11 active torsions:
REMARK  status: ('A' for Active; 'I' for Inactive)
REMARK    1  A    between atoms: N_1  and  CA_2
REMARK    2  A    between atoms: CA_2  and  CB_4
REMARK    3  A    between atoms: CA_2  and  C_14
REMARK    4  A    between atoms: CB_4  and  SG_5
REMARK    5  A    between atoms: SG_5  and  SG_6
REMARK    6  A    between atoms: SG_6  and  CB_7
REMARK    7  A    between atoms: CB_7  and  CA_8
REMARK    8  A    between atoms: CA_8  and  N_10
REMARK    9  A    between atoms: CA_8  and  C_11
REMARK   10  A    between atoms: C_11  and  O_12
REMARK   11  A    between atoms: C_14  and  O_15
REMARK                            x       y       z     vdW  Elec       q    Type
REMARK                         _______ _______ _______ _____ _____    ______ ____
ROOT
ATOM      1  SG  CYS A   1       6.759  -1.975  24.022  0.00  0.00    -0.091 S 
ENDROOT
BRANCH   1   2
ATOM      2  CB  CYS A   1       8.402  -1.385  24.561  0.00  0.00    +0.111 C 
BRANCH   2   3
ATOM      3  CA  CYS A   1       9.154  -0.685  23.422  0.00  0.00    +0.171 C 
BRANCH   3   4
ATOM      4  N   CYS A   1       8.254  -0.054  22.397  0.00  0.00    -0.318 NA
ATOM      5  H1  CYS A   1       8.834   0.239  21.604  0.00  0.00    +0.119 HD
ATOM      6  H2  CYS A   1       7.688  -0.814  21.998  0.00  0.00    +0.119 HD
ENDBRANCH   3   4
BRANCH   3   7
ATOM      7  C   CYS A   1      10.036  -1.724  22.712  0.00  0.00    +0.323 C 
ATOM      8  OXT CYS A   1      10.590  -2.668  23.256  0.00  0.00    -0.249 OA
BRANCH   7   9
ATOM      9  O   CYS A   1      10.131  -1.466  21.382  0.00  0.00    -0.480 OA
ATOM     10  H   CYS A   1      10.624  -0.609  21.308  0.00  0.00    +0.295 HD
ENDBRANCH   7   9
ENDBRANCH   3   7
ENDBRANCH   2   3
ENDBRANCH   1   2
BRANCH   1  11
ATOM     11  SG  CYS A   1       6.063  -2.865  25.741  0.00  0.00    -0.091 S 
BRANCH  11  12
ATOM     12  CB  CYS A   1       7.592  -3.574  26.446  0.00  0.00    +0.111 C 
BRANCH  12  13
ATOM     13  CA  CYS A   1       7.675  -5.084  26.179  0.00  0.00    +0.171 C 
BRANCH  13  14
ATOM     14  N   CYS A   1       7.960  -5.881  27.416  0.00  0.00    -0.318 NA
ATOM     15  H1  CYS A   1       8.941  -6.181  27.361  0.00  0.00    +0.119 HD
ATOM     16  H2  CYS A   1       7.945  -5.233  28.212  0.00  0.00    +0.119 HD
ENDBRANCH  13  14
BRANCH  13  17
ATOM     17  C   CYS A   1       8.828  -5.309  25.195  0.00  0.00    +0.323 C 
ATOM     18  OXT CYS A   1       8.736  -5.238  23.981  0.00  0.00    -0.249 OA
BRANCH  17  19
ATOM     19  O   CYS A   1       9.994  -5.553  25.850  0.00  0.00    -0.480 OA
ATOM     20  H   CYS A   1      10.306  -6.441  25.541  0.00  0.00    +0.295 HD
ENDBRANCH  17  19
ENDBRANCH  13  17
ENDBRANCH  12  13
ENDBRANCH  11  12
ENDBRANCH   1  11
TORSDOF 11
ENDMDL
MODEL 9
REMARK VINA RESULT:      -4.6      4.473      5.606
REMARK  Name = 
REMARK  11 active torsions:
REMARK  status: ('A' for Active; 'I' for Inactive)
REMARK    1  A    between atoms: N_1  and  CA_2
REMARK    2  A    between atoms: CA_2  and  CB_4
REMARK    3  A    between atoms: CA_2  and  C_14
REMARK    4  A    between atoms: CB_4  and  SG_5
REMARK    5  A    between atoms: SG_5  and  SG_6
REMARK    6  A    between atoms: SG_6  and  CB_7
REMARK    7  A    between atoms: CB_7  and  CA_8
REMARK    8  A    between atoms: CA_8  and  N_10
REMARK    9  A    between atoms: CA_8  and  C_11
REMARK   10  A    between atoms: C_11  and  O_12
REMARK   11  A    between atoms: C_14  and  O_15
REMARK                            x       y       z     vdW  Elec       q    Type
REMARK                         _______ _______ _______ _____ _____    ______ ____
ROOT
ATOM      1  SG  CYS A   1       6.006  -3.575  24.467  0.00  0.00    -0.091 S 
ENDROOT
BRANCH   1   2
ATOM      2  CB  CYS A   1       7.277  -3.769  25.764  0.00  0.00    +0.111 C 
BRANCH   2   3
ATOM      3  CA  CYS A   1       8.006  -5.113  25.648  0.00  0.00    +0.171 C 
BRANCH   3   4
ATOM      4  N   CYS A   1       8.065  -5.884  26.936  0.00  0.00    -0.318 NA
ATOM      5  H1  CYS A   1       7.246  -6.499  26.976  0.00  0.00    +0.119 HD
ATOM      6  H2  CYS A   1       8.845  -6.548  26.845  0.00  0.00    +0.119 HD
ENDBRANCH   3   4
BRANCH   3   7
ATOM      7  C   CYS A   1       9.446  -4.847  25.182  0.00  0.00    +0.323 C 
ATOM      8  OXT CYS A   1       9.786  -3.954  24.419  0.00  0.00    -0.249 OA
BRANCH   7   9
ATOM      9  O   CYS A   1      10.314  -5.738  25.725  0.00  0.00    -0.480 OA
ATOM     10  H   CYS A   1       9.908  -6.631  25.587  0.00  0.00    +0.295 HD
ENDBRANCH   7   9
ENDBRANCH   3   7
ENDBRANCH   2   3
ENDBRANCH   1   2
BRANCH   1  11
ATOM     11  SG  CYS A   1       5.967  -5.462  23.649  0.00  0.00    -0.091 S 
BRANCH  11  12
ATOM     12  CB  CYS A   1       4.316  -6.060  24.155  0.00  0.00    +0.111 C 
BRANCH  12  13
ATOM     13  CA  CYS A   1       4.431  -7.174  25.205  0.00  0.00    +0.171 C 
BRANCH  13  14
ATOM     14  N   CYS A   1       3.236  -8.079  25.229  0.00  0.00    -0.318 NA
ATOM     15  H1  CYS A   1       3.573  -9.013  25.495  0.00  0.00    +0.119 HD
ATOM     16  H2  CYS A   1       2.648  -7.794  26.020  0.00  0.00    +0.119 HD
ENDBRANCH  13  14
BRANCH  13  17
ATOM     17  C   CYS A   1       4.540  -6.499  26.576  0.00  0.00    +0.323 C 
ATOM     18  OXT CYS A   1       4.019  -5.438  26.877  0.00  0.00    -0.249 OA
BRANCH  17  19
ATOM     19  O   CYS A   1       5.257  -7.259  27.445  0.00  0.00    -0.480 OA
ATOM     20  H   CYS A   1       4.860  -8.166  27.415  0.00  0.00    +0.295 HD
ENDBRANCH  17  19
ENDBRANCH  13  17
ENDBRANCH  12  13
ENDBRANCH  11  12
ENDBRANCH   1  11
TORSDOF 11
ENDMDL
