MODEL 1
REMARK VINA RESULT:      -6.9      0.000      0.000
REMARK  Name = 
REMARK  4 active torsions:
REMARK  status: ('A' for Active; 'I' for Inactive)
REMARK    1  A    between atoms: C_2  and  C_16
REMARK    2  A    between atoms: N_4  and  C_5
REMARK    3  A    between atoms: C_5  and  C_6
REMARK    4  A    between atoms: N_22  and  C_23
REMARK                            x       y       z     vdW  Elec       q    Type
REMARK                         _______ _______ _______ _____ _____    ______ ____
ROOT
ATOM      1  C   UNL     1       6.250   2.061  26.574  0.00  0.00    +0.166 C 
ATOM      2  O   UNL     1       4.843   2.322  26.438  0.00  0.00    -0.361 OA
ATOM      3  C   UNL     1       4.521   3.066  25.273  0.00  0.00    +0.256 C 
ATOM      4  C   UNL     1       5.409   4.263  24.882  0.00  0.00    +0.242 C 
ATOM      5  O   UNL     1       4.980   5.235  24.269  0.00  0.00    -0.273 OA
ATOM      6  N   UNL     1       6.755   4.042  25.152  0.00  0.00    -0.292 N 
ATOM      7  C   UNL     1       7.052   3.373  26.413  0.00  0.00    +0.144 C 
ENDROOT
BRANCH   1   8
ATOM      8  C   UNL     1       6.705   0.864  25.744  0.00  0.00    -0.017 A 
ATOM      9  C   UNL     1       5.827   0.155  24.905  0.00  0.00    +0.008 A 
ATOM     10  C   UNL     1       6.269  -0.853  24.043  0.00  0.00    +0.025 A 
ATOM     11  C   UNL     1       7.616  -1.155  24.002  0.00  0.00    +0.055 A 
ATOM     12  N   UNL     1       8.236  -1.959  23.001  0.00  0.00    -0.210 N 
ATOM     13  S   UNL     1       9.885  -2.128  23.407  0.00  0.00    +0.049 S 
ATOM     14  C   UNL     1       9.963  -0.757  24.573  0.00  0.00    +0.225 C 
ATOM     15  O   UNL     1      10.057  -3.369  24.141  0.00  0.00    -0.155 OA
ATOM     16  O   UNL     1      10.673  -1.831  22.231  0.00  0.00    -0.155 OA
ATOM     17  C   UNL     1       7.587  -3.149  22.441  0.00  0.00    +0.157 C 
ATOM     18  C   UNL     1       8.517  -0.447  24.807  0.00  0.00    -0.002 A 
ATOM     19  C   UNL     1       8.067   0.531  25.699  0.00  0.00    +0.013 A 
ENDBRANCH   1   8
BRANCH   6  20
ATOM     20  C   UNL     1       7.796   4.736  24.392  0.00  0.00    +0.143 C 
BRANCH  20  21
ATOM     21  C   UNL     1       8.547   3.754  23.501  0.00  0.00    -0.030 A 
ATOM     22  C   UNL     1       9.924   3.529  23.652  0.00  0.00    +0.005 A 
ATOM     23  C   UNL     1      10.566   2.517  22.927  0.00  0.00    +0.000 A 
ATOM     24  C   UNL     1       9.846   1.728  22.032  0.00  0.00    +0.000 A 
ATOM     25  C   UNL     1       8.495   1.977  21.828  0.00  0.00    +0.000 A 
ATOM     26  C   UNL     1       7.858   2.991  22.543  0.00  0.00    +0.005 A 
ENDBRANCH  20  21
ENDBRANCH   6  20
TORSDOF 3
ENDMDL
MODEL 2
REMARK VINA RESULT:      -6.8      2.162      5.844
REMARK  Name = 
REMARK  4 active torsions:
REMARK  status: ('A' for Active; 'I' for Inactive)
REMARK    1  A    between atoms: C_2  and  C_16
REMARK    2  A    between atoms: N_4  and  C_5
REMARK    3  A    between atoms: C_5  and  C_6
REMARK    4  A    between atoms: N_22  and  C_23
REMARK                            x       y       z     vdW  Elec       q    Type
REMARK                         _______ _______ _______ _____ _____    ______ ____
ROOT
ATOM      1  C   UNL     1       6.481  -1.887  23.980  0.00  0.00    +0.166 C 
ATOM      2  O   UNL     1       6.538  -2.941  24.956  0.00  0.00    -0.361 OA
ATOM      3  C   UNL     1       7.858  -3.231  25.391  0.00  0.00    +0.256 C 
ATOM      4  C   UNL     1       8.990  -3.296  24.349  0.00  0.00    +0.242 C 
ATOM      5  O   UNL     1       9.982  -4.004  24.491  0.00  0.00    -0.273 OA
ATOM      6  N   UNL     1       8.840  -2.356  23.336  0.00  0.00    -0.292 N 
ATOM      7  C   UNL     1       7.484  -2.166  22.837  0.00  0.00    +0.144 C 
ENDROOT
BRANCH   1   8
ATOM      8  C   UNL     1       6.523  -0.500  24.616  0.00  0.00    -0.017 A 
ATOM      9  C   UNL     1       6.806  -0.308  25.980  0.00  0.00    +0.008 A 
ATOM     10  C   UNL     1       6.979   0.964  26.534  0.00  0.00    +0.025 A 
ATOM     11  C   UNL     1       6.883   2.070  25.713  0.00  0.00    +0.055 A 
ATOM     12  N   UNL     1       7.290   3.388  26.078  0.00  0.00    -0.210 N 
ATOM     13  S   UNL     1       6.903   4.435  24.787  0.00  0.00    +0.049 S 
ATOM     14  C   UNL     1       6.692   3.162  23.531  0.00  0.00    +0.225 C 
ATOM     15  O   UNL     1       5.610   5.041  25.053  0.00  0.00    -0.155 OA
ATOM     16  O   UNL     1       8.067   5.240  24.494  0.00  0.00    -0.155 OA
ATOM     17  C   UNL     1       7.080   3.925  27.426  0.00  0.00    +0.157 C 
ATOM     18  C   UNL     1       6.629   1.908  24.346  0.00  0.00    -0.002 A 
ATOM     19  C   UNL     1       6.414   0.637  23.802  0.00  0.00    +0.013 A 
ENDBRANCH   1   8
BRANCH   6  20
ATOM     20  C   UNL     1      10.002  -1.856  22.598  0.00  0.00    +0.143 C 
BRANCH  20  21
ATOM     21  C   UNL     1      10.160  -0.355  22.811  0.00  0.00    -0.030 A 
ATOM     22  C   UNL     1       9.866   0.567  21.795  0.00  0.00    +0.005 A 
ATOM     23  C   UNL     1       9.874   1.943  22.054  0.00  0.00    +0.000 A 
ATOM     24  C   UNL     1      10.190   2.417  23.326  0.00  0.00    +0.000 A 
ATOM     25  C   UNL     1      10.540   1.520  24.327  0.00  0.00    +0.000 A 
ATOM     26  C   UNL     1      10.542   0.150  24.065  0.00  0.00    +0.005 A 
ENDBRANCH  20  21
ENDBRANCH   6  20
TORSDOF 3
ENDMDL
MODEL 3
REMARK VINA RESULT:      -6.8      2.879      6.611
REMARK  Name = 
REMARK  4 active torsions:
REMARK  status: ('A' for Active; 'I' for Inactive)
REMARK    1  A    between atoms: C_2  and  C_16
REMARK    2  A    between atoms: N_4  and  C_5
REMARK    3  A    between atoms: C_5  and  C_6
REMARK    4  A    between atoms: N_22  and  C_23
REMARK                            x       y       z     vdW  Elec       q    Type
REMARK                         _______ _______ _______ _____ _____    ______ ____
ROOT
ATOM      1  C   UNL     1       8.500  -4.751  24.324  0.00  0.00    +0.166 C 
ATOM      2  O   UNL     1       8.277  -5.639  23.215  0.00  0.00    -0.361 OA
ATOM      3  C   UNL     1       6.942  -5.606  22.731  0.00  0.00    +0.256 C 
ATOM      4  C   UNL     1       5.782  -5.581  23.743  0.00  0.00    +0.242 C 
ATOM      5  O   UNL     1       4.677  -6.057  23.497  0.00  0.00    -0.273 OA
ATOM      6  N   UNL     1       6.073  -4.828  24.875  0.00  0.00    -0.292 N 
ATOM      7  C   UNL     1       7.421  -4.974  25.408  0.00  0.00    +0.144 C 
ENDROOT
BRANCH   1   8
ATOM      8  C   UNL     1       8.750  -3.313  23.879  0.00  0.00    -0.017 A 
ATOM      9  C   UNL     1       8.366  -2.842  22.611  0.00  0.00    +0.008 A 
ATOM     10  C   UNL     1       8.471  -1.495  22.252  0.00  0.00    +0.025 A 
ATOM     11  C   UNL     1       8.952  -0.591  23.178  0.00  0.00    +0.055 A 
ATOM     12  N   UNL     1       8.867   0.827  23.048  0.00  0.00    -0.210 N 
ATOM     13  S   UNL     1       9.667   1.528  24.382  0.00  0.00    +0.049 S 
ATOM     14  C   UNL     1       9.683   0.058  25.423  0.00  0.00    +0.225 C 
ATOM     15  O   UNL     1      11.032   1.835  23.995  0.00  0.00    -0.155 OA
ATOM     16  O   UNL     1       8.800   2.535  24.951  0.00  0.00    -0.155 OA
ATOM     17  C   UNL     1       9.048   1.505  21.761  0.00  0.00    +0.157 C 
ATOM     18  C   UNL     1       9.316  -1.027  24.458  0.00  0.00    -0.002 A 
ATOM     19  C   UNL     1       9.251  -2.381  24.800  0.00  0.00    +0.013 A 
ENDBRANCH   1   8
BRANCH   6  20
ATOM     20  C   UNL     1       5.003  -4.210  25.660  0.00  0.00    +0.143 C 
BRANCH  20  21
ATOM     21  C   UNL     1       5.269  -2.720  25.839  0.00  0.00    -0.030 A 
ATOM     22  C   UNL     1       5.494  -2.160  27.106  0.00  0.00    +0.005 A 
ATOM     23  C   UNL     1       5.884  -0.822  27.237  0.00  0.00    +0.000 A 
ATOM     24  C   UNL     1       6.039  -0.021  26.108  0.00  0.00    +0.000 A 
ATOM     25  C   UNL     1       5.763  -0.544  24.850  0.00  0.00    +0.000 A 
ATOM     26  C   UNL     1       5.365  -1.874  24.721  0.00  0.00    +0.005 A 
ENDBRANCH  20  21
ENDBRANCH   6  20
TORSDOF 3
ENDMDL
MODEL 4
REMARK VINA RESULT:      -6.6      3.637      5.853
REMARK  Name = 
REMARK  4 active torsions:
REMARK  status: ('A' for Active; 'I' for Inactive)
REMARK    1  A    between atoms: C_2  and  C_16
REMARK    2  A    between atoms: N_4  and  C_5
REMARK    3  A    between atoms: C_5  and  C_6
REMARK    4  A    between atoms: N_22  and  C_23
REMARK                            x       y       z     vdW  Elec       q    Type
REMARK                         _______ _______ _______ _____ _____    ______ ____
ROOT
ATOM      1  C   UNL     1       9.283  -0.670  25.380  0.00  0.00    +0.166 C 
ATOM      2  O   UNL     1       8.901   0.716  25.378  0.00  0.00    -0.361 OA
ATOM      3  C   UNL     1       7.958   1.035  24.366  0.00  0.00    +0.256 C 
ATOM      4  C   UNL     1       8.148   0.447  22.955  0.00  0.00    +0.242 C 
ATOM      5  O   UNL     1       7.757   1.016  21.941  0.00  0.00    -0.273 OA
ATOM      6  N   UNL     1       8.650  -0.849  22.978  0.00  0.00    -0.292 N 
ATOM      7  C   UNL     1       9.698  -1.110  23.958  0.00  0.00    +0.144 C 
ENDROOT
BRANCH   1   8
ATOM      8  C   UNL     1       8.274  -1.552  26.112  0.00  0.00    -0.017 A 
ATOM      9  C   UNL     1       7.016  -1.074  26.518  0.00  0.00    +0.008 A 
ATOM     10  C   UNL     1       6.040  -1.914  27.065  0.00  0.00    +0.025 A 
ATOM     11  C   UNL     1       6.314  -3.260  27.198  0.00  0.00    +0.055 A 
ATOM     12  N   UNL     1       5.340  -4.261  27.487  0.00  0.00    -0.210 N 
ATOM     13  S   UNL     1       6.149  -5.755  27.644  0.00  0.00    +0.049 S 
ATOM     14  C   UNL     1       7.679  -5.259  26.833  0.00  0.00    +0.225 C 
ATOM     15  O   UNL     1       6.426  -5.988  29.051  0.00  0.00    -0.155 OA
ATOM     16  O   UNL     1       5.451  -6.734  26.841  0.00  0.00    -0.155 OA
ATOM     17  C   UNL     1       4.234  -4.029  28.422  0.00  0.00    +0.157 C 
ATOM     18  C   UNL     1       7.549  -3.768  26.777  0.00  0.00    -0.002 A 
ATOM     19  C   UNL     1       8.538  -2.920  26.270  0.00  0.00    +0.013 A 
ENDBRANCH   1   8
BRANCH   6  20
ATOM     20  C   UNL     1       8.388  -1.775  21.875  0.00  0.00    +0.143 C 
BRANCH  20  21
ATOM     21  C   UNL     1       7.420  -2.867  22.316  0.00  0.00    -0.030 A 
ATOM     22  C   UNL     1       7.846  -4.189  22.516  0.00  0.00    +0.005 A 
ATOM     23  C   UNL     1       6.979  -5.143  23.063  0.00  0.00    +0.000 A 
ATOM     24  C   UNL     1       5.673  -4.794  23.404  0.00  0.00    +0.000 A 
ATOM     25  C   UNL     1       5.220  -3.504  23.158  0.00  0.00    +0.000 A 
ATOM     26  C   UNL     1       6.080  -2.557  22.603  0.00  0.00    +0.005 A 
ENDBRANCH  20  21
ENDBRANCH   6  20
TORSDOF 3
ENDMDL
MODEL 5
REMARK VINA RESULT:      -6.6      2.311      4.630
REMARK  Name = 
REMARK  4 active torsions:
REMARK  status: ('A' for Active; 'I' for Inactive)
REMARK    1  A    between atoms: C_2  and  C_16
REMARK    2  A    between atoms: N_4  and  C_5
REMARK    3  A    between atoms: C_5  and  C_6
REMARK    4  A    between atoms: N_22  and  C_23
REMARK                            x       y       z     vdW  Elec       q    Type
REMARK                         _______ _______ _______ _____ _____    ______ ____
ROOT
ATOM      1  C   UNL     1       9.056   0.934  21.705  0.00  0.00    +0.166 C 
ATOM      2  O   UNL     1      10.279   1.666  21.889  0.00  0.00    -0.361 OA
ATOM      3  C   UNL     1      10.359   2.317  23.149  0.00  0.00    +0.256 C 
ATOM      4  C   UNL     1       9.117   3.049  23.690  0.00  0.00    +0.242 C 
ATOM      5  O   UNL     1       9.192   4.022  24.435  0.00  0.00    -0.273 OA
ATOM      6  N   UNL     1       7.931   2.394  23.380  0.00  0.00    -0.292 N 
ATOM      7  C   UNL     1       7.843   1.834  22.037  0.00  0.00    +0.144 C 
ENDROOT
BRANCH   1   8
ATOM      8  C   UNL     1       9.096  -0.444  22.359  0.00  0.00    -0.017 A 
ATOM      9  C   UNL     1       9.935  -0.733  23.450  0.00  0.00    +0.008 A 
ATOM     10  C   UNL     1       9.875  -1.950  24.135  0.00  0.00    +0.025 A 
ATOM     11  C   UNL     1       8.951  -2.897  23.739  0.00  0.00    +0.055 A 
ATOM     12  N   UNL     1       8.601  -4.054  24.495  0.00  0.00    -0.210 N 
ATOM     13  S   UNL     1       7.493  -4.969  23.575  0.00  0.00    +0.049 S 
ATOM     14  C   UNL     1       7.031  -3.661  22.427  0.00  0.00    +0.225 C 
ATOM     15  O   UNL     1       8.226  -5.988  22.845  0.00  0.00    -0.155 OA
ATOM     16  O   UNL     1       6.373  -5.309  24.425  0.00  0.00    -0.155 OA
ATOM     17  C   UNL     1       9.594  -4.822  25.254  0.00  0.00    +0.157 C 
ATOM     18  C   UNL     1       8.085  -2.625  22.674  0.00  0.00    -0.002 A 
ATOM     19  C   UNL     1       8.175  -1.425  21.962  0.00  0.00    +0.013 A 
ENDBRANCH   1   8
BRANCH   6  20
ATOM     20  C   UNL     1       6.741   2.559  24.218  0.00  0.00    +0.143 C 
BRANCH  20  21
ATOM     21  C   UNL     1       6.525   1.322  25.083  0.00  0.00    -0.030 A 
ATOM     22  C   UNL     1       5.985   0.141  24.554  0.00  0.00    +0.005 A 
ATOM     23  C   UNL     1       5.933  -1.028  25.324  0.00  0.00    +0.000 A 
ATOM     24  C   UNL     1       6.405  -1.028  26.635  0.00  0.00    +0.000 A 
ATOM     25  C   UNL     1       6.890   0.149  27.192  0.00  0.00    +0.000 A 
ATOM     26  C   UNL     1       6.932   1.315  26.428  0.00  0.00    +0.005 A 
ENDBRANCH  20  21
ENDBRANCH   6  20
TORSDOF 3
ENDMDL
MODEL 6
REMARK VINA RESULT:      -6.6      2.143      2.695
REMARK  Name = 
REMARK  4 active torsions:
REMARK  status: ('A' for Active; 'I' for Inactive)
REMARK    1  A    between atoms: C_2  and  C_16
REMARK    2  A    between atoms: N_4  and  C_5
REMARK    3  A    between atoms: C_5  and  C_6
REMARK    4  A    between atoms: N_22  and  C_23
REMARK                            x       y       z     vdW  Elec       q    Type
REMARK                         _______ _______ _______ _____ _____    ______ ____
ROOT
ATOM      1  C   UNL     1       6.246   1.062  26.217  0.00  0.00    +0.166 C 
ATOM      2  O   UNL     1       5.126   1.708  25.588  0.00  0.00    -0.361 OA
ATOM      3  C   UNL     1       5.405   2.153  24.269  0.00  0.00    +0.256 C 
ATOM      4  C   UNL     1       6.752   2.841  23.982  0.00  0.00    +0.242 C 
ATOM      5  O   UNL     1       6.893   3.683  23.101  0.00  0.00    -0.273 OA
ATOM      6  N   UNL     1       7.801   2.289  24.708  0.00  0.00    -0.292 N 
ATOM      7  C   UNL     1       7.507   1.947  26.095  0.00  0.00    +0.144 C 
ENDROOT
BRANCH   1   8
ATOM      8  C   UNL     1       6.383  -0.402  25.806  0.00  0.00    -0.017 A 
ATOM      9  C   UNL     1       5.699  -0.937  24.700  0.00  0.00    +0.008 A 
ATOM     10  C   UNL     1       5.927  -2.238  24.240  0.00  0.00    +0.025 A 
ATOM     11  C   UNL     1       6.866  -3.020  24.884  0.00  0.00    +0.055 A 
ATOM     12  N   UNL     1       7.385  -4.247  24.375  0.00  0.00    -0.210 N 
ATOM     13  S   UNL     1       8.444  -4.897  25.544  0.00  0.00    +0.049 S 
ATOM     14  C   UNL     1       8.672  -3.385  26.495  0.00  0.00    +0.225 C 
ATOM     15  O   UNL     1       7.708  -5.848  26.359  0.00  0.00    -0.155 OA
ATOM     16  O   UNL     1       9.676  -5.265  24.884  0.00  0.00    -0.155 OA
ATOM     17  C   UNL     1       6.546  -5.214  23.660  0.00  0.00    +0.157 C 
ATOM     18  C   UNL     1       7.581  -2.503  25.971  0.00  0.00    -0.002 A 
ATOM     19  C   UNL     1       7.321  -1.217  26.455  0.00  0.00    +0.013 A 
ENDBRANCH   1   8
BRANCH   6  20
ATOM     20  C   UNL     1       9.178   2.370  24.217  0.00  0.00    +0.143 C 
BRANCH  20  21
ATOM     21  C   UNL     1       9.568   1.074  23.514  0.00  0.00    -0.030 A 
ATOM     22  C   UNL     1       9.991  -0.054  24.233  0.00  0.00    +0.005 A 
ATOM     23  C   UNL     1      10.201  -1.277  23.585  0.00  0.00    +0.000 A 
ATOM     24  C   UNL     1      10.006  -1.386  22.209  0.00  0.00    +0.000 A 
ATOM     25  C   UNL     1       9.644  -0.264  21.474  0.00  0.00    +0.000 A 
ATOM     26  C   UNL     1       9.445   0.957  22.120  0.00  0.00    +0.005 A 
ENDBRANCH  20  21
ENDBRANCH   6  20
TORSDOF 3
ENDMDL
MODEL 7
REMARK VINA RESULT:      -6.4      3.806      7.061
REMARK  Name = 
REMARK  4 active torsions:
REMARK  status: ('A' for Active; 'I' for Inactive)
REMARK    1  A    between atoms: C_2  and  C_16
REMARK    2  A    between atoms: N_4  and  C_5
REMARK    3  A    between atoms: C_5  and  C_6
REMARK    4  A    between atoms: N_22  and  C_23
REMARK                            x       y       z     vdW  Elec       q    Type
REMARK                         _______ _______ _______ _____ _____    ______ ____
ROOT
ATOM      1  C   UNL     1       4.455  -3.206  27.012  0.00  0.00    +0.166 C 
ATOM      2  O   UNL     1       4.773  -3.599  28.358  0.00  0.00    -0.361 OA
ATOM      3  C   UNL     1       5.499  -4.817  28.429  0.00  0.00    +0.256 C 
ATOM      4  C   UNL     1       5.075  -5.992  27.529  0.00  0.00    +0.242 C 
ATOM      5  O   UNL     1       5.248  -7.166  27.846  0.00  0.00    -0.273 OA
ATOM      6  N   UNL     1       4.639  -5.578  26.276  0.00  0.00    -0.292 N 
ATOM      7  C   UNL     1       3.802  -4.384  26.254  0.00  0.00    +0.144 C 
ENDROOT
BRANCH   1   8
ATOM      8  C   UNL     1       5.617  -2.496  26.321  0.00  0.00    -0.017 A 
ATOM      9  C   UNL     1       6.855  -2.291  26.956  0.00  0.00    +0.008 A 
ATOM     10  C   UNL     1       7.961  -1.765  26.281  0.00  0.00    +0.025 A 
ATOM     11  C   UNL     1       7.840  -1.450  24.942  0.00  0.00    +0.055 A 
ATOM     12  N   UNL     1       8.935  -1.160  24.076  0.00  0.00    -0.210 N 
ATOM     13  S   UNL     1       8.303  -0.745  22.546  0.00  0.00    +0.049 S 
ATOM     14  C   UNL     1       6.656  -1.430  22.800  0.00  0.00    +0.225 C 
ATOM     15  O   UNL     1       8.194   0.701  22.465  0.00  0.00    -0.155 OA
ATOM     16  O   UNL     1       9.013  -1.506  21.542  0.00  0.00    -0.155 OA
ATOM     17  C   UNL     1      10.100  -0.388  24.520  0.00  0.00    +0.157 C 
ATOM     18  C   UNL     1       6.628  -1.670  24.278  0.00  0.00    -0.002 A 
ATOM     19  C   UNL     1       5.511  -2.156  24.965  0.00  0.00    +0.013 A 
ENDBRANCH   1   8
BRANCH   6  20
ATOM     20  C   UNL     1       4.729  -6.469  25.118  0.00  0.00    +0.143 C 
BRANCH  20  21
ATOM     21  C   UNL     1       5.612  -5.850  24.040  0.00  0.00    -0.030 A 
ATOM     22  C   UNL     1       6.907  -5.393  24.324  0.00  0.00    +0.005 A 
ATOM     23  C   UNL     1       7.756  -4.966  23.294  0.00  0.00    +0.000 A 
ATOM     24  C   UNL     1       7.317  -4.977  21.972  0.00  0.00    +0.000 A 
ATOM     25  C   UNL     1       6.017  -5.372  21.681  0.00  0.00    +0.000 A 
ATOM     26  C   UNL     1       5.170  -5.787  22.708  0.00  0.00    +0.005 A 
ENDBRANCH  20  21
ENDBRANCH   6  20
TORSDOF 3
ENDMDL
MODEL 8
REMARK VINA RESULT:      -6.3      2.591      6.673
REMARK  Name = 
REMARK  4 active torsions:
REMARK  status: ('A' for Active; 'I' for Inactive)
REMARK    1  A    between atoms: C_2  and  C_16
REMARK    2  A    between atoms: N_4  and  C_5
REMARK    3  A    between atoms: C_5  and  C_6
REMARK    4  A    between atoms: N_22  and  C_23
REMARK                            x       y       z     vdW  Elec       q    Type
REMARK                         _______ _______ _______ _____ _____    ______ ____
ROOT
ATOM      1  C   UNL     1       9.873  -1.386  22.660  0.00  0.00    +0.166 C 
ATOM      2  O   UNL     1       9.035  -1.926  21.624  0.00  0.00    -0.361 OA
ATOM      3  C   UNL     1       7.843  -2.519  22.120  0.00  0.00    +0.256 C 
ATOM      4  C   UNL     1       7.919  -3.407  23.376  0.00  0.00    +0.242 C 
ATOM      5  O   UNL     1       7.141  -4.335  23.579  0.00  0.00    -0.273 OA
ATOM      6  N   UNL     1       8.839  -2.942  24.307  0.00  0.00    -0.292 N 
ATOM      7  C   UNL     1      10.097  -2.442  23.766  0.00  0.00    +0.144 C 
ENDROOT
BRANCH   1   8
ATOM      8  C   UNL     1       9.426   0.003  23.108  0.00  0.00    -0.017 A 
ATOM      9  C   UNL     1      10.101   0.722  24.110  0.00  0.00    +0.008 A 
ATOM     10  C   UNL     1       9.778   2.045  24.425  0.00  0.00    +0.025 A 
ATOM     11  C   UNL     1       8.772   2.675  23.720  0.00  0.00    +0.055 A 
ATOM     12  N   UNL     1       8.517   4.078  23.749  0.00  0.00    -0.210 N 
ATOM     13  S   UNL     1       7.132   4.382  22.799  0.00  0.00    +0.049 S 
ATOM     14  C   UNL     1       7.134   2.817  21.906  0.00  0.00    +0.225 C 
ATOM     15  O   UNL     1       5.970   4.416  23.669  0.00  0.00    -0.155 OA
ATOM     16  O   UNL     1       7.432   5.473  21.899  0.00  0.00    -0.155 OA
ATOM     17  C   UNL     1       8.638   4.869  24.978  0.00  0.00    +0.157 C 
ATOM     18  C   UNL     1       8.101   1.992  22.698  0.00  0.00    -0.002 A 
ATOM     19  C   UNL     1       8.397   0.656  22.413  0.00  0.00    +0.013 A 
ENDBRANCH   1   8
BRANCH   6  20
ATOM     20  C   UNL     1       8.689  -3.252  25.730  0.00  0.00    +0.143 C 
BRANCH  20  21
ATOM     21  C   UNL     1       7.859  -2.178  26.423  0.00  0.00    -0.030 A 
ATOM     22  C   UNL     1       8.413  -0.942  26.789  0.00  0.00    +0.005 A 
ATOM     23  C   UNL     1       7.601   0.085  27.288  0.00  0.00    +0.000 A 
ATOM     24  C   UNL     1       6.231  -0.114  27.442  0.00  0.00    +0.000 A 
ATOM     25  C   UNL     1       5.676  -1.352  27.139  0.00  0.00    +0.000 A 
ATOM     26  C   UNL     1       6.487  -2.377  26.652  0.00  0.00    +0.005 A 
ENDBRANCH  20  21
ENDBRANCH   6  20
TORSDOF 3
ENDMDL
MODEL 9
REMARK VINA RESULT:      -6.3      3.412      6.283
REMARK  Name = 
REMARK  4 active torsions:
REMARK  status: ('A' for Active; 'I' for Inactive)
REMARK    1  A    between atoms: C_2  and  C_16
REMARK    2  A    between atoms: N_4  and  C_5
REMARK    3  A    between atoms: C_5  and  C_6
REMARK    4  A    between atoms: N_22  and  C_23
REMARK                            x       y       z     vdW  Elec       q    Type
REMARK                         _______ _______ _______ _____ _____    ______ ____
ROOT
ATOM      1  C   UNL     1       4.345  -1.788  25.903  0.00  0.00    +0.166 C 
ATOM      2  O   UNL     1       3.958  -1.316  27.205  0.00  0.00    -0.361 OA
ATOM      3  C   UNL     1       4.505  -2.086  28.265  0.00  0.00    +0.256 C 
ATOM      4  C   UNL     1       4.515  -3.621  28.146  0.00  0.00    +0.242 C 
ATOM      5  O   UNL     1       4.461  -4.362  29.122  0.00  0.00    -0.273 OA
ATOM      6  N   UNL     1       4.754  -4.056  26.848  0.00  0.00    -0.292 N 
ATOM      7  C   UNL     1       4.086  -3.308  25.790  0.00  0.00    +0.144 C 
ENDROOT
BRANCH   1   8
ATOM      8  C   UNL     1       5.726  -1.288  25.488  0.00  0.00    -0.017 A 
ATOM      9  C   UNL     1       6.625  -0.716  26.406  0.00  0.00    +0.008 A 
ATOM     10  C   UNL     1       7.937  -0.383  26.056  0.00  0.00    +0.025 A 
ATOM     11  C   UNL     1       8.373  -0.638  24.771  0.00  0.00    +0.055 A 
ATOM     12  N   UNL     1       9.736  -0.597  24.353  0.00  0.00    -0.210 N 
ATOM     13  S   UNL     1       9.782  -0.891  22.673  0.00  0.00    +0.049 S 
ATOM     14  C   UNL     1       8.130  -1.593  22.530  0.00  0.00    +0.225 C 
ATOM     15  O   UNL     1       9.803   0.385  21.980  0.00  0.00    -0.155 OA
ATOM     16  O   UNL     1      10.781  -1.904  22.418  0.00  0.00    -0.155 OA
ATOM     17  C   UNL     1      10.677   0.409  24.856  0.00  0.00    +0.157 C 
ATOM     18  C   UNL     1       7.508  -1.231  23.843  0.00  0.00    -0.002 A 
ATOM     19  C   UNL     1       6.183  -1.524  24.183  0.00  0.00    +0.013 A 
ENDBRANCH   1   8
BRANCH   6  20
ATOM     20  C   UNL     1       5.351  -5.369  26.594  0.00  0.00    +0.143 C 
BRANCH  20  21
ATOM     21  C   UNL     1       6.751  -5.212  26.012  0.00  0.00    -0.030 A 
ATOM     22  C   UNL     1       6.979  -5.239  24.628  0.00  0.00    +0.005 A 
ATOM     23  C   UNL     1       8.245  -4.945  24.107  0.00  0.00    +0.000 A 
ATOM     24  C   UNL     1       9.303  -4.637  24.960  0.00  0.00    +0.000 A 
ATOM     25  C   UNL     1       9.107  -4.663  26.336  0.00  0.00    +0.000 A 
ATOM     26  C   UNL     1       7.848  -4.966  26.854  0.00  0.00    +0.005 A 
ENDBRANCH  20  21
ENDBRANCH   6  20
TORSDOF 3
ENDMDL
