MODEL 1
REMARK VINA RESULT:      -7.0      0.000      0.000
REMARK  Name = 
REMARK  17 active torsions:
REMARK  status: ('A' for Active; 'I' for Inactive)
REMARK    1  A    between atoms: C_1  and  O_2
REMARK    2  A    between atoms: O_2  and  C_3
REMARK    3  A    between atoms: C_3  and  C_5
REMARK    4  A    between atoms: C_7  and  C_8
REMARK    5  A    between atoms: C_8  and  C_9
REMARK    6  A    between atoms: C_9  and  N_11
REMARK    7  A    between atoms: C_9  and  C_15
REMARK    8  A    between atoms: C_12  and  C_13
REMARK    9  A    between atoms: N_17  and  C_18
REMARK   10  A    between atoms: N_24  and  C_25
REMARK   11  A    between atoms: C_25  and  C_26
REMARK   12  A    between atoms: C_29  and  C_32
REMARK   13  A    between atoms: C_42  and  C_43
REMARK   14  A    between atoms: C_43  and  C_45
REMARK   15  A    between atoms: C_43  and  C_48
REMARK   16  A    between atoms: C_45  and  O_46
REMARK   17  A    between atoms: C_48  and  O_49
REMARK                            x       y       z     vdW  Elec       q    Type
REMARK                         _______ _______ _______ _____ _____    ______ ____
ROOT
ATOM      1  C   UNL     1       5.614   0.631  27.074  0.00  0.00    +0.163 C 
ENDROOT
BRANCH   1   2
ATOM      2  N   UNL     1       5.333   0.382  28.494  0.00  0.00    -0.304 N 
ATOM      3  H   UNL     1       6.145   0.182  29.064  0.00  0.00    +0.149 HD
ATOM      4  C   UNL     1       4.111   0.044  29.026  0.00  0.00    +0.211 C 
ATOM      5  O   UNL     1       3.078  -0.009  28.378  0.00  0.00    -0.276 OA
ATOM      6  C   UNL     1       4.189  -0.328  30.485  0.00  0.00    +0.109 C 
ENDBRANCH   1   2
BRANCH   1   7
ATOM      7  C   UNL     1       6.365   1.964  26.859  0.00  0.00    +0.234 C 
ATOM      8  N   UNL     1       6.157   2.597  25.652  0.00  0.00    -0.302 N 
ATOM      9  H   UNL     1       5.401   2.280  25.051  0.00  0.00    +0.150 HD
ATOM     10  O   UNL     1       7.009   2.477  27.772  0.00  0.00    -0.274 OA
BRANCH   8  11
ATOM     11  C   UNL     1       6.743   3.907  25.370  0.00  0.00    +0.159 C 
ATOM     12  C   UNL     1       8.188   3.785  24.856  0.00  0.00    +0.236 C 
ATOM     13  O   UNL     1       9.020   4.659  25.085  0.00  0.00    -0.274 OA
ATOM     14  N   UNL     1       8.335   2.842  23.831  0.00  0.00    -0.296 N 
ATOM     15  C   UNL     1       8.323   3.395  22.482  0.00  0.00    +0.108 C 
ATOM     16  C   UNL     1       7.256   4.477  22.246  0.00  0.00    +0.019 C 
ATOM     17  C   UNL     1       5.908   4.211  22.928  0.00  0.00    +0.004 C 
ATOM     18  C   UNL     1       5.872   4.702  24.385  0.00  0.00    +0.032 C 
BRANCH  14  19
ATOM     19  C   UNL     1       9.204   1.672  24.061  0.00  0.00    +0.143 C 
BRANCH  19  20
ATOM     20  C   UNL     1       8.684   0.326  23.597  0.00  0.00    -0.030 A 
ATOM     21  C   UNL     1       9.440  -0.853  23.682  0.00  0.00    +0.006 A 
ATOM     22  C   UNL     1       8.889  -2.102  23.317  0.00  0.00    +0.009 A 
ATOM     23  C   UNL     1       7.556  -2.217  22.871  0.00  0.00    -0.018 A 
ATOM     24  C   UNL     1       6.861  -1.012  22.707  0.00  0.00    +0.009 A 
ATOM     25  C   UNL     1       7.419   0.227  23.028  0.00  0.00    +0.006 A 
BRANCH  23  26
ATOM     26  C   UNL     1       6.864  -3.519  22.645  0.00  0.00    -0.018 A 
ATOM     27  C   UNL     1       7.562  -4.716  22.395  0.00  0.00    +0.008 A 
ATOM     28  C   UNL     1       6.894  -5.952  22.319  0.00  0.00    +0.001 A 
ATOM     29  C   UNL     1       5.518  -6.022  22.494  0.00  0.00    +0.000 A 
ATOM     30  C   UNL     1       4.798  -4.860  22.721  0.00  0.00    +0.001 A 
ATOM     31  C   UNL     1       5.461  -3.630  22.774  0.00  0.00    +0.008 A 
ENDBRANCH  23  26
ENDBRANCH  19  20
ENDBRANCH  14  19
ENDBRANCH   8  11
ENDBRANCH   1   7
BRANCH   1  32
ATOM     32  C   UNL     1       6.343  -0.469  26.290  0.00  0.00    +0.067 C 
BRANCH  32  37
ATOM     33  C   UNL     1       6.335  -4.252  26.714  0.00  0.00    +0.067 A 
ATOM     34  C   UNL     1       4.999  -4.618  26.466  0.00  0.00    +0.025 A 
ATOM     35  C   UNL     1       4.114  -3.590  26.070  0.00  0.00    +0.009 A 
ATOM     36  C   UNL     1       4.524  -2.249  26.003  0.00  0.00    +0.004 A 
ATOM     37  C   UNL     1       5.811  -1.881  26.396  0.00  0.00    -0.044 A 
ATOM     38  C   UNL     1       6.701  -2.895  26.755  0.00  0.00    +0.019 A 
BRANCH  33  39
ATOM     39  C   UNL     1       7.425  -5.252  26.815  0.00  0.00    +0.339 C 
ATOM     40  O   UNL     1       7.621  -5.935  27.801  0.00  0.00    -0.245 OA
BRANCH  39  42
ATOM     41  C   UNL     1       9.444  -5.185  25.548  0.00  0.00    +0.280 C 
ATOM     42  O   UNL     1       8.025  -5.327  25.606  0.00  0.00    -0.464 OA
ENDBRANCH  39  42
ENDBRANCH  33  39
BRANCH  34  43
ATOM     43  C   UNL     1       4.448  -6.061  26.597  0.00  0.00    +0.327 C 
ATOM     44  F   UNL     1       5.234  -6.902  25.828  0.00  0.00    -0.212 F 
BRANCH  43  45
ATOM     45  C   UNL     1       3.021  -6.201  26.024  0.00  0.00    +0.358 C 
ATOM     46  O   UNL     1       2.806  -6.458  24.841  0.00  0.00    -0.246 OA
BRANCH  45  47
ATOM     47  O   UNL     1       1.992  -5.866  26.847  0.00  0.00    -0.478 OA
ATOM     48  H   UNL     1       1.440  -5.110  26.563  0.00  0.00    +0.295 HD
ENDBRANCH  45  47
ENDBRANCH  43  45
BRANCH  43  49
ATOM     49  C   UNL     1       4.540  -6.576  28.054  0.00  0.00    +0.358 C 
ATOM     50  O   UNL     1       3.963  -6.025  28.997  0.00  0.00    -0.246 OA
BRANCH  49  51
ATOM     51  O   UNL     1       5.382  -7.613  28.299  0.00  0.00    -0.478 OA
ATOM     52  H   UNL     1       4.937  -8.478  28.483  0.00  0.00    +0.295 HD
ENDBRANCH  49  51
ENDBRANCH  43  49
ENDBRANCH  34  43
ENDBRANCH  32  37
ENDBRANCH   1  32
TORSDOF 15
ENDMDL
MODEL 2
REMARK VINA RESULT:      -6.8      1.298      2.355
REMARK  Name = 
REMARK  17 active torsions:
REMARK  status: ('A' for Active; 'I' for Inactive)
REMARK    1  A    between atoms: C_1  and  O_2
REMARK    2  A    between atoms: O_2  and  C_3
REMARK    3  A    between atoms: C_3  and  C_5
REMARK    4  A    between atoms: C_7  and  C_8
REMARK    5  A    between atoms: C_8  and  C_9
REMARK    6  A    between atoms: C_9  and  N_11
REMARK    7  A    between atoms: C_9  and  C_15
REMARK    8  A    between atoms: C_12  and  C_13
REMARK    9  A    between atoms: N_17  and  C_18
REMARK   10  A    between atoms: N_24  and  C_25
REMARK   11  A    between atoms: C_25  and  C_26
REMARK   12  A    between atoms: C_29  and  C_32
REMARK   13  A    between atoms: C_42  and  C_43
REMARK   14  A    between atoms: C_43  and  C_45
REMARK   15  A    between atoms: C_43  and  C_48
REMARK   16  A    between atoms: C_45  and  O_46
REMARK   17  A    between atoms: C_48  and  O_49
REMARK                            x       y       z     vdW  Elec       q    Type
REMARK                         _______ _______ _______ _____ _____    ______ ____
ROOT
ATOM      1  C   UNL     1       4.527   1.049  26.289  0.00  0.00    +0.163 C 
ENDROOT
BRANCH   1   2
ATOM      2  N   UNL     1       4.043   0.543  27.581  0.00  0.00    -0.304 N 
ATOM      3  H   UNL     1       4.737   0.510  28.317  0.00  0.00    +0.149 HD
ATOM      4  C   UNL     1       2.902  -0.197  27.779  0.00  0.00    +0.211 C 
ATOM      5  O   UNL     1       2.097  -0.457  26.898  0.00  0.00    -0.276 OA
ATOM      6  C   UNL     1       2.781  -0.722  29.187  0.00  0.00    +0.109 C 
ENDBRANCH   1   2
BRANCH   1   7
ATOM      7  C   UNL     1       4.952   2.532  26.372  0.00  0.00    +0.234 C 
ATOM      8  N   UNL     1       5.961   2.929  25.520  0.00  0.00    -0.302 N 
ATOM      9  H   UNL     1       6.243   2.309  24.765  0.00  0.00    +0.150 HD
ATOM     10  O   UNL     1       4.331   3.326  27.075  0.00  0.00    -0.274 OA
BRANCH   8  11
ATOM     11  C   UNL     1       6.387   4.326  25.445  0.00  0.00    +0.159 C 
ATOM     12  C   UNL     1       7.910   4.448  25.266  0.00  0.00    +0.236 C 
ATOM     13  O   UNL     1       8.528   5.406  25.722  0.00  0.00    -0.274 OA
ATOM     14  N   UNL     1       8.418   3.623  24.256  0.00  0.00    -0.296 N 
ATOM     15  C   UNL     1       8.614   4.279  22.969  0.00  0.00    +0.108 C 
ATOM     16  C   UNL     1       7.471   5.219  22.551  0.00  0.00    +0.019 C 
ATOM     17  C   UNL     1       6.065   4.715  22.896  0.00  0.00    +0.004 C 
ATOM     18  C   UNL     1       5.639   5.073  24.329  0.00  0.00    +0.032 C 
BRANCH  14  19
ATOM     19  C   UNL     1       9.385   2.569  24.618  0.00  0.00    +0.143 C 
BRANCH  19  20
ATOM     20  C   UNL     1       9.065   1.156  24.170  0.00  0.00    -0.030 A 
ATOM     21  C   UNL     1       9.621   0.020  24.776  0.00  0.00    +0.006 A 
ATOM     22  C   UNL     1       9.233  -1.280  24.385  0.00  0.00    +0.009 A 
ATOM     23  C   UNL     1       8.260  -1.490  23.386  0.00  0.00    -0.018 A 
ATOM     24  C   UNL     1       7.795  -0.340  22.736  0.00  0.00    +0.009 A 
ATOM     25  C   UNL     1       8.209   0.945  23.094  0.00  0.00    +0.006 A 
BRANCH  23  26
ATOM     26  C   UNL     1       7.678  -2.824  23.058  0.00  0.00    -0.018 A 
ATOM     27  C   UNL     1       6.684  -2.997  22.076  0.00  0.00    +0.008 A 
ATOM     28  C   UNL     1       6.249  -4.278  21.690  0.00  0.00    +0.001 A 
ATOM     29  C   UNL     1       6.799  -5.414  22.273  0.00  0.00    +0.000 A 
ATOM     30  C   UNL     1       7.764  -5.278  23.258  0.00  0.00    +0.001 A 
ATOM     31  C   UNL     1       8.179  -4.003  23.654  0.00  0.00    +0.008 A 
ENDBRANCH  23  26
ENDBRANCH  19  20
ENDBRANCH  14  19
ENDBRANCH   8  11
ENDBRANCH   1   7
BRANCH   1  32
ATOM     32  C   UNL     1       5.645   0.261  25.591  0.00  0.00    +0.067 C 
BRANCH  32  37
ATOM     33  C   UNL     1       4.655  -3.413  25.496  0.00  0.00    +0.067 A 
ATOM     34  C   UNL     1       5.604  -4.041  26.324  0.00  0.00    +0.025 A 
ATOM     35  C   UNL     1       6.532  -3.205  26.986  0.00  0.00    +0.009 A 
ATOM     36  C   UNL     1       6.562  -1.819  26.769  0.00  0.00    +0.004 A 
ATOM     37  C   UNL     1       5.713  -1.230  25.831  0.00  0.00    -0.044 A 
ATOM     38  C   UNL     1       4.771  -2.044  25.199  0.00  0.00    +0.019 A 
BRANCH  33  39
ATOM     39  C   UNL     1       3.443  -4.113  25.007  0.00  0.00    +0.339 C 
ATOM     40  O   UNL     1       2.395  -4.152  25.620  0.00  0.00    -0.245 OA
BRANCH  39  42
ATOM     41  C   UNL     1       3.018  -5.717  23.294  0.00  0.00    +0.280 C 
ATOM     42  O   UNL     1       3.703  -4.554  23.755  0.00  0.00    -0.464 OA
ENDBRANCH  39  42
ENDBRANCH  33  39
BRANCH  34  43
ATOM     43  C   UNL     1       5.690  -5.571  26.552  0.00  0.00    +0.327 C 
ATOM     44  F   UNL     1       5.804  -6.193  25.320  0.00  0.00    -0.212 F 
BRANCH  43  45
ATOM     45  C   UNL     1       4.401  -6.146  27.180  0.00  0.00    +0.358 C 
ATOM     46  O   UNL     1       3.780  -7.081  26.677  0.00  0.00    -0.246 OA
BRANCH  45  47
ATOM     47  O   UNL     1       3.876  -5.470  28.237  0.00  0.00    -0.478 OA
ATOM     48  H   UNL     1       3.691  -4.521  28.093  0.00  0.00    +0.295 HD
ENDBRANCH  45  47
ENDBRANCH  43  45
BRANCH  43  49
ATOM     49  C   UNL     1       6.951  -5.958  27.364  0.00  0.00    +0.358 C 
ATOM     50  O   UNL     1       6.923  -6.182  28.577  0.00  0.00    -0.246 OA
BRANCH  49  51
ATOM     51  O   UNL     1       8.143  -5.937  26.714  0.00  0.00    -0.478 OA
ATOM     52  H   UNL     1       8.532  -6.827  26.525  0.00  0.00    +0.295 HD
ENDBRANCH  49  51
ENDBRANCH  43  49
ENDBRANCH  34  43
ENDBRANCH  32  37
ENDBRANCH   1  32
TORSDOF 15
ENDMDL
MODEL 3
REMARK VINA RESULT:      -6.7      1.915      3.005
REMARK  Name = 
REMARK  17 active torsions:
REMARK  status: ('A' for Active; 'I' for Inactive)
REMARK    1  A    between atoms: C_1  and  O_2
REMARK    2  A    between atoms: O_2  and  C_3
REMARK    3  A    between atoms: C_3  and  C_5
REMARK    4  A    between atoms: C_7  and  C_8
REMARK    5  A    between atoms: C_8  and  C_9
REMARK    6  A    between atoms: C_9  and  N_11
REMARK    7  A    between atoms: C_9  and  C_15
REMARK    8  A    between atoms: C_12  and  C_13
REMARK    9  A    between atoms: N_17  and  C_18
REMARK   10  A    between atoms: N_24  and  C_25
REMARK   11  A    between atoms: C_25  and  C_26
REMARK   12  A    between atoms: C_29  and  C_32
REMARK   13  A    between atoms: C_42  and  C_43
REMARK   14  A    between atoms: C_43  and  C_45
REMARK   15  A    between atoms: C_43  and  C_48
REMARK   16  A    between atoms: C_45  and  O_46
REMARK   17  A    between atoms: C_48  and  O_49
REMARK                            x       y       z     vdW  Elec       q    Type
REMARK                         _______ _______ _______ _____ _____    ______ ____
ROOT
ATOM      1  C   UNL     1       5.771   0.079  26.617  0.00  0.00    +0.163 C 
ENDROOT
BRANCH   1   2
ATOM      2  N   UNL     1       5.524   0.074  28.065  0.00  0.00    -0.304 N 
ATOM      3  H   UNL     1       5.942  -0.699  28.569  0.00  0.00    +0.149 HD
ATOM      4  C   UNL     1       4.530   0.765  28.714  0.00  0.00    +0.211 C 
ATOM      5  O   UNL     1       3.770   1.545  28.162  0.00  0.00    -0.276 OA
ATOM      6  C   UNL     1       4.422   0.404  30.175  0.00  0.00    +0.109 C 
ENDBRANCH   1   2
BRANCH   1   7
ATOM      7  C   UNL     1       7.033   0.892  26.249  0.00  0.00    +0.234 C 
ATOM      8  N   UNL     1       7.832   0.366  25.257  0.00  0.00    -0.302 N 
ATOM      9  H   UNL     1       7.479  -0.401  24.691  0.00  0.00    +0.150 HD
ATOM     10  O   UNL     1       7.229   2.003  26.738  0.00  0.00    -0.274 OA
BRANCH   8  11
ATOM     11  C   UNL     1       9.003   1.090  24.762  0.00  0.00    +0.159 C 
ATOM     12  C   UNL     1      10.121   0.129  24.321  0.00  0.00    +0.236 C 
ATOM     13  O   UNL     1      11.304   0.444  24.415  0.00  0.00    -0.274 OA
ATOM     14  N   UNL     1       9.670  -0.902  23.488  0.00  0.00    -0.296 N 
ATOM     15  C   UNL     1       9.858  -0.664  22.061  0.00  0.00    +0.108 C 
ATOM     16  C   UNL     1       9.516   0.763  21.603  0.00  0.00    +0.019 C 
ATOM     17  C   UNL     1       8.286   1.380  22.281  0.00  0.00    +0.004 C 
ATOM     18  C   UNL     1       8.621   2.050  23.624  0.00  0.00    +0.032 C 
BRANCH  14  19
ATOM     19  C   UNL     1       9.798  -2.298  23.950  0.00  0.00    +0.143 C 
BRANCH  19  20
ATOM     20  C   UNL     1       8.580  -3.187  23.800  0.00  0.00    -0.030 A 
ATOM     21  C   UNL     1       8.471  -4.441  24.419  0.00  0.00    +0.006 A 
ATOM     22  C   UNL     1       7.286  -5.203  24.323  0.00  0.00    +0.009 A 
ATOM     23  C   UNL     1       6.160  -4.728  23.619  0.00  0.00    -0.018 A 
ATOM     24  C   UNL     1       6.333  -3.519  22.934  0.00  0.00    +0.009 A 
ATOM     25  C   UNL     1       7.520  -2.786  22.994  0.00  0.00    +0.006 A 
BRANCH  23  26
ATOM     26  C   UNL     1       4.827  -5.398  23.632  0.00  0.00    -0.018 A 
ATOM     27  C   UNL     1       4.647  -6.722  24.076  0.00  0.00    +0.008 A 
ATOM     28  C   UNL     1       3.364  -7.285  24.206  0.00  0.00    +0.001 A 
ATOM     29  C   UNL     1       2.233  -6.538  23.900  0.00  0.00    +0.000 A 
ATOM     30  C   UNL     1       2.375  -5.239  23.440  0.00  0.00    +0.001 A 
ATOM     31  C   UNL     1       3.653  -4.689  23.291  0.00  0.00    +0.008 A 
ENDBRANCH  23  26
ENDBRANCH  19  20
ENDBRANCH  14  19
ENDBRANCH   8  11
ENDBRANCH   1   7
BRANCH   1  32
ATOM     32  C   UNL     1       5.842  -1.278  25.903  0.00  0.00    +0.067 C 
BRANCH  32  37
ATOM     33  C   UNL     1       4.904  -4.634  27.433  0.00  0.00    +0.067 A 
ATOM     34  C   UNL     1       3.501  -4.675  27.328  0.00  0.00    +0.025 A 
ATOM     35  C   UNL     1       2.876  -3.598  26.658  0.00  0.00    +0.009 A 
ATOM     36  C   UNL     1       3.608  -2.496  26.188  0.00  0.00    +0.004 A 
ATOM     37  C   UNL     1       4.979  -2.401  26.433  0.00  0.00    -0.044 A 
ATOM     38  C   UNL     1       5.608  -3.476  27.063  0.00  0.00    +0.019 A 
BRANCH  33  39
ATOM     39  C   UNL     1       5.704  -5.824  27.811  0.00  0.00    +0.339 C 
ATOM     40  O   UNL     1       5.793  -6.821  27.123  0.00  0.00    -0.245 OA
BRANCH  39  42
ATOM     41  C   UNL     1       6.381  -6.484  30.001  0.00  0.00    +0.280 C 
ATOM     42  O   UNL     1       6.374  -5.522  28.946  0.00  0.00    -0.464 OA
ENDBRANCH  39  42
ENDBRANCH  33  39
BRANCH  34  43
ATOM     43  C   UNL     1       2.613  -5.813  27.891  0.00  0.00    +0.327 C 
ATOM     44  F   UNL     1       2.854  -6.962  27.157  0.00  0.00    -0.212 F 
BRANCH  43  45
ATOM     45  C   UNL     1       1.106  -5.527  27.715  0.00  0.00    +0.358 C 
ATOM     46  O   UNL     1       0.444  -4.925  28.558  0.00  0.00    -0.246 OA
BRANCH  45  47
ATOM     47  O   UNL     1       0.489  -6.111  26.653  0.00  0.00    -0.478 OA
ATOM     48  H   UNL     1       0.244  -5.517  25.916  0.00  0.00    +0.295 HD
ENDBRANCH  45  47
ENDBRANCH  43  45
BRANCH  43  49
ATOM     49  C   UNL     1       2.972  -6.142  29.361  0.00  0.00    +0.358 C 
ATOM     50  O   UNL     1       3.137  -7.296  29.768  0.00  0.00    -0.246 OA
BRANCH  49  51
ATOM     51  O   UNL     1       2.995  -5.111  30.245  0.00  0.00    -0.478 OA
ATOM     52  H   UNL     1       3.728  -4.460  30.109  0.00  0.00    +0.295 HD
ENDBRANCH  49  51
ENDBRANCH  43  49
ENDBRANCH  34  43
ENDBRANCH  32  37
ENDBRANCH   1  32
TORSDOF 15
ENDMDL
MODEL 4
REMARK VINA RESULT:      -6.7      3.215      9.141
REMARK  Name = 
REMARK  17 active torsions:
REMARK  status: ('A' for Active; 'I' for Inactive)
REMARK    1  A    between atoms: C_1  and  O_2
REMARK    2  A    between atoms: O_2  and  C_3
REMARK    3  A    between atoms: C_3  and  C_5
REMARK    4  A    between atoms: C_7  and  C_8
REMARK    5  A    between atoms: C_8  and  C_9
REMARK    6  A    between atoms: C_9  and  N_11
REMARK    7  A    between atoms: C_9  and  C_15
REMARK    8  A    between atoms: C_12  and  C_13
REMARK    9  A    between atoms: N_17  and  C_18
REMARK   10  A    between atoms: N_24  and  C_25
REMARK   11  A    between atoms: C_25  and  C_26
REMARK   12  A    between atoms: C_29  and  C_32
REMARK   13  A    between atoms: C_42  and  C_43
REMARK   14  A    between atoms: C_43  and  C_45
REMARK   15  A    between atoms: C_43  and  C_48
REMARK   16  A    between atoms: C_45  and  O_46
REMARK   17  A    between atoms: C_48  and  O_49
REMARK                            x       y       z     vdW  Elec       q    Type
REMARK                         _______ _______ _______ _____ _____    ______ ____
ROOT
ATOM      1  C   UNL     1       6.068  -0.253  24.839  0.00  0.00    +0.163 C 
ENDROOT
BRANCH   1   2
ATOM      2  N   UNL     1       5.125  -0.107  25.955  0.00  0.00    -0.304 N 
ATOM      3  H   UNL     1       4.162   0.052  25.687  0.00  0.00    +0.149 HD
ATOM      4  C   UNL     1       5.457   0.192  27.255  0.00  0.00    +0.211 C 
ATOM      5  O   UNL     1       6.605   0.291  27.659  0.00  0.00    -0.276 OA
ATOM      6  C   UNL     1       4.253   0.458  28.122  0.00  0.00    +0.109 C 
ENDBRANCH   1   2
BRANCH   1   7
ATOM      7  C   UNL     1       5.915  -1.617  24.129  0.00  0.00    +0.234 C 
ATOM      8  N   UNL     1       5.401  -2.648  24.887  0.00  0.00    -0.302 N 
ATOM      9  H   UNL     1       4.978  -2.437  25.786  0.00  0.00    +0.150 HD
ATOM     10  O   UNL     1       6.129  -1.726  22.923  0.00  0.00    -0.274 OA
BRANCH   8  11
ATOM     11  C   UNL     1       5.128  -3.960  24.300  0.00  0.00    +0.159 C 
ATOM     12  C   UNL     1       6.212  -4.987  24.672  0.00  0.00    +0.236 C 
ATOM     13  O   UNL     1       6.509  -5.902  23.910  0.00  0.00    -0.274 OA
ATOM     14  N   UNL     1       6.513  -5.005  26.039  0.00  0.00    -0.296 N 
ATOM     15  C   UNL     1       5.830  -6.042  26.804  0.00  0.00    +0.108 C 
ATOM     16  C   UNL     1       4.346  -6.226  26.444  0.00  0.00    +0.019 C 
ATOM     17  C   UNL     1       3.587  -4.925  26.156  0.00  0.00    +0.004 C 
ATOM     18  C   UNL     1       3.732  -4.463  24.696  0.00  0.00    +0.032 C 
BRANCH  14  19
ATOM     19  C   UNL     1       7.879  -4.653  26.471  0.00  0.00    +0.143 C 
BRANCH  19  20
ATOM     20  C   UNL     1       8.552  -3.498  25.756  0.00  0.00    -0.030 A 
ATOM     21  C   UNL     1       9.103  -3.615  24.472  0.00  0.00    +0.006 A 
ATOM     22  C   UNL     1       9.646  -2.494  23.805  0.00  0.00    +0.009 A 
ATOM     23  C   UNL     1       9.640  -1.212  24.393  0.00  0.00    -0.018 A 
ATOM     24  C   UNL     1       9.170  -1.148  25.711  0.00  0.00    +0.009 A 
ATOM     25  C   UNL     1       8.671  -2.264  26.386  0.00  0.00    +0.006 A 
BRANCH  23  26
ATOM     26  C   UNL     1      10.030   0.035  23.674  0.00  0.00    -0.018 A 
ATOM     27  C   UNL     1       9.500   0.384  22.417  0.00  0.00    +0.008 A 
ATOM     28  C   UNL     1       9.780   1.628  21.823  0.00  0.00    +0.001 A 
ATOM     29  C   UNL     1      10.592   2.551  22.470  0.00  0.00    +0.000 A 
ATOM     30  C   UNL     1      11.147   2.232  23.698  0.00  0.00    +0.001 A 
ATOM     31  C   UNL     1      10.884   0.986  24.278  0.00  0.00    +0.008 A 
ENDBRANCH  23  26
ENDBRANCH  19  20
ENDBRANCH  14  19
ENDBRANCH   8  11
ENDBRANCH   1   7
BRANCH   1  32
ATOM     32  C   UNL     1       6.083   0.851  23.771  0.00  0.00    +0.067 C 
BRANCH  32  37
ATOM     33  C   UNL     1       6.975   4.545  23.562  0.00  0.00    +0.067 A 
ATOM     34  C   UNL     1       7.901   4.730  24.607  0.00  0.00    +0.025 A 
ATOM     35  C   UNL     1       8.289   3.580  25.332  0.00  0.00    +0.009 A 
ATOM     36  C   UNL     1       7.720   2.321  25.079  0.00  0.00    +0.004 A 
ATOM     37  C   UNL     1       6.696   2.182  24.142  0.00  0.00    -0.044 A 
ATOM     38  C   UNL     1       6.332   3.306  23.398  0.00  0.00    +0.019 A 
BRANCH  33  39
ATOM     39  C   UNL     1       6.731   5.579  22.529  0.00  0.00    +0.339 C 
ATOM     40  O   UNL     1       7.526   5.857  21.654  0.00  0.00    -0.245 OA
BRANCH  39  42
ATOM     41  C   UNL     1       5.022   7.108  21.873  0.00  0.00    +0.280 C 
ATOM     42  O   UNL     1       5.462   6.019  22.683  0.00  0.00    -0.464 OA
ENDBRANCH  39  42
ENDBRANCH  33  39
BRANCH  34  43
ATOM     43  C   UNL     1       8.512   6.097  25.003  0.00  0.00    +0.327 C 
ATOM     44  F   UNL     1       7.749   7.101  24.431  0.00  0.00    -0.212 F 
BRANCH  43  45
ATOM     45  C   UNL     1       9.934   6.294  24.433  0.00  0.00    +0.358 C 
ATOM     46  O   UNL     1      10.841   6.810  25.082  0.00  0.00    -0.246 OA
BRANCH  45  47
ATOM     47  O   UNL     1      10.111   6.021  23.112  0.00  0.00    -0.478 OA
ATOM     48  H   UNL     1       9.495   5.369  22.720  0.00  0.00    +0.295 HD
ENDBRANCH  45  47
ENDBRANCH  43  45
BRANCH  43  49
ATOM     49  C   UNL     1       8.466   6.321  26.534  0.00  0.00    +0.358 C 
ATOM     50  O   UNL     1       7.425   6.233  27.192  0.00  0.00    -0.246 OA
BRANCH  49  51
ATOM     51  O   UNL     1       9.608   6.736  27.140  0.00  0.00    -0.478 OA
ATOM     52  H   UNL     1      10.074   7.482  26.688  0.00  0.00    +0.295 HD
ENDBRANCH  49  51
ENDBRANCH  43  49
ENDBRANCH  34  43
ENDBRANCH  32  37
ENDBRANCH   1  32
TORSDOF 15
ENDMDL
MODEL 5
REMARK VINA RESULT:      -6.7      1.619      2.610
REMARK  Name = 
REMARK  17 active torsions:
REMARK  status: ('A' for Active; 'I' for Inactive)
REMARK    1  A    between atoms: C_1  and  O_2
REMARK    2  A    between atoms: O_2  and  C_3
REMARK    3  A    between atoms: C_3  and  C_5
REMARK    4  A    between atoms: C_7  and  C_8
REMARK    5  A    between atoms: C_8  and  C_9
REMARK    6  A    between atoms: C_9  and  N_11
REMARK    7  A    between atoms: C_9  and  C_15
REMARK    8  A    between atoms: C_12  and  C_13
REMARK    9  A    between atoms: N_17  and  C_18
REMARK   10  A    between atoms: N_24  and  C_25
REMARK   11  A    between atoms: C_25  and  C_26
REMARK   12  A    between atoms: C_29  and  C_32
REMARK   13  A    between atoms: C_42  and  C_43
REMARK   14  A    between atoms: C_43  and  C_45
REMARK   15  A    between atoms: C_43  and  C_48
REMARK   16  A    between atoms: C_45  and  O_46
REMARK   17  A    between atoms: C_48  and  O_49
REMARK                            x       y       z     vdW  Elec       q    Type
REMARK                         _______ _______ _______ _____ _____    ______ ____
ROOT
ATOM      1  C   UNL     1       5.896   0.637  26.262  0.00  0.00    +0.163 C 
ENDROOT
BRANCH   1   2
ATOM      2  N   UNL     1       4.564   1.042  26.730  0.00  0.00    -0.304 N 
ATOM      3  H   UNL     1       4.194   0.496  27.498  0.00  0.00    +0.149 HD
ATOM      4  C   UNL     1       3.662   1.806  26.029  0.00  0.00    +0.211 C 
ATOM      5  O   UNL     1       3.900   2.316  24.945  0.00  0.00    -0.276 OA
ATOM      6  C   UNL     1       2.316   1.890  26.702  0.00  0.00    +0.109 C 
ENDBRANCH   1   2
BRANCH   1   7
ATOM      7  C   UNL     1       6.957   1.731  26.519  0.00  0.00    +0.234 C 
ATOM      8  N   UNL     1       7.118   2.674  25.526  0.00  0.00    -0.302 N 
ATOM      9  H   UNL     1       6.429   2.729  24.780  0.00  0.00    +0.150 HD
ATOM     10  O   UNL     1       7.526   1.812  27.605  0.00  0.00    -0.274 OA
BRANCH   8  11
ATOM     11  C   UNL     1       8.026   3.807  25.694  0.00  0.00    +0.159 C 
ATOM     12  C   UNL     1       8.543   4.328  24.341  0.00  0.00    +0.236 C 
ATOM     13  O   UNL     1       9.657   4.832  24.238  0.00  0.00    -0.274 OA
ATOM     14  N   UNL     1       7.526   4.524  23.398  0.00  0.00    -0.296 N 
ATOM     15  C   UNL     1       7.043   5.895  23.292  0.00  0.00    +0.108 C 
ATOM     16  C   UNL     1       6.849   6.609  24.640  0.00  0.00    +0.019 C 
ATOM     17  C   UNL     1       6.278   5.728  25.757  0.00  0.00    +0.004 C 
ATOM     18  C   UNL     1       7.363   4.933  26.502  0.00  0.00    +0.032 C 
BRANCH  14  19
ATOM     19  C   UNL     1       7.549   3.730  22.154  0.00  0.00    +0.143 C 
BRANCH  19  20
ATOM     20  C   UNL     1       7.787   2.239  22.293  0.00  0.00    -0.030 A 
ATOM     21  C   UNL     1       9.049   1.650  22.127  0.00  0.00    +0.006 A 
ATOM     22  C   UNL     1       9.245   0.269  22.348  0.00  0.00    +0.009 A 
ATOM     23  C   UNL     1       8.188  -0.569  22.760  0.00  0.00    -0.018 A 
ATOM     24  C   UNL     1       6.924   0.030  22.823  0.00  0.00    +0.009 A 
ATOM     25  C   UNL     1       6.722   1.387  22.565  0.00  0.00    +0.006 A 
BRANCH  23  26
ATOM     26  C   UNL     1       8.368  -1.989  23.181  0.00  0.00    -0.018 A 
ATOM     27  C   UNL     1       9.060  -2.351  24.353  0.00  0.00    +0.008 A 
ATOM     28  C   UNL     1       9.100  -3.685  24.799  0.00  0.00    +0.001 A 
ATOM     29  C   UNL     1       8.447  -4.685  24.088  0.00  0.00    +0.000 A 
ATOM     30  C   UNL     1       7.774  -4.367  22.919  0.00  0.00    +0.001 A 
ATOM     31  C   UNL     1       7.755  -3.043  22.467  0.00  0.00    +0.008 A 
ENDBRANCH  23  26
ENDBRANCH  19  20
ENDBRANCH  14  19
ENDBRANCH   8  11
ENDBRANCH   1   7
BRANCH   1  32
ATOM     32  C   UNL     1       6.450  -0.703  26.766  0.00  0.00    +0.067 C 
BRANCH  32  37
ATOM     33  C   UNL     1       5.656  -4.408  26.400  0.00  0.00    +0.067 A 
ATOM     34  C   UNL     1       4.868  -4.473  25.235  0.00  0.00    +0.025 A 
ATOM     35  C   UNL     1       4.675  -3.267  24.523  0.00  0.00    +0.009 A 
ATOM     36  C   UNL     1       5.177  -2.043  24.994  0.00  0.00    +0.004 A 
ATOM     37  C   UNL     1       5.828  -1.972  26.226  0.00  0.00    -0.044 A 
ATOM     38  C   UNL     1       6.052  -3.163  26.919  0.00  0.00    +0.019 A 
BRANCH  33  39
ATOM     39  C   UNL     1       6.203  -5.621  27.054  0.00  0.00    +0.339 C 
ATOM     40  O   UNL     1       7.326  -6.042  26.860  0.00  0.00    -0.245 OA
BRANCH  39  42
ATOM     41  C   UNL     1       5.624  -5.985  29.339  0.00  0.00    +0.280 C 
ATOM     42  O   UNL     1       5.288  -6.048  27.953  0.00  0.00    -0.464 OA
ENDBRANCH  39  42
ENDBRANCH  33  39
BRANCH  34  43
ATOM     43  C   UNL     1       4.211  -5.767  24.694  0.00  0.00    +0.327 C 
ATOM     44  F   UNL     1       5.154  -6.780  24.717  0.00  0.00    -0.212 F 
BRANCH  43  45
ATOM     45  C   UNL     1       3.789  -5.639  23.214  0.00  0.00    +0.358 C 
ATOM     46  O   UNL     1       4.597  -5.681  22.289  0.00  0.00    -0.246 OA
BRANCH  45  47
ATOM     47  O   UNL     1       2.491  -5.311  22.970  0.00  0.00    -0.478 OA
ATOM     48  H   UNL     1       2.138  -5.567  22.095  0.00  0.00    +0.295 HD
ENDBRANCH  45  47
ENDBRANCH  43  45
BRANCH  43  49
ATOM     49  C   UNL     1       3.038  -6.231  25.593  0.00  0.00    +0.358 C 
ATOM     50  O   UNL     1       2.052  -5.524  25.823  0.00  0.00    -0.246 OA
BRANCH  49  51
ATOM     51  O   UNL     1       3.172  -7.422  26.229  0.00  0.00    -0.478 OA
ATOM     52  H   UNL     1       4.105  -7.725  26.359  0.00  0.00    +0.295 HD
ENDBRANCH  49  51
ENDBRANCH  43  49
ENDBRANCH  34  43
ENDBRANCH  32  37
ENDBRANCH   1  32
TORSDOF 15
ENDMDL
MODEL 6
REMARK VINA RESULT:      -6.5      3.204      8.483
REMARK  Name = 
REMARK  17 active torsions:
REMARK  status: ('A' for Active; 'I' for Inactive)
REMARK    1  A    between atoms: C_1  and  O_2
REMARK    2  A    between atoms: O_2  and  C_3
REMARK    3  A    between atoms: C_3  and  C_5
REMARK    4  A    between atoms: C_7  and  C_8
REMARK    5  A    between atoms: C_8  and  C_9
REMARK    6  A    between atoms: C_9  and  N_11
REMARK    7  A    between atoms: C_9  and  C_15
REMARK    8  A    between atoms: C_12  and  C_13
REMARK    9  A    between atoms: N_17  and  C_18
REMARK   10  A    between atoms: N_24  and  C_25
REMARK   11  A    between atoms: C_25  and  C_26
REMARK   12  A    between atoms: C_29  and  C_32
REMARK   13  A    between atoms: C_42  and  C_43
REMARK   14  A    between atoms: C_43  and  C_45
REMARK   15  A    between atoms: C_43  and  C_48
REMARK   16  A    between atoms: C_45  and  O_46
REMARK   17  A    between atoms: C_48  and  O_49
REMARK                            x       y       z     vdW  Elec       q    Type
REMARK                         _______ _______ _______ _____ _____    ______ ____
ROOT
ATOM      1  C   UNL     1       6.252  -0.681  26.539  0.00  0.00    +0.163 C 
ENDROOT
BRANCH   1   2
ATOM      2  N   UNL     1       5.828   0.229  27.611  0.00  0.00    -0.304 N 
ATOM      3  H   UNL     1       4.919   0.654  27.479  0.00  0.00    +0.149 HD
ATOM      4  C   UNL     1       6.652   0.818  28.540  0.00  0.00    +0.211 C 
ATOM      5  O   UNL     1       7.847   0.584  28.636  0.00  0.00    -0.276 OA
ATOM      6  C   UNL     1       5.943   1.844  29.387  0.00  0.00    +0.109 C 
ENDBRANCH   1   2
BRANCH   1   7
ATOM      7  C   UNL     1       5.047  -1.341  25.831  0.00  0.00    +0.234 C 
ATOM      8  N   UNL     1       5.304  -2.512  25.149  0.00  0.00    -0.302 N 
ATOM      9  H   UNL     1       6.194  -2.982  25.291  0.00  0.00    +0.150 HD
ATOM     10  O   UNL     1       3.910  -0.900  25.983  0.00  0.00    -0.274 OA
BRANCH   8  11
ATOM     11  C   UNL     1       4.227  -3.274  24.517  0.00  0.00    +0.159 C 
ATOM     12  C   UNL     1       4.766  -4.506  23.769  0.00  0.00    +0.236 C 
ATOM     13  O   UNL     1       4.204  -4.937  22.766  0.00  0.00    -0.274 OA
ATOM     14  N   UNL     1       5.659  -5.270  24.531  0.00  0.00    -0.296 N 
ATOM     15  C   UNL     1       5.067  -6.425  25.194  0.00  0.00    +0.108 C 
ATOM     16  C   UNL     1       3.698  -6.157  25.842  0.00  0.00    +0.019 C 
ATOM     17  C   UNL     1       3.565  -4.788  26.521  0.00  0.00    +0.004 C 
ATOM     18  C   UNL     1       3.156  -3.675  25.543  0.00  0.00    +0.032 C 
BRANCH  14  19
ATOM     19  C   UNL     1       7.050  -5.416  24.060  0.00  0.00    +0.143 C 
BRANCH  19  20
ATOM     20  C   UNL     1       7.787  -4.145  23.685  0.00  0.00    -0.030 A 
ATOM     21  C   UNL     1       7.492  -3.406  22.530  0.00  0.00    +0.006 A 
ATOM     22  C   UNL     1       8.143  -2.183  22.259  0.00  0.00    +0.009 A 
ATOM     23  C   UNL     1       9.101  -1.646  23.144  0.00  0.00    -0.018 A 
ATOM     24  C   UNL     1       9.442  -2.453  24.237  0.00  0.00    +0.009 A 
ATOM     25  C   UNL     1       8.828  -3.683  24.483  0.00  0.00    +0.006 A 
BRANCH  23  26
ATOM     26  C   UNL     1       9.689  -0.282  23.008  0.00  0.00    -0.018 A 
ATOM     27  C   UNL     1       9.361   0.582  21.945  0.00  0.00    +0.008 A 
ATOM     28  C   UNL     1       9.823   1.911  21.912  0.00  0.00    +0.001 A 
ATOM     29  C   UNL     1      10.618   2.407  22.938  0.00  0.00    +0.000 A 
ATOM     30  C   UNL     1      10.976   1.577  23.987  0.00  0.00    +0.001 A 
ATOM     31  C   UNL     1      10.533   0.250  24.008  0.00  0.00    +0.008 A 
ENDBRANCH  23  26
ENDBRANCH  19  20
ENDBRANCH  14  19
ENDBRANCH   8  11
ENDBRANCH   1   7
BRANCH   1  32
ATOM     32  C   UNL     1       7.199  -0.124  25.466  0.00  0.00    +0.067 C 
BRANCH  32  37
ATOM     33  C   UNL     1       7.448   3.646  25.009  0.00  0.00    +0.067 A 
ATOM     34  C   UNL     1       6.397   3.950  24.122  0.00  0.00    +0.025 A 
ATOM     35  C   UNL     1       5.548   2.885  23.744  0.00  0.00    +0.009 A 
ATOM     36  C   UNL     1       5.784   1.568  24.166  0.00  0.00    +0.004 A 
ATOM     37  C   UNL     1       6.915   1.258  24.923  0.00  0.00    -0.044 A 
ATOM     38  C   UNL     1       7.739   2.309  25.329  0.00  0.00    +0.019 A 
BRANCH  33  39
ATOM     39  C   UNL     1       8.202   4.698  25.733  0.00  0.00    +0.339 C 
ATOM     40  O   UNL     1       7.927   5.070  26.856  0.00  0.00    -0.245 OA
BRANCH  39  42
ATOM     41  C   UNL     1       9.708   6.390  24.986  0.00  0.00    +0.280 C 
ATOM     42  O   UNL     1       9.269   5.032  24.972  0.00  0.00    -0.464 OA
ENDBRANCH  39  42
ENDBRANCH  33  39
BRANCH  34  43
ATOM     43  C   UNL     1       6.119   5.361  23.546  0.00  0.00    +0.327 C 
ATOM     44  F   UNL     1       6.379   6.297  24.532  0.00  0.00    -0.212 F 
BRANCH  43  45
ATOM     45  C   UNL     1       4.634   5.564  23.175  0.00  0.00    +0.358 C 
ATOM     46  O   UNL     1       3.759   5.742  24.020  0.00  0.00    -0.246 OA
BRANCH  45  47
ATOM     47  O   UNL     1       4.294   5.376  21.871  0.00  0.00    -0.478 OA
ATOM     48  H   UNL     1       3.473   4.870  21.708  0.00  0.00    +0.295 HD
ENDBRANCH  45  47
ENDBRANCH  43  45
BRANCH  43  49
ATOM     49  C   UNL     1       7.062   5.690  22.362  0.00  0.00    +0.358 C 
ATOM     50  O   UNL     1       6.903   6.674  21.633  0.00  0.00    -0.246 OA
BRANCH  49  51
ATOM     51  O   UNL     1       8.031   4.787  22.065  0.00  0.00    -0.478 OA
ATOM     52  H   UNL     1       7.714   3.858  21.942  0.00  0.00    +0.295 HD
ENDBRANCH  49  51
ENDBRANCH  43  49
ENDBRANCH  34  43
ENDBRANCH  32  37
ENDBRANCH   1  32
TORSDOF 15
ENDMDL
MODEL 7
REMARK VINA RESULT:      -6.4      3.241      8.496
REMARK  Name = 
REMARK  17 active torsions:
REMARK  status: ('A' for Active; 'I' for Inactive)
REMARK    1  A    between atoms: C_1  and  O_2
REMARK    2  A    between atoms: O_2  and  C_3
REMARK    3  A    between atoms: C_3  and  C_5
REMARK    4  A    between atoms: C_7  and  C_8
REMARK    5  A    between atoms: C_8  and  C_9
REMARK    6  A    between atoms: C_9  and  N_11
REMARK    7  A    between atoms: C_9  and  C_15
REMARK    8  A    between atoms: C_12  and  C_13
REMARK    9  A    between atoms: N_17  and  C_18
REMARK   10  A    between atoms: N_24  and  C_25
REMARK   11  A    between atoms: C_25  and  C_26
REMARK   12  A    between atoms: C_29  and  C_32
REMARK   13  A    between atoms: C_42  and  C_43
REMARK   14  A    between atoms: C_43  and  C_45
REMARK   15  A    between atoms: C_43  and  C_48
REMARK   16  A    between atoms: C_45  and  O_46
REMARK   17  A    between atoms: C_48  and  O_49
REMARK                            x       y       z     vdW  Elec       q    Type
REMARK                         _______ _______ _______ _____ _____    ______ ____
ROOT
ATOM      1  C   UNL     1       6.161  -0.705  26.849  0.00  0.00    +0.163 C 
ENDROOT
BRANCH   1   2
ATOM      2  N   UNL     1       5.675   0.211  27.889  0.00  0.00    -0.304 N 
ATOM      3  H   UNL     1       4.766   0.619  27.711  0.00  0.00    +0.149 HD
ATOM      4  C   UNL     1       6.448   0.825  28.846  0.00  0.00    +0.211 C 
ATOM      5  O   UNL     1       7.640   0.612  28.998  0.00  0.00    -0.276 OA
ATOM      6  C   UNL     1       5.685   1.849  29.647  0.00  0.00    +0.109 C 
ENDBRANCH   1   2
BRANCH   1   7
ATOM      7  C   UNL     1       5.003  -1.305  26.020  0.00  0.00    +0.234 C 
ATOM      8  N   UNL     1       5.261  -2.499  25.381  0.00  0.00    -0.302 N 
ATOM      9  H   UNL     1       6.100  -3.019  25.624  0.00  0.00    +0.150 HD
ATOM     10  O   UNL     1       3.885  -0.795  26.042  0.00  0.00    -0.274 OA
BRANCH   8  11
ATOM     11  C   UNL     1       4.216  -3.207  24.642  0.00  0.00    +0.159 C 
ATOM     12  C   UNL     1       4.793  -4.364  23.809  0.00  0.00    +0.236 C 
ATOM     13  O   UNL     1       4.273  -4.706  22.750  0.00  0.00    -0.274 OA
ATOM     14  N   UNL     1       5.663  -5.189  24.532  0.00  0.00    -0.296 N 
ATOM     15  C   UNL     1       5.056  -6.402  25.067  0.00  0.00    +0.108 C 
ATOM     16  C   UNL     1       3.662  -6.200  25.682  0.00  0.00    +0.019 C 
ATOM     17  C   UNL     1       3.492  -4.899  26.476  0.00  0.00    +0.004 C 
ATOM     18  C   UNL     1       3.110  -3.704  25.586  0.00  0.00    +0.032 C 
BRANCH  14  19
ATOM     19  C   UNL     1       7.072  -5.285  24.104  0.00  0.00    +0.143 C 
BRANCH  19  20
ATOM     20  C   UNL     1       7.765  -3.992  23.722  0.00  0.00    -0.030 A 
ATOM     21  C   UNL     1       7.421  -3.251  22.582  0.00  0.00    +0.006 A 
ATOM     22  C   UNL     1       8.033  -2.008  22.307  0.00  0.00    +0.009 A 
ATOM     23  C   UNL     1       8.999  -1.454  23.172  0.00  0.00    -0.018 A 
ATOM     24  C   UNL     1       9.389  -2.261  24.248  0.00  0.00    +0.009 A 
ATOM     25  C   UNL     1       8.814  -3.509  24.498  0.00  0.00    +0.006 A 
BRANCH  23  26
ATOM     26  C   UNL     1       9.546  -0.073  23.034  0.00  0.00    -0.018 A 
ATOM     27  C   UNL     1       9.064   0.842  22.078  0.00  0.00    +0.008 A 
ATOM     28  C   UNL     1       9.502   2.179  22.056  0.00  0.00    +0.001 A 
ATOM     29  C   UNL     1      10.426   2.633  22.988  0.00  0.00    +0.000 A 
ATOM     30  C   UNL     1      10.937   1.753  23.929  0.00  0.00    +0.001 A 
ATOM     31  C   UNL     1      10.516   0.419  23.935  0.00  0.00    +0.008 A 
ENDBRANCH  23  26
ENDBRANCH  19  20
ENDBRANCH  14  19
ENDBRANCH   8  11
ENDBRANCH   1   7
BRANCH   1  32
ATOM     32  C   UNL     1       7.229  -0.178  25.880  0.00  0.00    +0.067 C 
BRANCH  32  37
ATOM     33  C   UNL     1       6.268   2.902  23.861  0.00  0.00    +0.067 A 
ATOM     34  C   UNL     1       7.018   3.940  24.447  0.00  0.00    +0.025 A 
ATOM     35  C   UNL     1       7.918   3.579  25.476  0.00  0.00    +0.009 A 
ATOM     36  C   UNL     1       8.006   2.261  25.951  0.00  0.00    +0.004 A 
ATOM     37  C   UNL     1       7.149   1.273  25.463  0.00  0.00    -0.044 A 
ATOM     38  C   UNL     1       6.282   1.614  24.423  0.00  0.00    +0.019 A 
BRANCH  33  39
ATOM     39  C   UNL     1       5.543   3.076  22.579  0.00  0.00    +0.339 C 
ATOM     40  O   UNL     1       6.093   3.138  21.498  0.00  0.00    -0.245 OA
BRANCH  39  42
ATOM     41  C   UNL     1       3.311   3.531  21.874  0.00  0.00    +0.280 C 
ATOM     42  O   UNL     1       4.219   3.020  22.849  0.00  0.00    -0.464 OA
ENDBRANCH  39  42
ENDBRANCH  33  39
BRANCH  34  43
ATOM     43  C   UNL     1       6.920   5.430  24.037  0.00  0.00    +0.327 C 
ATOM     44  F   UNL     1       7.297   6.209  25.118  0.00  0.00    -0.212 F 
BRANCH  43  45
ATOM     45  C   UNL     1       5.471   5.858  23.715  0.00  0.00    +0.358 C 
ATOM     46  O   UNL     1       5.181   6.510  22.714  0.00  0.00    -0.246 OA
BRANCH  45  47
ATOM     47  O   UNL     1       4.533   5.624  24.671  0.00  0.00    -0.478 OA
ATOM     48  H   UNL     1       4.641   6.114  25.511  0.00  0.00    +0.295 HD
ENDBRANCH  45  47
ENDBRANCH  43  45
BRANCH  43  49
ATOM     49  C   UNL     1       7.894   5.770  22.883  0.00  0.00    +0.358 C 
ATOM     50  O   UNL     1       8.990   6.309  23.069  0.00  0.00    -0.246 OA
BRANCH  49  51
ATOM     51  O   UNL     1       7.459   5.557  21.614  0.00  0.00    -0.478 OA
ATOM     52  H   UNL     1       7.914   4.820  21.135  0.00  0.00    +0.295 HD
ENDBRANCH  49  51
ENDBRANCH  43  49
ENDBRANCH  34  43
ENDBRANCH  32  37
ENDBRANCH   1  32
TORSDOF 15
ENDMDL
MODEL 8
REMARK VINA RESULT:      -6.2      2.355      3.933
REMARK  Name = 
REMARK  17 active torsions:
REMARK  status: ('A' for Active; 'I' for Inactive)
REMARK    1  A    between atoms: C_1  and  O_2
REMARK    2  A    between atoms: O_2  and  C_3
REMARK    3  A    between atoms: C_3  and  C_5
REMARK    4  A    between atoms: C_7  and  C_8
REMARK    5  A    between atoms: C_8  and  C_9
REMARK    6  A    between atoms: C_9  and  N_11
REMARK    7  A    between atoms: C_9  and  C_15
REMARK    8  A    between atoms: C_12  and  C_13
REMARK    9  A    between atoms: N_17  and  C_18
REMARK   10  A    between atoms: N_24  and  C_25
REMARK   11  A    between atoms: C_25  and  C_26
REMARK   12  A    between atoms: C_29  and  C_32
REMARK   13  A    between atoms: C_42  and  C_43
REMARK   14  A    between atoms: C_43  and  C_45
REMARK   15  A    between atoms: C_43  and  C_48
REMARK   16  A    between atoms: C_45  and  O_46
REMARK   17  A    between atoms: C_48  and  O_49
REMARK                            x       y       z     vdW  Elec       q    Type
REMARK                         _______ _______ _______ _____ _____    ______ ____
ROOT
ATOM      1  C   UNL     1       5.072   1.427  27.200  0.00  0.00    +0.163 C 
ENDROOT
BRANCH   1   2
ATOM      2  N   UNL     1       6.271   1.678  28.010  0.00  0.00    -0.304 N 
ATOM      3  H   UNL     1       7.124   1.818  27.483  0.00  0.00    +0.149 HD
ATOM      4  C   UNL     1       6.415   1.388  29.346  0.00  0.00    +0.211 C 
ATOM      5  O   UNL     1       5.516   0.954  30.049  0.00  0.00    -0.276 OA
ATOM      6  C   UNL     1       7.824   1.590  29.842  0.00  0.00    +0.109 C 
ENDBRANCH   1   2
BRANCH   1   7
ATOM      7  C   UNL     1       4.225   2.706  27.010  0.00  0.00    +0.234 C 
ATOM      8  N   UNL     1       3.584   2.842  25.797  0.00  0.00    -0.302 N 
ATOM      9  H   UNL     1       3.534   2.042  25.172  0.00  0.00    +0.150 HD
ATOM     10  O   UNL     1       4.046   3.485  27.944  0.00  0.00    -0.274 OA
BRANCH   8  11
ATOM     11  C   UNL     1       2.684   3.965  25.535  0.00  0.00    +0.159 C 
ATOM     12  C   UNL     1       3.425   5.151  24.894  0.00  0.00    +0.236 C 
ATOM     13  O   UNL     1       3.068   6.308  25.097  0.00  0.00    -0.274 OA
ATOM     14  N   UNL     1       4.234   4.780  23.813  0.00  0.00    -0.296 N 
ATOM     15  C   UNL     1       3.626   4.965  22.501  0.00  0.00    +0.108 C 
ATOM     16  C   UNL     1       2.155   4.529  22.413  0.00  0.00    +0.019 C 
ATOM     17  C   UNL     1       1.814   3.253  23.193  0.00  0.00    +0.004 C 
ATOM     18  C   UNL     1       1.491   3.527  24.671  0.00  0.00    +0.032 C 
BRANCH  14  19
ATOM     19  C   UNL     1       5.691   5.000  23.907  0.00  0.00    +0.143 C 
BRANCH  19  20
ATOM     20  C   UNL     1       6.579   3.774  23.836  0.00  0.00    -0.030 A 
ATOM     21  C   UNL     1       7.582   3.504  24.778  0.00  0.00    +0.006 A 
ATOM     22  C   UNL     1       8.332   2.308  24.725  0.00  0.00    +0.009 A 
ATOM     23  C   UNL     1       8.091   1.331  23.736  0.00  0.00    -0.018 A 
ATOM     24  C   UNL     1       7.151   1.673  22.756  0.00  0.00    +0.009 A 
ATOM     25  C   UNL     1       6.439   2.873  22.785  0.00  0.00    +0.006 A 
BRANCH  23  26
ATOM     26  C   UNL     1       8.719  -0.022  23.734  0.00  0.00    -0.018 A 
ATOM     27  C   UNL     1       9.233  -0.622  24.900  0.00  0.00    +0.008 A 
ATOM     28  C   UNL     1       9.697  -1.951  24.897  0.00  0.00    +0.001 A 
ATOM     29  C   UNL     1       9.656  -2.709  23.734  0.00  0.00    +0.000 A 
ATOM     30  C   UNL     1       9.176  -2.142  22.564  0.00  0.00    +0.001 A 
ATOM     31  C   UNL     1       8.735  -0.815  22.564  0.00  0.00    +0.008 A 
ENDBRANCH  23  26
ENDBRANCH  19  20
ENDBRANCH  14  19
ENDBRANCH   8  11
ENDBRANCH   1   7
BRANCH   1  32
ATOM     32  C   UNL     1       5.267   0.766  25.828  0.00  0.00    +0.067 C 
BRANCH  32  37
ATOM     33  C   UNL     1       5.692  -2.802  24.572  0.00  0.00    +0.067 A 
ATOM     34  C   UNL     1       6.303  -3.470  25.650  0.00  0.00    +0.025 A 
ATOM     35  C   UNL     1       6.495  -2.730  26.838  0.00  0.00    +0.009 A 
ATOM     36  C   UNL     1       6.166  -1.368  26.921  0.00  0.00    +0.004 A 
ATOM     37  C   UNL     1       5.701  -0.683  25.798  0.00  0.00    -0.044 A 
ATOM     38  C   UNL     1       5.477  -1.414  24.630  0.00  0.00    +0.019 A 
BRANCH  33  39
ATOM     39  C   UNL     1       5.142  -3.526  23.400  0.00  0.00    +0.339 C 
ATOM     40  O   UNL     1       4.061  -4.078  23.398  0.00  0.00    -0.245 OA
BRANCH  39  42
ATOM     41  C   UNL     1       6.206  -4.415  21.459  0.00  0.00    +0.280 C 
ATOM     42  O   UNL     1       5.992  -3.333  22.366  0.00  0.00    -0.464 OA
ENDBRANCH  39  42
ENDBRANCH  33  39
BRANCH  34  43
ATOM     43  C   UNL     1       6.770  -4.948  25.612  0.00  0.00    +0.327 C 
ATOM     44  F   UNL     1       7.293  -5.210  24.357  0.00  0.00    -0.212 F 
BRANCH  43  45
ATOM     45  C   UNL     1       5.598  -5.939  25.779  0.00  0.00    +0.358 C 
ATOM     46  O   UNL     1       5.233  -6.690  24.876  0.00  0.00    -0.246 OA
BRANCH  45  47
ATOM     47  O   UNL     1       4.867  -5.842  26.922  0.00  0.00    -0.478 OA
ATOM     48  H   UNL     1       4.666  -6.683  27.378  0.00  0.00    +0.295 HD
ENDBRANCH  45  47
ENDBRANCH  43  45
BRANCH  43  49
ATOM     49  C   UNL     1       7.904  -5.214  26.632  0.00  0.00    +0.358 C 
ATOM     50  O   UNL     1       9.076  -4.880  26.432  0.00  0.00    -0.246 OA
BRANCH  49  51
ATOM     51  O   UNL     1       7.594  -5.941  27.736  0.00  0.00    -0.478 OA
ATOM     52  H   UNL     1       8.142  -6.753  27.870  0.00  0.00    +0.295 HD
ENDBRANCH  49  51
ENDBRANCH  43  49
ENDBRANCH  34  43
ENDBRANCH  32  37
ENDBRANCH   1  32
TORSDOF 15
ENDMDL
MODEL 9
REMARK VINA RESULT:      -6.1      1.712      3.001
REMARK  Name = 
REMARK  17 active torsions:
REMARK  status: ('A' for Active; 'I' for Inactive)
REMARK    1  A    between atoms: C_1  and  O_2
REMARK    2  A    between atoms: O_2  and  C_3
REMARK    3  A    between atoms: C_3  and  C_5
REMARK    4  A    between atoms: C_7  and  C_8
REMARK    5  A    between atoms: C_8  and  C_9
REMARK    6  A    between atoms: C_9  and  N_11
REMARK    7  A    between atoms: C_9  and  C_15
REMARK    8  A    between atoms: C_12  and  C_13
REMARK    9  A    between atoms: N_17  and  C_18
REMARK   10  A    between atoms: N_24  and  C_25
REMARK   11  A    between atoms: C_25  and  C_26
REMARK   12  A    between atoms: C_29  and  C_32
REMARK   13  A    between atoms: C_42  and  C_43
REMARK   14  A    between atoms: C_43  and  C_45
REMARK   15  A    between atoms: C_43  and  C_48
REMARK   16  A    between atoms: C_45  and  O_46
REMARK   17  A    between atoms: C_48  and  O_49
REMARK                            x       y       z     vdW  Elec       q    Type
REMARK                         _______ _______ _______ _____ _____    ______ ____
ROOT
ATOM      1  C   UNL     1       4.717   0.549  27.588  0.00  0.00    +0.163 C 
ENDROOT
BRANCH   1   2
ATOM      2  N   UNL     1       5.728   0.534  28.653  0.00  0.00    -0.304 N 
ATOM      3  H   UNL     1       5.435   0.094  29.517  0.00  0.00    +0.149 HD
ATOM      4  C   UNL     1       6.839   1.339  28.720  0.00  0.00    +0.211 C 
ATOM      5  O   UNL     1       7.167   2.122  27.842  0.00  0.00    -0.276 OA
ATOM      6  C   UNL     1       7.578   1.212  30.028  0.00  0.00    +0.109 C 
ENDBRANCH   1   2
BRANCH   1   7
ATOM      7  C   UNL     1       4.319   1.989  27.189  0.00  0.00    +0.234 C 
ATOM      8  N   UNL     1       4.812   2.450  25.987  0.00  0.00    -0.302 N 
ATOM      9  H   UNL     1       5.238   1.790  25.341  0.00  0.00    +0.150 HD
ATOM     10  O   UNL     1       3.510   2.625  27.860  0.00  0.00    -0.274 OA
BRANCH   8  11
ATOM     11  C   UNL     1       4.432   3.762  25.463  0.00  0.00    +0.159 C 
ATOM     12  C   UNL     1       5.566   4.397  24.641  0.00  0.00    +0.236 C 
ATOM     13  O   UNL     1       5.712   5.615  24.593  0.00  0.00    -0.274 OA
ATOM     14  N   UNL     1       6.122   3.524  23.697  0.00  0.00    -0.296 N 
ATOM     15  C   UNL     1       5.598   3.669  22.344  0.00  0.00    +0.108 C 
ATOM     16  C   UNL     1       4.073   3.851  22.268  0.00  0.00    +0.019 C 
ATOM     17  C   UNL     1       3.273   3.004  23.264  0.00  0.00    +0.004 C 
ATOM     18  C   UNL     1       3.136   3.675  24.641  0.00  0.00    +0.032 C 
BRANCH  14  19
ATOM     19  C   UNL     1       7.547   3.157  23.821  0.00  0.00    +0.143 C 
BRANCH  19  20
ATOM     20  C   UNL     1       7.862   1.693  24.059  0.00  0.00    -0.030 A 
ATOM     21  C   UNL     1       8.755   1.258  25.049  0.00  0.00    +0.006 A 
ATOM     22  C   UNL     1       8.958  -0.118  25.296  0.00  0.00    +0.009 A 
ATOM     23  C   UNL     1       8.260  -1.107  24.573  0.00  0.00    -0.018 A 
ATOM     24  C   UNL     1       7.450  -0.642  23.529  0.00  0.00    +0.009 A 
ATOM     25  C   UNL     1       7.281   0.717  23.258  0.00  0.00    +0.006 A 
BRANCH  23  26
ATOM     26  C   UNL     1       8.294  -2.561  24.906  0.00  0.00    -0.018 A 
ATOM     27  C   UNL     1       8.173  -3.566  23.927  0.00  0.00    +0.008 A 
ATOM     28  C   UNL     1       8.343  -4.926  24.247  0.00  0.00    +0.001 A 
ATOM     29  C   UNL     1       8.640  -5.311  25.549  0.00  0.00    +0.000 A 
ATOM     30  C   UNL     1       8.745  -4.349  26.540  0.00  0.00    +0.001 A 
ATOM     31  C   UNL     1       8.555  -3.000  26.223  0.00  0.00    +0.008 A 
ENDBRANCH  23  26
ENDBRANCH  19  20
ENDBRANCH  14  19
ENDBRANCH   8  11
ENDBRANCH   1   7
BRANCH   1  32
ATOM     32  C   UNL     1       5.020  -0.242  26.308  0.00  0.00    +0.067 C 
BRANCH  32  37
ATOM     33  C   UNL     1       4.646  -3.880  25.252  0.00  0.00    +0.067 A 
ATOM     34  C   UNL     1       4.861  -4.602  26.442  0.00  0.00    +0.025 A 
ATOM     35  C   UNL     1       5.049  -3.850  27.624  0.00  0.00    +0.009 A 
ATOM     36  C   UNL     1       5.101  -2.448  27.606  0.00  0.00    +0.004 A 
ATOM     37  C   UNL     1       5.036  -1.752  26.399  0.00  0.00    -0.044 A 
ATOM     38  C   UNL     1       4.816  -2.485  25.231  0.00  0.00    +0.019 A 
BRANCH  33  39
ATOM     39  C   UNL     1       4.120  -4.519  24.022  0.00  0.00    +0.339 C 
ATOM     40  O   UNL     1       4.817  -5.105  23.218  0.00  0.00    -0.245 OA
BRANCH  39  42
ATOM     41  C   UNL     1       2.012  -5.338  23.263  0.00  0.00    +0.280 C 
ATOM     42  O   UNL     1       2.772  -4.429  24.060  0.00  0.00    -0.464 OA
ENDBRANCH  39  42
ENDBRANCH  33  39
BRANCH  34  43
ATOM     43  C   UNL     1       4.901  -6.149  26.532  0.00  0.00    +0.327 C 
ATOM     44  F   UNL     1       5.760  -6.623  25.555  0.00  0.00    -0.212 F 
BRANCH  43  45
ATOM     45  C   UNL     1       3.533  -6.792  26.217  0.00  0.00    +0.358 C 
ATOM     46  O   UNL     1       2.491  -6.431  26.759  0.00  0.00    -0.246 OA
BRANCH  45  47
ATOM     47  O   UNL     1       3.540  -7.898  25.425  0.00  0.00    -0.478 OA
ATOM     48  H   UNL     1       4.372  -8.412  25.410  0.00  0.00    +0.295 HD
ENDBRANCH  45  47
ENDBRANCH  43  45
BRANCH  43  49
ATOM     49  C   UNL     1       5.466  -6.627  27.892  0.00  0.00    +0.358 C 
ATOM     50  O   UNL     1       6.631  -6.417  28.243  0.00  0.00    -0.246 OA
BRANCH  49  51
ATOM     51  O   UNL     1       4.662  -7.399  28.666  0.00  0.00    -0.478 OA
ATOM     52  H   UNL     1       5.082  -8.225  29.012  0.00  0.00    +0.295 HD
ENDBRANCH  49  51
ENDBRANCH  43  49
ENDBRANCH  34  43
ENDBRANCH  32  37
ENDBRANCH   1  32
TORSDOF 15
ENDMDL
