MODEL 1
REMARK VINA RESULT:      -7.5      0.000      0.000
REMARK  Name = 
REMARK  7 active torsions:
REMARK  status: ('A' for Active; 'I' for Inactive)
REMARK    1  A    between atoms: C_1  and  O_2
REMARK    2  A    between atoms: O_2  and  C_3
REMARK    3  A    between atoms: C_6  and  N_7
REMARK    4  A    between atoms: N_7  and  C_8
REMARK    5  A    between atoms: C_9  and  C_22
REMARK    6  A    between atoms: N_12  and  C_13
REMARK    7  A    between atoms: C_13  and  C_14
REMARK                            x       y       z     vdW  Elec       q    Type
REMARK                         _______ _______ _______ _____ _____    ______ ____
ROOT
ATOM      1  C   UNL     1       8.535  -1.840  22.782  0.00  0.00    +0.107 C 
ATOM      2  C   UNL     1       9.197  -0.592  22.293  0.00  0.00    +0.268 C 
ATOM      3  O   UNL     1       9.263  -0.288  21.109  0.00  0.00    -0.268 OA
ATOM      4  N   UNL     1       9.653   0.083  23.368  0.00  0.00    -0.229 N 
ATOM      5  C   UNL     1       9.197  -0.517  24.489  0.00  0.00    +0.256 C 
ATOM      6  O   UNL     1       9.090  -0.012  25.594  0.00  0.00    -0.269 OA
ATOM      7  C   UNL     1       8.727  -1.870  24.112  0.00  0.00    +0.071 C 
ENDROOT
BRANCH   7   8
ATOM      8  C   UNL     1       8.566  -2.996  25.041  0.00  0.00    -0.011 A 
ATOM      9  C   UNL     1       9.417  -4.109  24.997  0.00  0.00    +0.009 A 
ATOM     10  C   UNL     1       9.128  -5.265  25.726  0.00  0.00    +0.001 A 
ATOM     11  C   UNL     1       7.989  -5.322  26.524  0.00  0.00    +0.000 A 
ATOM     12  C   UNL     1       7.151  -4.214  26.612  0.00  0.00    +0.001 A 
ATOM     13  C   UNL     1       7.438  -3.062  25.877  0.00  0.00    +0.009 A 
ENDBRANCH   7   8
BRANCH   1  14
ATOM     14  N   UNL     1       7.977  -2.730  21.877  0.00  0.00    -0.310 N 
ATOM     15  H   UNL     1       7.610  -2.214  21.070  0.00  0.00    +0.152 HD
BRANCH  14  19
ATOM     16  C   UNL     1       4.999  -5.478  23.173  0.00  0.00    +0.120 A 
ATOM     17  C   UNL     1       4.730  -4.114  23.089  0.00  0.00    +0.047 A 
ATOM     18  C   UNL     1       5.715  -3.230  22.627  0.00  0.00    +0.027 A 
ATOM     19  C   UNL     1       6.991  -3.687  22.264  0.00  0.00    +0.032 A 
ATOM     20  C   UNL     1       7.201  -5.072  22.247  0.00  0.00    +0.027 A 
ATOM     21  C   UNL     1       6.217  -5.958  22.703  0.00  0.00    +0.047 A 
BRANCH  16  23
ATOM     22  C   UNL     1       4.431  -6.921  24.934  0.00  0.00    +0.277 C 
ATOM     23  O   UNL     1       4.118  -6.415  23.638  0.00  0.00    -0.495 OA
ENDBRANCH  16  23
ENDBRANCH  14  19
ENDBRANCH   1  14
BRANCH   4  24
ATOM     24  C   UNL     1      10.231   1.406  23.349  0.00  0.00    +0.152 C 
BRANCH  24  25
ATOM     25  C   UNL     1       9.192   2.512  23.398  0.00  0.00    -0.030 A 
ATOM     26  C   UNL     1       8.335   2.740  22.310  0.00  0.00    +0.005 A 
ATOM     27  C   UNL     1       7.431   3.811  22.322  0.00  0.00    +0.000 A 
ATOM     28  C   UNL     1       7.368   4.651  23.438  0.00  0.00    +0.000 A 
ATOM     29  C   UNL     1       8.186   4.405  24.538  0.00  0.00    +0.000 A 
ATOM     30  C   UNL     1       9.087   3.339  24.519  0.00  0.00    +0.005 A 
ENDBRANCH  24  25
ENDBRANCH   4  24
TORSDOF 6
ENDMDL
MODEL 2
REMARK VINA RESULT:      -7.4      1.740      3.387
REMARK  Name = 
REMARK  7 active torsions:
REMARK  status: ('A' for Active; 'I' for Inactive)
REMARK    1  A    between atoms: C_1  and  O_2
REMARK    2  A    between atoms: O_2  and  C_3
REMARK    3  A    between atoms: C_6  and  N_7
REMARK    4  A    between atoms: N_7  and  C_8
REMARK    5  A    between atoms: C_9  and  C_22
REMARK    6  A    between atoms: N_12  and  C_13
REMARK    7  A    between atoms: C_13  and  C_14
REMARK                            x       y       z     vdW  Elec       q    Type
REMARK                         _______ _______ _______ _____ _____    ______ ____
ROOT
ATOM      1  C   UNL     1       8.087  -2.802  25.411  0.00  0.00    +0.107 C 
ATOM      2  C   UNL     1       8.796  -1.572  25.882  0.00  0.00    +0.268 C 
ATOM      3  O   UNL     1       8.719  -1.152  27.029  0.00  0.00    -0.268 OA
ATOM      4  N   UNL     1       9.501  -1.079  24.844  0.00  0.00    -0.229 N 
ATOM      5  C   UNL     1       9.452  -1.960  23.822  0.00  0.00    +0.256 C 
ATOM      6  O   UNL     1      10.237  -2.040  22.890  0.00  0.00    -0.269 OA
ATOM      7  C   UNL     1       8.344  -2.902  24.096  0.00  0.00    +0.071 C 
ENDROOT
BRANCH   7   8
ATOM      8  C   UNL     1       7.665  -3.724  23.085  0.00  0.00    -0.011 A 
ATOM      9  C   UNL     1       6.631  -3.205  22.294  0.00  0.00    +0.009 A 
ATOM     10  C   UNL     1       5.846  -4.043  21.497  0.00  0.00    +0.001 A 
ATOM     11  C   UNL     1       6.094  -5.412  21.466  0.00  0.00    +0.000 A 
ATOM     12  C   UNL     1       7.141  -5.942  22.214  0.00  0.00    +0.001 A 
ATOM     13  C   UNL     1       7.919  -5.104  23.015  0.00  0.00    +0.009 A 
ENDBRANCH   7   8
BRANCH   1  14
ATOM     14  N   UNL     1       7.277  -3.513  26.284  0.00  0.00    -0.310 N 
ATOM     15  H   UNL     1       7.834  -4.231  26.761  0.00  0.00    +0.152 HD
BRANCH  14  19
ATOM     16  C   UNL     1       3.737  -5.437  24.919  0.00  0.00    +0.120 A 
ATOM     17  C   UNL     1       4.824  -6.176  25.379  0.00  0.00    +0.047 A 
ATOM     18  C   UNL     1       5.968  -5.522  25.857  0.00  0.00    +0.027 A 
ATOM     19  C   UNL     1       6.058  -4.121  25.860  0.00  0.00    +0.032 A 
ATOM     20  C   UNL     1       4.911  -3.400  25.502  0.00  0.00    +0.027 A 
ATOM     21  C   UNL     1       3.765  -4.051  25.029  0.00  0.00    +0.047 A 
BRANCH  16  23
ATOM     22  C   UNL     1       2.648  -6.257  23.008  0.00  0.00    +0.277 C 
ATOM     23  O   UNL     1       2.591  -5.980  24.406  0.00  0.00    -0.495 OA
ENDBRANCH  16  23
ENDBRANCH  14  19
ENDBRANCH   1  14
BRANCH   4  24
ATOM     24  C   UNL     1      10.435   0.021  24.907  0.00  0.00    +0.152 C 
BRANCH  24  25
ATOM     25  C   UNL     1       9.813   1.355  24.535  0.00  0.00    -0.030 A 
ATOM     26  C   UNL     1      10.526   2.289  23.768  0.00  0.00    +0.005 A 
ATOM     27  C   UNL     1       9.984   3.552  23.492  0.00  0.00    +0.000 A 
ATOM     28  C   UNL     1       8.710   3.879  23.971  0.00  0.00    +0.000 A 
ATOM     29  C   UNL     1       7.981   2.940  24.697  0.00  0.00    +0.000 A 
ATOM     30  C   UNL     1       8.528   1.685  24.972  0.00  0.00    +0.005 A 
ENDBRANCH  24  25
ENDBRANCH   4  24
TORSDOF 6
ENDMDL
MODEL 3
REMARK VINA RESULT:      -7.3      1.419      3.401
REMARK  Name = 
REMARK  7 active torsions:
REMARK  status: ('A' for Active; 'I' for Inactive)
REMARK    1  A    between atoms: C_1  and  O_2
REMARK    2  A    between atoms: O_2  and  C_3
REMARK    3  A    between atoms: C_6  and  N_7
REMARK    4  A    between atoms: N_7  and  C_8
REMARK    5  A    between atoms: C_9  and  C_22
REMARK    6  A    between atoms: N_12  and  C_13
REMARK    7  A    between atoms: C_13  and  C_14
REMARK                            x       y       z     vdW  Elec       q    Type
REMARK                         _______ _______ _______ _____ _____    ______ ____
ROOT
ATOM      1  C   UNL     1       8.750  -2.033  24.773  0.00  0.00    +0.107 C 
ATOM      2  C   UNL     1       9.473  -0.733  24.617  0.00  0.00    +0.268 C 
ATOM      3  O   UNL     1       9.986  -0.134  25.553  0.00  0.00    -0.268 OA
ATOM      4  N   UNL     1       9.453  -0.404  23.309  0.00  0.00    -0.229 N 
ATOM      5  C   UNL     1       8.948  -1.439  22.604  0.00  0.00    +0.256 C 
ATOM      6  O   UNL     1       9.109  -1.657  21.414  0.00  0.00    -0.269 OA
ATOM      7  C   UNL     1       8.265  -2.340  23.559  0.00  0.00    +0.071 C 
ENDROOT
BRANCH   7   8
ATOM      8  C   UNL     1       7.234  -3.324  23.201  0.00  0.00    -0.011 A 
ATOM      9  C   UNL     1       5.872  -2.991  23.203  0.00  0.00    +0.009 A 
ATOM     10  C   UNL     1       4.891  -3.978  23.080  0.00  0.00    +0.001 A 
ATOM     11  C   UNL     1       5.256  -5.313  22.936  0.00  0.00    +0.000 A 
ATOM     12  C   UNL     1       6.603  -5.660  22.891  0.00  0.00    +0.001 A 
ATOM     13  C   UNL     1       7.582  -4.673  23.022  0.00  0.00    +0.009 A 
ENDBRANCH   7   8
BRANCH   1  14
ATOM     14  N   UNL     1       8.616  -2.605  26.029  0.00  0.00    -0.310 N 
ATOM     15  H   UNL     1       9.444  -3.175  26.237  0.00  0.00    +0.152 HD
BRANCH  14  19
ATOM     16  C   UNL     1       5.222  -4.981  26.993  0.00  0.00    +0.120 A 
ATOM     17  C   UNL     1       6.475  -5.561  26.807  0.00  0.00    +0.047 A 
ATOM     18  C   UNL     1       7.587  -4.756  26.523  0.00  0.00    +0.027 A 
ATOM     19  C   UNL     1       7.465  -3.364  26.397  0.00  0.00    +0.032 A 
ATOM     20  C   UNL     1       6.222  -2.794  26.702  0.00  0.00    +0.027 A 
ATOM     21  C   UNL     1       5.110  -3.595  26.991  0.00  0.00    +0.047 A 
BRANCH  16  23
ATOM     22  C   UNL     1       3.585  -6.423  26.127  0.00  0.00    +0.277 C 
ATOM     23  O   UNL     1       4.073  -5.681  27.243  0.00  0.00    -0.495 OA
ENDBRANCH  16  23
ENDBRANCH  14  19
ENDBRANCH   1  14
BRANCH   4  24
ATOM     24  C   UNL     1      10.157   0.705  22.708  0.00  0.00    +0.152 C 
BRANCH  24  25
ATOM     25  C   UNL     1       9.381   2.009  22.770  0.00  0.00    -0.030 A 
ATOM     26  C   UNL     1       9.796   3.050  23.614  0.00  0.00    +0.005 A 
ATOM     27  C   UNL     1       9.037   4.222  23.732  0.00  0.00    +0.000 A 
ATOM     28  C   UNL     1       7.861   4.363  22.986  0.00  0.00    +0.000 A 
ATOM     29  C   UNL     1       7.467   3.351  22.116  0.00  0.00    +0.000 A 
ATOM     30  C   UNL     1       8.225   2.183  22.005  0.00  0.00    +0.005 A 
ENDBRANCH  24  25
ENDBRANCH   4  24
TORSDOF 6
ENDMDL
MODEL 4
REMARK VINA RESULT:      -7.1      2.654      4.356
REMARK  Name = 
REMARK  7 active torsions:
REMARK  status: ('A' for Active; 'I' for Inactive)
REMARK    1  A    between atoms: C_1  and  O_2
REMARK    2  A    between atoms: O_2  and  C_3
REMARK    3  A    between atoms: C_6  and  N_7
REMARK    4  A    between atoms: N_7  and  C_8
REMARK    5  A    between atoms: C_9  and  C_22
REMARK    6  A    between atoms: N_12  and  C_13
REMARK    7  A    between atoms: C_13  and  C_14
REMARK                            x       y       z     vdW  Elec       q    Type
REMARK                         _______ _______ _______ _____ _____    ______ ____
ROOT
ATOM      1  C   UNL     1       7.706  -4.235  24.788  0.00  0.00    +0.107 C 
ATOM      2  C   UNL     1       9.048  -3.786  24.304  0.00  0.00    +0.268 C 
ATOM      3  O   UNL     1      10.090  -4.362  24.588  0.00  0.00    -0.268 OA
ATOM      4  N   UNL     1       8.864  -2.699  23.528  0.00  0.00    -0.229 N 
ATOM      5  C   UNL     1       7.540  -2.520  23.329  0.00  0.00    +0.256 C 
ATOM      6  O   UNL     1       7.017  -1.895  22.420  0.00  0.00    -0.269 OA
ATOM      7  C   UNL     1       6.823  -3.325  24.344  0.00  0.00    +0.071 C 
ENDROOT
BRANCH   7   8
ATOM      8  C   UNL     1       5.436  -3.100  24.774  0.00  0.00    -0.011 A 
ATOM      9  C   UNL     1       5.132  -2.261  25.854  0.00  0.00    +0.009 A 
ATOM     10  C   UNL     1       3.844  -2.223  26.395  0.00  0.00    +0.001 A 
ATOM     11  C   UNL     1       2.835  -3.014  25.854  0.00  0.00    +0.000 A 
ATOM     12  C   UNL     1       3.107  -3.826  24.756  0.00  0.00    +0.001 A 
ATOM     13  C   UNL     1       4.396  -3.868  24.222  0.00  0.00    +0.009 A 
ENDBRANCH   7   8
BRANCH   1  14
ATOM     14  N   UNL     1       7.602  -5.341  25.619  0.00  0.00    -0.310 N 
ATOM     15  H   UNL     1       7.648  -6.198  25.057  0.00  0.00    +0.152 HD
BRANCH  14  19
ATOM     16  C   UNL     1       4.296  -5.778  28.260  0.00  0.00    +0.120 A 
ATOM     17  C   UNL     1       4.396  -6.544  27.101  0.00  0.00    +0.047 A 
ATOM     18  C   UNL     1       5.510  -6.409  26.262  0.00  0.00    +0.027 A 
ATOM     19  C   UNL     1       6.532  -5.491  26.551  0.00  0.00    +0.032 A 
ATOM     20  C   UNL     1       6.467  -4.818  27.778  0.00  0.00    +0.027 A 
ATOM     21  C   UNL     1       5.357  -4.954  28.621  0.00  0.00    +0.047 A 
BRANCH  16  23
ATOM     22  C   UNL     1       3.065  -7.064  29.789  0.00  0.00    +0.277 C 
ATOM     23  O   UNL     1       3.237  -5.814  29.125  0.00  0.00    -0.495 OA
ENDBRANCH  16  23
ENDBRANCH  14  19
ENDBRANCH   1  14
BRANCH   4  24
ATOM     24  C   UNL     1       9.885  -2.037  22.750  0.00  0.00    +0.152 C 
BRANCH  24  25
ATOM     25  C   UNL     1       9.949  -0.541  23.000  0.00  0.00    -0.030 A 
ATOM     26  C   UNL     1       9.806   0.369  21.941  0.00  0.00    +0.005 A 
ATOM     27  C   UNL     1       9.946   1.747  22.158  0.00  0.00    +0.000 A 
ATOM     28  C   UNL     1      10.213   2.222  23.447  0.00  0.00    +0.000 A 
ATOM     29  C   UNL     1      10.315   1.326  24.508  0.00  0.00    +0.000 A 
ATOM     30  C   UNL     1      10.178  -0.046  24.286  0.00  0.00    +0.005 A 
ENDBRANCH  24  25
ENDBRANCH   4  24
TORSDOF 6
ENDMDL
MODEL 5
REMARK VINA RESULT:      -7.0      2.266      7.423
REMARK  Name = 
REMARK  7 active torsions:
REMARK  status: ('A' for Active; 'I' for Inactive)
REMARK    1  A    between atoms: C_1  and  O_2
REMARK    2  A    between atoms: O_2  and  C_3
REMARK    3  A    between atoms: C_6  and  N_7
REMARK    4  A    between atoms: N_7  and  C_8
REMARK    5  A    between atoms: C_9  and  C_22
REMARK    6  A    between atoms: N_12  and  C_13
REMARK    7  A    between atoms: C_13  and  C_14
REMARK                            x       y       z     vdW  Elec       q    Type
REMARK                         _______ _______ _______ _____ _____    ______ ____
ROOT
ATOM      1  C   UNL     1       9.153  -0.882  24.284  0.00  0.00    +0.107 C 
ATOM      2  C   UNL     1       9.443  -2.287  23.858  0.00  0.00    +0.268 C 
ATOM      3  O   UNL     1      10.334  -2.578  23.072  0.00  0.00    -0.268 OA
ATOM      4  N   UNL     1       8.582  -3.099  24.503  0.00  0.00    -0.229 N 
ATOM      5  C   UNL     1       7.899  -2.378  25.418  0.00  0.00    +0.256 C 
ATOM      6  O   UNL     1       7.325  -2.810  26.406  0.00  0.00    -0.269 OA
ATOM      7  C   UNL     1       8.074  -0.947  25.082  0.00  0.00    +0.071 C 
ENDROOT
BRANCH   7   8
ATOM      8  C   UNL     1       7.186   0.138  25.521  0.00  0.00    -0.011 A 
ATOM      9  C   UNL     1       6.073   0.525  24.762  0.00  0.00    +0.009 A 
ATOM     10  C   UNL     1       5.366   1.691  25.067  0.00  0.00    +0.001 A 
ATOM     11  C   UNL     1       5.752   2.482  26.146  0.00  0.00    +0.000 A 
ATOM     12  C   UNL     1       6.831   2.094  26.935  0.00  0.00    +0.001 A 
ATOM     13  C   UNL     1       7.541   0.932  26.624  0.00  0.00    +0.009 A 
ENDBRANCH   7   8
BRANCH   1  14
ATOM     14  N   UNL     1       9.896   0.167  23.764  0.00  0.00    -0.310 N 
ATOM     15  H   UNL     1      10.649   0.411  24.416  0.00  0.00    +0.152 HD
BRANCH  14  19
ATOM     16  C   UNL     1       8.039   3.827  22.643  0.00  0.00    +0.120 A 
ATOM     17  C   UNL     1       8.936   3.773  23.708  0.00  0.00    +0.047 A 
ATOM     18  C   UNL     1       9.563   2.564  24.039  0.00  0.00    +0.027 A 
ATOM     19  C   UNL     1       9.288   1.384  23.331  0.00  0.00    +0.032 A 
ATOM     20  C   UNL     1       8.474   1.486  22.196  0.00  0.00    +0.027 A 
ATOM     21  C   UNL     1       7.850   2.694  21.859  0.00  0.00    +0.047 A 
BRANCH  16  23
ATOM     22  C   UNL     1       7.946   6.171  22.694  0.00  0.00    +0.277 C 
ATOM     23  O   UNL     1       7.355   4.948  22.262  0.00  0.00    -0.495 OA
ENDBRANCH  16  23
ENDBRANCH  14  19
ENDBRANCH   1  14
BRANCH   4  24
ATOM     24  C   UNL     1       8.611  -4.543  24.484  0.00  0.00    +0.152 C 
BRANCH  24  25
ATOM     25  C   UNL     1       7.462  -5.153  23.702  0.00  0.00    -0.030 A 
ATOM     26  C   UNL     1       7.568  -5.363  22.318  0.00  0.00    +0.005 A 
ATOM     27  C   UNL     1       6.480  -5.851  21.582  0.00  0.00    +0.000 A 
ATOM     28  C   UNL     1       5.279  -6.149  22.236  0.00  0.00    +0.000 A 
ATOM     29  C   UNL     1       5.182  -5.982  23.615  0.00  0.00    +0.000 A 
ATOM     30  C   UNL     1       6.268  -5.492  24.343  0.00  0.00    +0.005 A 
ENDBRANCH  24  25
ENDBRANCH   4  24
TORSDOF 6
ENDMDL
MODEL 6
REMARK VINA RESULT:      -7.0      1.988      3.158
REMARK  Name = 
REMARK  7 active torsions:
REMARK  status: ('A' for Active; 'I' for Inactive)
REMARK    1  A    between atoms: C_1  and  O_2
REMARK    2  A    between atoms: O_2  and  C_3
REMARK    3  A    between atoms: C_6  and  N_7
REMARK    4  A    between atoms: N_7  and  C_8
REMARK    5  A    between atoms: C_9  and  C_22
REMARK    6  A    between atoms: N_12  and  C_13
REMARK    7  A    between atoms: C_13  and  C_14
REMARK                            x       y       z     vdW  Elec       q    Type
REMARK                         _______ _______ _______ _____ _____    ______ ____
ROOT
ATOM      1  C   UNL     1       6.675  -3.150  24.009  0.00  0.00    +0.107 C 
ATOM      2  C   UNL     1       7.836  -2.825  23.123  0.00  0.00    +0.268 C 
ATOM      3  O   UNL     1       7.763  -2.812  21.901  0.00  0.00    -0.268 OA
ATOM      4  N   UNL     1       8.893  -2.550  23.913  0.00  0.00    -0.229 N 
ATOM      5  C   UNL     1       8.480  -2.496  25.197  0.00  0.00    +0.256 C 
ATOM      6  O   UNL     1       9.044  -1.932  26.121  0.00  0.00    -0.269 OA
ATOM      7  C   UNL     1       7.149  -3.140  25.266  0.00  0.00    +0.071 C 
ENDROOT
BRANCH   7   8
ATOM      8  C   UNL     1       6.536  -3.684  26.486  0.00  0.00    -0.011 A 
ATOM      9  C   UNL     1       6.840  -4.973  26.945  0.00  0.00    +0.009 A 
ATOM     10  C   UNL     1       6.097  -5.564  27.970  0.00  0.00    +0.001 A 
ATOM     11  C   UNL     1       5.047  -4.869  28.563  0.00  0.00    +0.000 A 
ATOM     12  C   UNL     1       4.755  -3.573  28.148  0.00  0.00    +0.001 A 
ATOM     13  C   UNL     1       5.493  -2.987  27.119  0.00  0.00    +0.009 A 
ENDBRANCH   7   8
BRANCH   1  14
ATOM     14  N   UNL     1       5.449  -3.480  23.452  0.00  0.00    -0.310 N 
ATOM     15  H   UNL     1       4.850  -2.648  23.423  0.00  0.00    +0.152 HD
BRANCH  14  19
ATOM     16  C   UNL     1       3.070  -6.617  25.065  0.00  0.00    +0.120 A 
ATOM     17  C   UNL     1       2.619  -5.299  25.069  0.00  0.00    +0.047 A 
ATOM     18  C   UNL     1       3.404  -4.285  24.501  0.00  0.00    +0.027 A 
ATOM     19  C   UNL     1       4.661  -4.564  23.943  0.00  0.00    +0.032 A 
ATOM     20  C   UNL     1       5.041  -5.909  23.847  0.00  0.00    +0.027 A 
ATOM     21  C   UNL     1       4.257  -6.925  24.409  0.00  0.00    +0.047 A 
BRANCH  16  23
ATOM     22  C   UNL     1       1.985  -8.662  24.681  0.00  0.00    +0.277 C 
ATOM     23  O   UNL     1       2.394  -7.669  25.619  0.00  0.00    -0.495 OA
ENDBRANCH  16  23
ENDBRANCH  14  19
ENDBRANCH   1  14
BRANCH   4  24
ATOM     24  C   UNL     1      10.173  -2.053  23.464  0.00  0.00    +0.152 C 
BRANCH  24  25
ATOM     25  C   UNL     1      10.176  -0.556  23.208  0.00  0.00    -0.030 A 
ATOM     26  C   UNL     1      10.558   0.342  24.216  0.00  0.00    +0.005 A 
ATOM     27  C   UNL     1      10.484   1.727  24.007  0.00  0.00    +0.000 A 
ATOM     28  C   UNL     1      10.041   2.218  22.774  0.00  0.00    +0.000 A 
ATOM     29  C   UNL     1       9.701   1.331  21.756  0.00  0.00    +0.000 A 
ATOM     30  C   UNL     1       9.773  -0.047  21.971  0.00  0.00    +0.005 A 
ENDBRANCH  24  25
ENDBRANCH   4  24
TORSDOF 6
ENDMDL
MODEL 7
REMARK VINA RESULT:      -6.7      2.806      5.037
REMARK  Name = 
REMARK  7 active torsions:
REMARK  status: ('A' for Active; 'I' for Inactive)
REMARK    1  A    between atoms: C_1  and  O_2
REMARK    2  A    between atoms: O_2  and  C_3
REMARK    3  A    between atoms: C_6  and  N_7
REMARK    4  A    between atoms: N_7  and  C_8
REMARK    5  A    between atoms: C_9  and  C_22
REMARK    6  A    between atoms: N_12  and  C_13
REMARK    7  A    between atoms: C_13  and  C_14
REMARK                            x       y       z     vdW  Elec       q    Type
REMARK                         _______ _______ _______ _____ _____    ______ ____
ROOT
ATOM      1  C   UNL     1       7.357  -4.987  25.355  0.00  0.00    +0.107 C 
ATOM      2  C   UNL     1       8.662  -4.257  25.379  0.00  0.00    +0.268 C 
ATOM      3  O   UNL     1       9.511  -4.430  26.244  0.00  0.00    -0.268 OA
ATOM      4  N   UNL     1       8.700  -3.444  24.304  0.00  0.00    -0.229 N 
ATOM      5  C   UNL     1       7.638  -3.711  23.514  0.00  0.00    +0.256 C 
ATOM      6  O   UNL     1       7.532  -3.457  22.325  0.00  0.00    -0.269 OA
ATOM      7  C   UNL     1       6.666  -4.485  24.318  0.00  0.00    +0.071 C 
ENDROOT
BRANCH   7   8
ATOM      8  C   UNL     1       5.232  -4.609  24.020  0.00  0.00    -0.011 A 
ATOM      9  C   UNL     1       4.280  -3.801  24.658  0.00  0.00    +0.009 A 
ATOM     10  C   UNL     1       2.915  -4.069  24.538  0.00  0.00    +0.001 A 
ATOM     11  C   UNL     1       2.477  -5.141  23.766  0.00  0.00    +0.000 A 
ATOM     12  C   UNL     1       3.405  -5.931  23.093  0.00  0.00    +0.001 A 
ATOM     13  C   UNL     1       4.769  -5.666  23.219  0.00  0.00    +0.009 A 
ENDBRANCH   7   8
BRANCH   1  14
ATOM     14  N   UNL     1       7.051  -5.893  26.359  0.00  0.00    -0.310 N 
ATOM     15  H   UNL     1       7.078  -6.846  25.981  0.00  0.00    +0.152 HD
BRANCH  14  19
ATOM     16  C   UNL     1       3.434  -5.563  28.574  0.00  0.00    +0.120 A 
ATOM     17  C   UNL     1       3.627  -6.599  27.665  0.00  0.00    +0.047 A 
ATOM     18  C   UNL     1       4.839  -6.710  26.970  0.00  0.00    +0.027 A 
ATOM     19  C   UNL     1       5.870  -5.775  27.152  0.00  0.00    +0.032 A 
ATOM     20  C   UNL     1       5.698  -4.811  28.154  0.00  0.00    +0.027 A 
ATOM     21  C   UNL     1       4.490  -4.702  28.854  0.00  0.00    +0.047 A 
BRANCH  16  23
ATOM     22  C   UNL     1       1.373  -4.444  28.655  0.00  0.00    +0.277 C 
ATOM     23  O   UNL     1       2.279  -5.352  29.277  0.00  0.00    -0.495 OA
ENDBRANCH  16  23
ENDBRANCH  14  19
ENDBRANCH   1  14
BRANCH   4  24
ATOM     24  C   UNL     1       9.840  -2.668  23.874  0.00  0.00    +0.152 C 
BRANCH  24  25
ATOM     25  C   UNL     1       9.711  -1.190  24.199  0.00  0.00    -0.030 A 
ATOM     26  C   UNL     1       8.670  -0.724  25.016  0.00  0.00    +0.005 A 
ATOM     27  C   UNL     1       8.503   0.648  25.251  0.00  0.00    +0.000 A 
ATOM     28  C   UNL     1       9.394   1.562  24.678  0.00  0.00    +0.000 A 
ATOM     29  C   UNL     1      10.454   1.102  23.900  0.00  0.00    +0.000 A 
ATOM     30  C   UNL     1      10.613  -0.266  23.667  0.00  0.00    +0.005 A 
ENDBRANCH  24  25
ENDBRANCH   4  24
TORSDOF 6
ENDMDL
MODEL 8
REMARK VINA RESULT:      -6.7      2.218      7.832
REMARK  Name = 
REMARK  7 active torsions:
REMARK  status: ('A' for Active; 'I' for Inactive)
REMARK    1  A    between atoms: C_1  and  O_2
REMARK    2  A    between atoms: O_2  and  C_3
REMARK    3  A    between atoms: C_6  and  N_7
REMARK    4  A    between atoms: N_7  and  C_8
REMARK    5  A    between atoms: C_9  and  C_22
REMARK    6  A    between atoms: N_12  and  C_13
REMARK    7  A    between atoms: C_13  and  C_14
REMARK                            x       y       z     vdW  Elec       q    Type
REMARK                         _______ _______ _______ _____ _____    ______ ____
ROOT
ATOM      1  C   UNL     1       7.337  -0.897  25.275  0.00  0.00    +0.107 C 
ATOM      2  C   UNL     1       7.104  -2.163  26.037  0.00  0.00    +0.268 C 
ATOM      3  O   UNL     1       6.223  -2.286  26.878  0.00  0.00    -0.268 OA
ATOM      4  N   UNL     1       7.999  -3.075  25.607  0.00  0.00    -0.229 N 
ATOM      5  C   UNL     1       8.655  -2.576  24.537  0.00  0.00    +0.256 C 
ATOM      6  O   UNL     1       9.247  -3.214  23.682  0.00  0.00    -0.269 OA
ATOM      7  C   UNL     1       8.420  -1.114  24.510  0.00  0.00    +0.071 C 
ENDROOT
BRANCH   7   8
ATOM      8  C   UNL     1       9.264  -0.136  23.810  0.00  0.00    -0.011 A 
ATOM      9  C   UNL     1      10.189   0.660  24.500  0.00  0.00    +0.009 A 
ATOM     10  C   UNL     1      10.824   1.732  23.870  0.00  0.00    +0.001 A 
ATOM     11  C   UNL     1      10.557   2.017  22.533  0.00  0.00    +0.000 A 
ATOM     12  C   UNL     1       9.672   1.214  21.820  0.00  0.00    +0.001 A 
ATOM     13  C   UNL     1       9.032   0.147  22.453  0.00  0.00    +0.009 A 
ENDBRANCH   7   8
BRANCH   1  14
ATOM     14  N   UNL     1       6.551   0.218  25.525  0.00  0.00    -0.310 N 
ATOM     15  H   UNL     1       5.578   0.016  25.271  0.00  0.00    +0.152 HD
BRANCH  14  19
ATOM     16  C   UNL     1       7.562   3.980  23.816  0.00  0.00    +0.120 A 
ATOM     17  C   UNL     1       6.730   3.087  23.145  0.00  0.00    +0.047 A 
ATOM     18  C   UNL     1       6.381   1.867  23.741  0.00  0.00    +0.027 A 
ATOM     19  C   UNL     1       6.876   1.506  25.004  0.00  0.00    +0.032 A 
ATOM     20  C   UNL     1       7.615   2.466  25.707  0.00  0.00    +0.027 A 
ATOM     21  C   UNL     1       7.961   3.688  25.116  0.00  0.00    +0.047 A 
BRANCH  16  23
ATOM     22  C   UNL     1       7.170   5.686  22.253  0.00  0.00    +0.277 C 
ATOM     23  O   UNL     1       7.984   5.178  23.308  0.00  0.00    -0.495 OA
ENDBRANCH  16  23
ENDBRANCH  14  19
ENDBRANCH   1  14
BRANCH   4  24
ATOM     24  C   UNL     1       8.028  -4.469  25.983  0.00  0.00    +0.152 C 
BRANCH  24  25
ATOM     25  C   UNL     1       6.782  -5.227  25.560  0.00  0.00    -0.030 A 
ATOM     26  C   UNL     1       5.970  -5.859  26.514  0.00  0.00    +0.005 A 
ATOM     27  C   UNL     1       4.866  -6.627  26.119  0.00  0.00    +0.000 A 
ATOM     28  C   UNL     1       4.559  -6.750  24.759  0.00  0.00    +0.000 A 
ATOM     29  C   UNL     1       5.337  -6.090  23.811  0.00  0.00    +0.000 A 
ATOM     30  C   UNL     1       6.438  -5.330  24.210  0.00  0.00    +0.005 A 
ENDBRANCH  24  25
ENDBRANCH   4  24
TORSDOF 6
ENDMDL
MODEL 9
REMARK VINA RESULT:      -6.7      2.374      4.065
REMARK  Name = 
REMARK  7 active torsions:
REMARK  status: ('A' for Active; 'I' for Inactive)
REMARK    1  A    between atoms: C_1  and  O_2
REMARK    2  A    between atoms: O_2  and  C_3
REMARK    3  A    between atoms: C_6  and  N_7
REMARK    4  A    between atoms: N_7  and  C_8
REMARK    5  A    between atoms: C_9  and  C_22
REMARK    6  A    between atoms: N_12  and  C_13
REMARK    7  A    between atoms: C_13  and  C_14
REMARK                            x       y       z     vdW  Elec       q    Type
REMARK                         _______ _______ _______ _____ _____    ______ ____
ROOT
ATOM      1  C   UNL     1       6.756  -2.592  25.191  0.00  0.00    +0.107 C 
ATOM      2  C   UNL     1       7.424  -1.414  25.825  0.00  0.00    +0.268 C 
ATOM      3  O   UNL     1       6.925  -0.772  26.740  0.00  0.00    -0.268 OA
ATOM      4  N   UNL     1       8.618  -1.243  25.222  0.00  0.00    -0.229 N 
ATOM      5  C   UNL     1       8.848  -2.288  24.399  0.00  0.00    +0.256 C 
ATOM      6  O   UNL     1       9.933  -2.664  23.984  0.00  0.00    -0.269 OA
ATOM      7  C   UNL     1       7.558  -2.984  24.187  0.00  0.00    +0.071 C 
ENDROOT
BRANCH   7   8
ATOM      8  C   UNL     1       7.255  -3.876  23.060  0.00  0.00    -0.011 A 
ATOM      9  C   UNL     1       6.460  -3.454  21.986  0.00  0.00    +0.009 A 
ATOM     10  C   UNL     1       5.996  -4.365  21.034  0.00  0.00    +0.001 A 
ATOM     11  C   UNL     1       6.332  -5.712  21.132  0.00  0.00    +0.000 A 
ATOM     12  C   UNL     1       7.153  -6.144  22.170  0.00  0.00    +0.001 A 
ATOM     13  C   UNL     1       7.610  -5.234  23.124  0.00  0.00    +0.009 A 
ENDBRANCH   7   8
BRANCH   1  14
ATOM     14  N   UNL     1       5.499  -2.991  25.621  0.00  0.00    -0.310 N 
ATOM     15  H   UNL     1       5.009  -2.192  26.037  0.00  0.00    +0.152 HD
BRANCH  14  19
ATOM     16  C   UNL     1       4.802  -6.250  28.266  0.00  0.00    +0.120 A 
ATOM     17  C   UNL     1       3.781  -5.744  27.464  0.00  0.00    +0.047 A 
ATOM     18  C   UNL     1       4.040  -4.692  26.575  0.00  0.00    +0.027 A 
ATOM     19  C   UNL     1       5.314  -4.111  26.487  0.00  0.00    +0.032 A 
ATOM     20  C   UNL     1       6.350  -4.711  27.215  0.00  0.00    +0.027 A 
ATOM     21  C   UNL     1       6.095  -5.765  28.101  0.00  0.00    +0.047 A 
BRANCH  16  23
ATOM     22  C   UNL     1       3.365  -7.268  29.817  0.00  0.00    +0.277 C 
ATOM     23  O   UNL     1       4.643  -7.251  29.184  0.00  0.00    -0.495 OA
ENDBRANCH  16  23
ENDBRANCH  14  19
ENDBRANCH   1  14
BRANCH   4  24
ATOM     24  C   UNL     1       9.638  -0.304  25.625  0.00  0.00    +0.152 C 
BRANCH  24  25
ATOM     25  C   UNL     1       9.582   1.005  24.857  0.00  0.00    -0.030 A 
ATOM     26  C   UNL     1      10.617   1.366  23.980  0.00  0.00    +0.005 A 
ATOM     27  C   UNL     1      10.606   2.608  23.332  0.00  0.00    +0.000 A 
ATOM     28  C   UNL     1       9.543   3.492  23.549  0.00  0.00    +0.000 A 
ATOM     29  C   UNL     1       8.493   3.122  24.385  0.00  0.00    +0.000 A 
ATOM     30  C   UNL     1       8.511   1.884  25.030  0.00  0.00    +0.005 A 
ENDBRANCH  24  25
ENDBRANCH   4  24
TORSDOF 6
ENDMDL
