MODEL 1
REMARK VINA RESULT:      -7.2      0.000      0.000
REMARK  Name = 
REMARK  17 active torsions:
REMARK  status: ('A' for Active; 'I' for Inactive)
REMARK    1  A    between atoms: N_10  and  C_11
REMARK    2  A    between atoms: C_14  and  C_16
REMARK    3  A    between atoms: C_16  and  O_17
REMARK    4  A    between atoms: O_17  and  P_18
REMARK    5  A    between atoms: P_18  and  O_19
REMARK    6  A    between atoms: P_18  and  O_21
REMARK    7  A    between atoms: O_21  and  P_22
REMARK    8  A    between atoms: P_22  and  O_23
REMARK    9  A    between atoms: P_22  and  C_25
REMARK   10  A    between atoms: C_25  and  P_26
REMARK   11  A    between atoms: P_26  and  O_27
REMARK   12  A    between atoms: P_26  and  O_29
REMARK   13  A    between atoms: O_29  and  P_30
REMARK   14  A    between atoms: P_30  and  O_31
REMARK   15  A    between atoms: P_30  and  O_32
REMARK   16  A    between atoms: C_34  and  O_36
REMARK   17  A    between atoms: C_37  and  O_39
REMARK                            x       y       z     vdW  Elec       q    Type
REMARK                         _______ _______ _______ _____ _____    ______ ____
ROOT
ATOM      1  C   UNL     1       6.398  -3.028  21.680  0.00  0.00    +0.206 C 
ENDROOT
BRANCH   1   5
ATOM      2  C   UNL     1       9.610  -1.712  22.897  0.00  0.00    +0.253 C 
ATOM      3  C   UNL     1       9.139  -2.373  24.212  0.00  0.00    +0.195 C 
ATOM      4  C   UNL     1       7.677  -2.777  23.949  0.00  0.00    +0.178 C 
ATOM      5  C   UNL     1       7.452  -2.310  22.513  0.00  0.00    +0.178 C 
ATOM      6  O   UNL     1       8.758  -2.353  21.906  0.00  0.00    -0.346 OA
BRANCH   2  14
ATOM      7  N   UNL     1       8.266   4.202  22.885  0.00  0.00    -0.341 N 
ATOM      8  H   UNL     1       8.836   4.295  22.051  0.00  0.00    +0.144 HD
ATOM      9  H   UNL     1       8.263   4.967  23.545  0.00  0.00    +0.144 HD
ATOM     10  C   UNL     1       8.416   2.970  23.512  0.00  0.00    +0.147 A 
ATOM     11  C   UNL     1       8.922   1.836  22.857  0.00  0.00    +0.147 A 
ATOM     12  N   UNL     1       9.381   1.647  21.574  0.00  0.00    -0.231 NA
ATOM     13  C   UNL     1       9.705   0.375  21.526  0.00  0.00    +0.203 A 
ATOM     14  N   UNL     1       9.459  -0.277  22.717  0.00  0.00    -0.286 N 
ATOM     15  C   UNL     1       8.998   0.662  23.596  0.00  0.00    +0.167 A 
ATOM     16  N   UNL     1       8.660   0.507  24.885  0.00  0.00    -0.216 NA
ATOM     17  C   UNL     1       8.201   1.660  25.412  0.00  0.00    +0.225 A 
ATOM     18  N   UNL     1       8.069   2.864  24.813  0.00  0.00    -0.219 NA
ENDBRANCH   2  14
BRANCH   4  19
ATOM     19  O   UNL     1       6.784  -2.082  24.816  0.00  0.00    -0.386 OA
ATOM     20  H   UNL     1       5.952  -1.933  24.333  0.00  0.00    +0.210 HD
ENDBRANCH   4  19
BRANCH   3  21
ATOM     21  O   UNL     1       9.911  -3.572  24.457  0.00  0.00    -0.385 OA
ATOM     22  H   UNL     1      10.772  -3.475  24.009  0.00  0.00    +0.210 HD
ENDBRANCH   3  21
ENDBRANCH   1   5
BRANCH   1  23
ATOM     23  O   UNL     1       5.555  -3.888  22.417  0.00  0.00    -0.284 OA
BRANCH  23  24
ATOM     24  P   UNL     1       5.749  -5.453  22.034  0.00  0.00    +0.482 P 
ATOM     25  O   UNL     1       5.913  -5.699  20.571  0.00  0.00    -0.227 OA
BRANCH  24  26
ATOM     26  O   UNL     1       7.045  -5.815  22.881  0.00  0.00    -0.302 OA
ATOM     27  H   UNL     1       7.190  -6.778  22.925  0.00  0.00    +0.222 HD
ENDBRANCH  24  26
BRANCH  24  28
ATOM     28  O   UNL     1       4.512  -6.098  22.760  0.00  0.00    -0.208 OA
BRANCH  28  29
ATOM     29  P   UNL     1       4.153  -6.439  24.418  0.00  0.00    +0.350 P 
ATOM     30  O   UNL     1       2.645  -6.410  24.130  0.00  0.00    -0.258 OA
BRANCH  29  31
ATOM     31  O   UNL     1       4.490  -4.865  24.776  0.00  0.00    -0.323 OA
ATOM     32  H   UNL     1       3.813  -4.558  25.415  0.00  0.00    +0.220 HD
ENDBRANCH  29  31
BRANCH  29  33
ATOM     33  C   UNL     1       3.773  -6.800  26.172  0.00  0.00    +0.254 C 
BRANCH  33  34
ATOM     34  P   UNL     1       4.948  -6.336  27.374  0.00  0.00    +0.350 P 
ATOM     35  O   UNL     1       4.753  -5.138  28.251  0.00  0.00    -0.258 OA
BRANCH  34  36
ATOM     36  O   UNL     1       5.251  -7.650  28.245  0.00  0.00    -0.323 OA
ATOM     37  H   UNL     1       6.163  -7.980  28.125  0.00  0.00    +0.220 HD
ENDBRANCH  34  36
BRANCH  34  38
ATOM     38  O   UNL     1       6.214  -6.223  26.412  0.00  0.00    -0.208 OA
BRANCH  38  39
ATOM     39  P   UNL     1       7.525  -5.158  26.784  0.00  0.00    +0.479 P 
ATOM     40  O   UNL     1       8.698  -4.204  27.117  0.00  0.00    -0.227 OA
BRANCH  39  41
ATOM     41  O   UNL     1       8.466  -6.024  25.773  0.00  0.00    -0.302 OA
ATOM     42  H   UNL     1       7.973  -6.793  25.402  0.00  0.00    +0.222 HD
ENDBRANCH  39  41
BRANCH  39  43
ATOM     43  O   UNL     1       7.692  -6.131  28.084  0.00  0.00    -0.302 OA
ATOM     44  H   UNL     1       7.223  -6.977  27.977  0.00  0.00    +0.222 HD
ENDBRANCH  39  43
ENDBRANCH  38  39
ENDBRANCH  34  38
ENDBRANCH  33  34
ENDBRANCH  29  33
ENDBRANCH  28  29
ENDBRANCH  24  28
ENDBRANCH  23  24
ENDBRANCH   1  23
TORSDOF 17
ENDMDL
MODEL 2
REMARK VINA RESULT:      -6.9      1.497      1.978
REMARK  Name = 
REMARK  17 active torsions:
REMARK  status: ('A' for Active; 'I' for Inactive)
REMARK    1  A    between atoms: N_10  and  C_11
REMARK    2  A    between atoms: C_14  and  C_16
REMARK    3  A    between atoms: C_16  and  O_17
REMARK    4  A    between atoms: O_17  and  P_18
REMARK    5  A    between atoms: P_18  and  O_19
REMARK    6  A    between atoms: P_18  and  O_21
REMARK    7  A    between atoms: O_21  and  P_22
REMARK    8  A    between atoms: P_22  and  O_23
REMARK    9  A    between atoms: P_22  and  C_25
REMARK   10  A    between atoms: C_25  and  P_26
REMARK   11  A    between atoms: P_26  and  O_27
REMARK   12  A    between atoms: P_26  and  O_29
REMARK   13  A    between atoms: O_29  and  P_30
REMARK   14  A    between atoms: P_30  and  O_31
REMARK   15  A    between atoms: P_30  and  O_32
REMARK   16  A    between atoms: C_34  and  O_36
REMARK   17  A    between atoms: C_37  and  O_39
REMARK                            x       y       z     vdW  Elec       q    Type
REMARK                         _______ _______ _______ _____ _____    ______ ____
ROOT
ATOM      1  C   UNL     1       6.922  -2.354  22.597  0.00  0.00    +0.206 C 
ENDROOT
BRANCH   1   5
ATOM      2  C   UNL     1       8.463  -0.857  25.582  0.00  0.00    +0.253 C 
ATOM      3  C   UNL     1       6.987  -0.567  25.936  0.00  0.00    +0.195 C 
ATOM      4  C   UNL     1       6.198  -0.920  24.661  0.00  0.00    +0.178 C 
ATOM      5  C   UNL     1       7.295  -1.378  23.703  0.00  0.00    +0.178 C 
ATOM      6  O   UNL     1       8.338  -1.884  24.558  0.00  0.00    -0.346 OA
BRANCH   2  14
ATOM      7  N   UNL     1      11.023   4.003  23.013  0.00  0.00    -0.341 N 
ATOM      8  H   UNL     1      11.914   3.523  23.072  0.00  0.00    +0.144 HD
ATOM      9  H   UNL     1      11.016   5.005  23.141  0.00  0.00    +0.144 HD
ATOM     10  C   UNL     1      10.017   3.375  23.737  0.00  0.00    +0.147 A 
ATOM     11  C   UNL     1      10.082   2.027  24.125  0.00  0.00    +0.147 A 
ATOM     12  N   UNL     1      11.051   1.067  23.944  0.00  0.00    -0.231 NA
ATOM     13  C   UNL     1      10.552  -0.012  24.502  0.00  0.00    +0.203 A 
ATOM     14  N   UNL     1       9.291   0.199  25.022  0.00  0.00    -0.286 N 
ATOM     15  C   UNL     1       8.996   1.519  24.826  0.00  0.00    +0.167 A 
ATOM     16  N   UNL     1       7.897   2.193  25.195  0.00  0.00    -0.216 NA
ATOM     17  C   UNL     1       7.950   3.476  24.781  0.00  0.00    +0.225 A 
ATOM     18  N   UNL     1       8.932   4.097  24.092  0.00  0.00    -0.219 NA
ENDBRANCH   2  14
BRANCH   4  19
ATOM     19  O   UNL     1       5.548   0.227  24.121  0.00  0.00    -0.386 OA
ATOM     20  H   UNL     1       5.492   0.900  24.823  0.00  0.00    +0.210 HD
ENDBRANCH   4  19
BRANCH   3  21
ATOM     21  O   UNL     1       6.560  -1.449  27.001  0.00  0.00    -0.385 OA
ATOM     22  H   UNL     1       7.055  -2.285  26.919  0.00  0.00    +0.210 HD
ENDBRANCH   3  21
ENDBRANCH   1   5
BRANCH   1  23
ATOM     23  O   UNL     1       6.167  -3.467  23.027  0.00  0.00    -0.284 OA
BRANCH  23  24
ATOM     24  P   UNL     1       5.922  -4.563  21.855  0.00  0.00    +0.482 P 
ATOM     25  O   UNL     1       5.731  -3.964  20.501  0.00  0.00    -0.227 OA
BRANCH  24  26
ATOM     26  O   UNL     1       7.243  -5.438  21.975  0.00  0.00    -0.302 OA
ATOM     27  H   UNL     1       7.399  -5.969  21.172  0.00  0.00    +0.222 HD
ENDBRANCH  24  26
BRANCH  24  28
ATOM     28  O   UNL     1       4.740  -5.402  22.467  0.00  0.00    -0.208 OA
BRANCH  28  29
ATOM     29  P   UNL     1       4.515  -6.205  23.983  0.00  0.00    +0.350 P 
ATOM     30  O   UNL     1       3.056  -6.532  23.628  0.00  0.00    -0.258 OA
BRANCH  29  31
ATOM     31  O   UNL     1       4.394  -4.727  24.706  0.00  0.00    -0.323 OA
ATOM     32  H   UNL     1       4.180  -4.075  24.006  0.00  0.00    +0.220 HD
ENDBRANCH  29  31
BRANCH  29  33
ATOM     33  C   UNL     1       4.275  -7.054  25.587  0.00  0.00    +0.254 C 
BRANCH  33  34
ATOM     34  P   UNL     1       5.030  -6.362  26.998  0.00  0.00    +0.350 P 
ATOM     35  O   UNL     1       4.585  -5.054  27.574  0.00  0.00    -0.258 OA
BRANCH  34  36
ATOM     36  O   UNL     1       5.045  -7.513  28.116  0.00  0.00    -0.323 OA
ATOM     37  H   UNL     1       5.327  -7.184  28.993  0.00  0.00    +0.220 HD
ENDBRANCH  34  36
BRANCH  34  38
ATOM     38  O   UNL     1       6.530  -6.343  26.458  0.00  0.00    -0.208 OA
BRANCH  38  39
ATOM     39  P   UNL     1       7.602  -5.042  26.845  0.00  0.00    +0.479 P 
ATOM     40  O   UNL     1       8.563  -3.879  27.193  0.00  0.00    -0.227 OA
BRANCH  39  41
ATOM     41  O   UNL     1       6.961  -4.195  25.609  0.00  0.00    -0.302 OA
ATOM     42  H   UNL     1       6.936  -4.735  24.785  0.00  0.00    +0.222 HD
ENDBRANCH  39  41
BRANCH  39  43
ATOM     43  O   UNL     1       8.662  -5.909  25.955  0.00  0.00    -0.302 OA
ATOM     44  H   UNL     1       8.455  -5.884  25.004  0.00  0.00    +0.222 HD
ENDBRANCH  39  43
ENDBRANCH  38  39
ENDBRANCH  34  38
ENDBRANCH  33  34
ENDBRANCH  29  33
ENDBRANCH  28  29
ENDBRANCH  24  28
ENDBRANCH  23  24
ENDBRANCH   1  23
TORSDOF 17
ENDMDL
MODEL 3
REMARK VINA RESULT:      -6.8      3.333      5.513
REMARK  Name = 
REMARK  17 active torsions:
REMARK  status: ('A' for Active; 'I' for Inactive)
REMARK    1  A    between atoms: N_10  and  C_11
REMARK    2  A    between atoms: C_14  and  C_16
REMARK    3  A    between atoms: C_16  and  O_17
REMARK    4  A    between atoms: O_17  and  P_18
REMARK    5  A    between atoms: P_18  and  O_19
REMARK    6  A    between atoms: P_18  and  O_21
REMARK    7  A    between atoms: O_21  and  P_22
REMARK    8  A    between atoms: P_22  and  O_23
REMARK    9  A    between atoms: P_22  and  C_25
REMARK   10  A    between atoms: C_25  and  P_26
REMARK   11  A    between atoms: P_26  and  O_27
REMARK   12  A    between atoms: P_26  and  O_29
REMARK   13  A    between atoms: O_29  and  P_30
REMARK   14  A    between atoms: P_30  and  O_31
REMARK   15  A    between atoms: P_30  and  O_32
REMARK   16  A    between atoms: C_34  and  O_36
REMARK   17  A    between atoms: C_37  and  O_39
REMARK                            x       y       z     vdW  Elec       q    Type
REMARK                         _______ _______ _______ _____ _____    ______ ____
ROOT
ATOM      1  C   UNL     1       8.328   0.486  25.431  0.00  0.00    +0.206 C 
ENDROOT
BRANCH   1   5
ATOM      2  C   UNL     1       9.462  -2.259  23.262  0.00  0.00    +0.253 C 
ATOM      3  C   UNL     1       8.923  -1.323  22.157  0.00  0.00    +0.195 C 
ATOM      4  C   UNL     1       8.181  -0.206  22.913  0.00  0.00    +0.178 C 
ATOM      5  C   UNL     1       8.365  -0.609  24.374  0.00  0.00    +0.178 C 
ATOM      6  O   UNL     1       9.598  -1.354  24.394  0.00  0.00    -0.346 OA
BRANCH   2  14
ATOM      7  N   UNL     1       5.307  -6.431  24.716  0.00  0.00    -0.341 N 
ATOM      8  H   UNL     1       6.011  -6.883  25.289  0.00  0.00    +0.144 HD
ATOM      9  H   UNL     1       4.640  -7.017  24.235  0.00  0.00    +0.144 HD
ATOM     10  C   UNL     1       5.831  -5.445  23.887  0.00  0.00    +0.147 A 
ATOM     11  C   UNL     1       7.071  -4.829  24.121  0.00  0.00    +0.147 A 
ATOM     12  N   UNL     1       8.018  -5.019  25.101  0.00  0.00    -0.231 NA
ATOM     13  C   UNL     1       8.958  -4.145  24.822  0.00  0.00    +0.203 A 
ATOM     14  N   UNL     1       8.655  -3.381  23.714  0.00  0.00    -0.286 N 
ATOM     15  C   UNL     1       7.465  -3.843  23.226  0.00  0.00    +0.167 A 
ATOM     16  N   UNL     1       6.790  -3.434  22.142  0.00  0.00    -0.216 NA
ATOM     17  C   UNL     1       5.625  -4.101  22.011  0.00  0.00    +0.225 A 
ATOM     18  N   UNL     1       5.119  -5.071  22.803  0.00  0.00    -0.219 NA
ENDBRANCH   2  14
BRANCH   4  19
ATOM     19  O   UNL     1       6.791  -0.204  22.596  0.00  0.00    -0.386 OA
ATOM     20  H   UNL     1       6.485  -1.128  22.579  0.00  0.00    +0.210 HD
ENDBRANCH   4  19
BRANCH   3  21
ATOM     21  O   UNL     1      10.032  -0.734  21.436  0.00  0.00    -0.385 OA
ATOM     22  H   UNL     1       9.867   0.224  21.357  0.00  0.00    +0.210 HD
ENDBRANCH   3  21
ENDBRANCH   1   5
BRANCH   1  23
ATOM     23  O   UNL     1       7.356   1.486  25.206  0.00  0.00    -0.284 OA
BRANCH  23  24
ATOM     24  P   UNL     1       5.911   1.127  25.850  0.00  0.00    +0.482 P 
ATOM     25  O   UNL     1       5.471   2.082  26.910  0.00  0.00    -0.227 OA
BRANCH  24  26
ATOM     26  O   UNL     1       4.986   1.154  24.556  0.00  0.00    -0.302 OA
ATOM     27  H   UNL     1       4.702   2.060  24.334  0.00  0.00    +0.222 HD
ENDBRANCH  24  26
BRANCH  24  28
ATOM     28  O   UNL     1       6.123  -0.379  26.250  0.00  0.00    -0.208 OA
BRANCH  28  29
ATOM     29  P   UNL     1       5.090  -1.767  26.239  0.00  0.00    +0.350 P 
ATOM     30  O   UNL     1       5.096  -1.797  24.703  0.00  0.00    -0.258 OA
BRANCH  29  31
ATOM     31  O   UNL     1       3.817  -0.777  26.582  0.00  0.00    -0.323 OA
ATOM     32  H   UNL     1       4.027   0.108  26.217  0.00  0.00    +0.220 HD
ENDBRANCH  29  31
BRANCH  29  33
ATOM     33  C   UNL     1       3.997  -3.236  26.226  0.00  0.00    +0.254 C 
BRANCH  33  34
ATOM     34  P   UNL     1       3.998  -4.266  27.632  0.00  0.00    +0.350 P 
ATOM     35  O   UNL     1       3.802  -3.722  29.013  0.00  0.00    -0.258 OA
BRANCH  34  36
ATOM     36  O   UNL     1       2.965  -5.455  27.325  0.00  0.00    -0.323 OA
ATOM     37  H   UNL     1       2.109  -5.339  27.784  0.00  0.00    +0.220 HD
ENDBRANCH  34  36
BRANCH  34  38
ATOM     38  O   UNL     1       5.424  -4.941  27.410  0.00  0.00    -0.208 OA
BRANCH  38  39
ATOM     39  P   UNL     1       6.034  -6.125  28.513  0.00  0.00    +0.479 P 
ATOM     40  O   UNL     1       6.579  -7.185  29.502  0.00  0.00    -0.227 OA
BRANCH  39  41
ATOM     41  O   UNL     1       7.470  -6.047  27.746  0.00  0.00    -0.302 OA
ATOM     42  H   UNL     1       8.000  -5.280  28.064  0.00  0.00    +0.222 HD
ENDBRANCH  39  41
BRANCH  39  43
ATOM     43  O   UNL     1       5.322  -7.171  27.482  0.00  0.00    -0.302 OA
ATOM     44  H   UNL     1       5.511  -8.099  27.704  0.00  0.00    +0.222 HD
ENDBRANCH  39  43
ENDBRANCH  38  39
ENDBRANCH  34  38
ENDBRANCH  33  34
ENDBRANCH  29  33
ENDBRANCH  28  29
ENDBRANCH  24  28
ENDBRANCH  23  24
ENDBRANCH   1  23
TORSDOF 17
ENDMDL
MODEL 4
REMARK VINA RESULT:      -6.7      4.715      7.816
REMARK  Name = 
REMARK  17 active torsions:
REMARK  status: ('A' for Active; 'I' for Inactive)
REMARK    1  A    between atoms: N_10  and  C_11
REMARK    2  A    between atoms: C_14  and  C_16
REMARK    3  A    between atoms: C_16  and  O_17
REMARK    4  A    between atoms: O_17  and  P_18
REMARK    5  A    between atoms: P_18  and  O_19
REMARK    6  A    between atoms: P_18  and  O_21
REMARK    7  A    between atoms: O_21  and  P_22
REMARK    8  A    between atoms: P_22  and  O_23
REMARK    9  A    between atoms: P_22  and  C_25
REMARK   10  A    between atoms: C_25  and  P_26
REMARK   11  A    between atoms: P_26  and  O_27
REMARK   12  A    between atoms: P_26  and  O_29
REMARK   13  A    between atoms: O_29  and  P_30
REMARK   14  A    between atoms: P_30  and  O_31
REMARK   15  A    between atoms: P_30  and  O_32
REMARK   16  A    between atoms: C_34  and  O_36
REMARK   17  A    between atoms: C_37  and  O_39
REMARK                            x       y       z     vdW  Elec       q    Type
REMARK                         _______ _______ _______ _____ _____    ______ ____
ROOT
ATOM      1  C   UNL     1       7.837  -1.671  26.695  0.00  0.00    +0.206 C 
ENDROOT
BRANCH   1   5
ATOM      2  C   UNL     1       7.915  -5.316  26.214  0.00  0.00    +0.253 C 
ATOM      3  C   UNL     1       9.092  -4.953  25.281  0.00  0.00    +0.195 C 
ATOM      4  C   UNL     1       9.052  -3.418  25.173  0.00  0.00    +0.178 C 
ATOM      5  C   UNL     1       7.858  -3.051  26.052  0.00  0.00    +0.178 C 
ATOM      6  O   UNL     1       7.778  -4.113  27.021  0.00  0.00    -0.346 OA
BRANCH   2  14
ATOM      7  N   UNL     1       2.766  -5.889  23.061  0.00  0.00    -0.341 N 
ATOM      8  H   UNL     1       2.356  -6.333  23.876  0.00  0.00    +0.144 HD
ATOM      9  H   UNL     1       2.482  -6.218  22.149  0.00  0.00    +0.144 HD
ATOM     10  C   UNL     1       4.144  -5.737  23.159  0.00  0.00    +0.147 A 
ATOM     11  C   UNL     1       4.831  -5.766  24.383  0.00  0.00    +0.147 A 
ATOM     12  N   UNL     1       4.396  -5.955  25.675  0.00  0.00    -0.231 NA
ATOM     13  C   UNL     1       5.483  -5.858  26.404  0.00  0.00    +0.203 A 
ATOM     14  N   UNL     1       6.605  -5.594  25.646  0.00  0.00    -0.286 N 
ATOM     15  C   UNL     1       6.207  -5.579  24.339  0.00  0.00    +0.167 A 
ATOM     16  N   UNL     1       6.953  -5.398  23.240  0.00  0.00    -0.216 NA
ATOM     17  C   UNL     1       6.191  -5.400  22.127  0.00  0.00    +0.225 A 
ATOM     18  N   UNL     1       4.854  -5.564  22.024  0.00  0.00    -0.219 NA
ENDBRANCH   2  14
BRANCH   4  19
ATOM     19  O   UNL     1       8.797  -3.000  23.834  0.00  0.00    -0.386 OA
ATOM     20  H   UNL     1       8.440  -3.762  23.344  0.00  0.00    +0.210 HD
ENDBRANCH   4  19
BRANCH   3  21
ATOM     21  O   UNL     1      10.341  -5.338  25.903  0.00  0.00    -0.385 OA
ATOM     22  H   UNL     1      10.452  -6.301  25.790  0.00  0.00    +0.210 HD
ENDBRANCH   3  21
ENDBRANCH   1   5
BRANCH   1  23
ATOM     23  O   UNL     1       6.974  -0.745  26.068  0.00  0.00    -0.284 OA
BRANCH  23  24
ATOM     24  P   UNL     1       6.229   0.243  27.117  0.00  0.00    +0.482 P 
ATOM     25  O   UNL     1       5.537  -0.473  28.230  0.00  0.00    -0.227 OA
BRANCH  24  26
ATOM     26  O   UNL     1       7.445   1.142  27.607  0.00  0.00    -0.302 OA
ATOM     27  H   UNL     1       7.289   2.088  27.431  0.00  0.00    +0.222 HD
ENDBRANCH  24  26
BRANCH  24  28
ATOM     28  O   UNL     1       5.356   1.116  26.142  0.00  0.00    -0.208 OA
BRANCH  28  29
ATOM     29  P   UNL     1       5.664   1.846  24.604  0.00  0.00    +0.350 P 
ATOM     30  O   UNL     1       4.188   2.247  24.465  0.00  0.00    -0.258 OA
BRANCH  29  31
ATOM     31  O   UNL     1       5.700   0.338  23.938  0.00  0.00    -0.323 OA
ATOM     32  H   UNL     1       5.786   0.448  22.968  0.00  0.00    +0.220 HD
ENDBRANCH  29  31
BRANCH  29  33
ATOM     33  C   UNL     1       5.989   2.618  22.977  0.00  0.00    +0.254 C 
BRANCH  33  34
ATOM     34  P   UNL     1       7.607   2.521  22.336  0.00  0.00    +0.350 P 
ATOM     35  O   UNL     1       7.942   1.662  21.157  0.00  0.00    -0.258 OA
BRANCH  34  36
ATOM     36  O   UNL     1       8.099   4.033  22.111  0.00  0.00    -0.323 OA
ATOM     37  H   UNL     1       8.682   4.127  21.332  0.00  0.00    +0.220 HD
ENDBRANCH  34  36
BRANCH  34  38
ATOM     38  O   UNL     1       8.348   2.081  23.676  0.00  0.00    -0.208 OA
BRANCH  38  39
ATOM     39  P   UNL     1       9.520   0.808  23.672  0.00  0.00    +0.479 P 
ATOM     40  O   UNL     1      10.570  -0.331  23.668  0.00  0.00    -0.227 OA
BRANCH  39  41
ATOM     41  O   UNL     1       8.304  -0.259  23.474  0.00  0.00    -0.302 OA
ATOM     42  H   UNL     1       8.100  -0.724  24.319  0.00  0.00    +0.222 HD
ENDBRANCH  39  41
BRANCH  39  43
ATOM     43  O   UNL     1       9.391   0.947  25.294  0.00  0.00    -0.302 OA
ATOM     44  H   UNL     1      10.100   0.475  25.764  0.00  0.00    +0.222 HD
ENDBRANCH  39  43
ENDBRANCH  38  39
ENDBRANCH  34  38
ENDBRANCH  33  34
ENDBRANCH  29  33
ENDBRANCH  28  29
ENDBRANCH  24  28
ENDBRANCH  23  24
ENDBRANCH   1  23
TORSDOF 17
ENDMDL
MODEL 5
REMARK VINA RESULT:      -6.7      1.357      2.260
REMARK  Name = 
REMARK  17 active torsions:
REMARK  status: ('A' for Active; 'I' for Inactive)
REMARK    1  A    between atoms: N_10  and  C_11
REMARK    2  A    between atoms: C_14  and  C_16
REMARK    3  A    between atoms: C_16  and  O_17
REMARK    4  A    between atoms: O_17  and  P_18
REMARK    5  A    between atoms: P_18  and  O_19
REMARK    6  A    between atoms: P_18  and  O_21
REMARK    7  A    between atoms: O_21  and  P_22
REMARK    8  A    between atoms: P_22  and  O_23
REMARK    9  A    between atoms: P_22  and  C_25
REMARK   10  A    between atoms: C_25  and  P_26
REMARK   11  A    between atoms: P_26  and  O_27
REMARK   12  A    between atoms: P_26  and  O_29
REMARK   13  A    between atoms: O_29  and  P_30
REMARK   14  A    between atoms: P_30  and  O_31
REMARK   15  A    between atoms: P_30  and  O_32
REMARK   16  A    between atoms: C_34  and  O_36
REMARK   17  A    between atoms: C_37  and  O_39
REMARK                            x       y       z     vdW  Elec       q    Type
REMARK                         _______ _______ _______ _____ _____    ______ ____
ROOT
ATOM      1  C   UNL     1       6.206  -2.951  22.293  0.00  0.00    +0.206 C 
ENDROOT
BRANCH   1   5
ATOM      2  C   UNL     1       8.737  -0.396  23.060  0.00  0.00    +0.253 C 
ATOM      3  C   UNL     1       9.693  -1.599  22.891  0.00  0.00    +0.195 C 
ATOM      4  C   UNL     1       8.769  -2.827  22.798  0.00  0.00    +0.178 C 
ATOM      5  C   UNL     1       7.378  -2.211  22.923  0.00  0.00    +0.178 C 
ATOM      6  O   UNL     1       7.524  -0.872  22.412  0.00  0.00    -0.346 OA
BRANCH   2  14
ATOM      7  N   UNL     1       7.138   2.375  28.212  0.00  0.00    -0.341 N 
ATOM      8  H   UNL     1       7.304   1.499  28.695  0.00  0.00    +0.144 HD
ATOM      9  H   UNL     1       6.383   2.961  28.541  0.00  0.00    +0.144 HD
ATOM     10  C   UNL     1       7.134   2.241  26.828  0.00  0.00    +0.147 A 
ATOM     11  C   UNL     1       7.726   1.156  26.163  0.00  0.00    +0.147 A 
ATOM     12  N   UNL     1       8.377   0.038  26.632  0.00  0.00    -0.231 NA
ATOM     13  C   UNL     1       8.733  -0.613  25.549  0.00  0.00    +0.203 A 
ATOM     14  N   UNL     1       8.359   0.042  24.394  0.00  0.00    -0.286 N 
ATOM     15  C   UNL     1       7.669   1.158  24.776  0.00  0.00    +0.167 A 
ATOM     16  N   UNL     1       7.082   2.084  24.003  0.00  0.00    -0.216 NA
ATOM     17  C   UNL     1       6.538   3.068  24.747  0.00  0.00    +0.225 A 
ATOM     18  N   UNL     1       6.524   3.194  26.092  0.00  0.00    -0.219 NA
ENDBRANCH   2  14
BRANCH   4  19
ATOM     19  O   UNL     1       8.988  -3.721  23.887  0.00  0.00    -0.386 OA
ATOM     20  H   UNL     1       9.080  -4.620  23.523  0.00  0.00    +0.210 HD
ENDBRANCH   4  19
BRANCH   3  21
ATOM     21  O   UNL     1      10.418  -1.472  21.645  0.00  0.00    -0.385 OA
ATOM     22  H   UNL     1      11.073  -2.193  21.601  0.00  0.00    +0.210 HD
ENDBRANCH   3  21
ENDBRANCH   1   5
BRANCH   1  23
ATOM     23  O   UNL     1       5.766  -4.079  23.019  0.00  0.00    -0.284 OA
BRANCH  23  24
ATOM     24  P   UNL     1       5.976  -5.475  22.220  0.00  0.00    +0.482 P 
ATOM     25  O   UNL     1       5.926  -5.331  20.734  0.00  0.00    -0.227 OA
BRANCH  24  26
ATOM     26  O   UNL     1       7.402  -5.924  22.760  0.00  0.00    -0.302 OA
ATOM     27  H   UNL     1       7.998  -5.162  22.882  0.00  0.00    +0.222 HD
ENDBRANCH  24  26
BRANCH  24  28
ATOM     28  O   UNL     1       4.898  -6.387  22.913  0.00  0.00    -0.208 OA
BRANCH  28  29
ATOM     29  P   UNL     1       4.505  -6.714  24.566  0.00  0.00    +0.350 P 
ATOM     30  O   UNL     1       3.306  -7.576  24.142  0.00  0.00    -0.258 OA
BRANCH  29  31
ATOM     31  O   UNL     1       3.852  -5.203  24.670  0.00  0.00    -0.323 OA
ATOM     32  H   UNL     1       4.299  -4.740  25.409  0.00  0.00    +0.220 HD
ENDBRANCH  29  31
BRANCH  29  33
ATOM     33  C   UNL     1       4.088  -7.059  26.314  0.00  0.00    +0.254 C 
BRANCH  33  34
ATOM     34  P   UNL     1       5.117  -6.383  27.548  0.00  0.00    +0.350 P 
ATOM     35  O   UNL     1       4.808  -5.076  28.209  0.00  0.00    -0.258 OA
BRANCH  34  36
ATOM     36  O   UNL     1       5.347  -7.542  28.634  0.00  0.00    -0.323 OA
ATOM     37  H   UNL     1       4.624  -8.201  28.642  0.00  0.00    +0.220 HD
ENDBRANCH  34  36
BRANCH  34  38
ATOM     38  O   UNL     1       6.477  -6.372  26.717  0.00  0.00    -0.208 OA
BRANCH  38  39
ATOM     39  P   UNL     1       7.592  -5.056  26.848  0.00  0.00    +0.479 P 
ATOM     40  O   UNL     1       8.591  -3.878  26.966  0.00  0.00    -0.227 OA
BRANCH  39  41
ATOM     41  O   UNL     1       6.700  -4.240  25.756  0.00  0.00    -0.302 OA
ATOM     42  H   UNL     1       6.688  -3.275  25.957  0.00  0.00    +0.222 HD
ENDBRANCH  39  41
BRANCH  39  43
ATOM     43  O   UNL     1       8.454  -5.934  25.775  0.00  0.00    -0.302 OA
ATOM     44  H   UNL     1       9.368  -6.089  26.071  0.00  0.00    +0.222 HD
ENDBRANCH  39  43
ENDBRANCH  38  39
ENDBRANCH  34  38
ENDBRANCH  33  34
ENDBRANCH  29  33
ENDBRANCH  28  29
ENDBRANCH  24  28
ENDBRANCH  23  24
ENDBRANCH   1  23
TORSDOF 17
ENDMDL
MODEL 6
REMARK VINA RESULT:      -6.7      1.541      2.443
REMARK  Name = 
REMARK  17 active torsions:
REMARK  status: ('A' for Active; 'I' for Inactive)
REMARK    1  A    between atoms: N_10  and  C_11
REMARK    2  A    between atoms: C_14  and  C_16
REMARK    3  A    between atoms: C_16  and  O_17
REMARK    4  A    between atoms: O_17  and  P_18
REMARK    5  A    between atoms: P_18  and  O_19
REMARK    6  A    between atoms: P_18  and  O_21
REMARK    7  A    between atoms: O_21  and  P_22
REMARK    8  A    between atoms: P_22  and  O_23
REMARK    9  A    between atoms: P_22  and  C_25
REMARK   10  A    between atoms: C_25  and  P_26
REMARK   11  A    between atoms: P_26  and  O_27
REMARK   12  A    between atoms: P_26  and  O_29
REMARK   13  A    between atoms: O_29  and  P_30
REMARK   14  A    between atoms: P_30  and  O_31
REMARK   15  A    between atoms: P_30  and  O_32
REMARK   16  A    between atoms: C_34  and  O_36
REMARK   17  A    between atoms: C_37  and  O_39
REMARK                            x       y       z     vdW  Elec       q    Type
REMARK                         _______ _______ _______ _____ _____    ______ ____
ROOT
ATOM      1  C   UNL     1       6.069  -3.684  23.820  0.00  0.00    +0.206 C 
ENDROOT
BRANCH   1   5
ATOM      2  C   UNL     1       9.634  -2.786  23.907  0.00  0.00    +0.253 C 
ATOM      3  C   UNL     1       9.625  -3.743  25.121  0.00  0.00    +0.195 C 
ATOM      4  C   UNL     1       8.137  -4.035  25.382  0.00  0.00    +0.178 C 
ATOM      5  C   UNL     1       7.438  -3.220  24.296  0.00  0.00    +0.178 C 
ATOM      6  O   UNL     1       8.398  -3.141  23.225  0.00  0.00    -0.346 OA
BRANCH   2  14
ATOM      7  N   UNL     1       9.814   3.276  23.832  0.00  0.00    -0.341 N 
ATOM      8  H   UNL     1       9.654   3.259  24.833  0.00  0.00    +0.144 HD
ATOM      9  H   UNL     1       9.399   4.027  23.299  0.00  0.00    +0.144 HD
ATOM     10  C   UNL     1       9.621   2.038  23.229  0.00  0.00    +0.147 A 
ATOM     11  C   UNL     1       9.651   0.828  23.941  0.00  0.00    +0.147 A 
ATOM     12  N   UNL     1       9.833   0.555  25.278  0.00  0.00    -0.231 NA
ATOM     13  C   UNL     1       9.784  -0.754  25.354  0.00  0.00    +0.203 A 
ATOM     14  N   UNL     1       9.599  -1.348  24.122  0.00  0.00    -0.286 N 
ATOM     15  C   UNL     1       9.465  -0.339  23.212  0.00  0.00    +0.167 A 
ATOM     16  N   UNL     1       9.234  -0.427  21.893  0.00  0.00    -0.216 NA
ATOM     17  C   UNL     1       9.214   0.792  21.318  0.00  0.00    +0.225 A 
ATOM     18  N   UNL     1       9.383   1.999  21.901  0.00  0.00    -0.219 NA
ENDBRANCH   2  14
BRANCH   4  19
ATOM     19  O   UNL     1       7.733  -3.558  26.663  0.00  0.00    -0.386 OA
ATOM     20  H   UNL     1       7.957  -2.611  26.715  0.00  0.00    +0.210 HD
ENDBRANCH   4  19
BRANCH   3  21
ATOM     21  O   UNL     1      10.283  -4.982  24.767  0.00  0.00    -0.385 OA
ATOM     22  H   UNL     1      10.075  -5.643  25.454  0.00  0.00    +0.210 HD
ENDBRANCH   3  21
ENDBRANCH   1   5
BRANCH   1  23
ATOM     23  O   UNL     1       5.921  -5.085  23.733  0.00  0.00    -0.284 OA
BRANCH  23  24
ATOM     24  P   UNL     1       5.459  -5.589  22.262  0.00  0.00    +0.482 P 
ATOM     25  O   UNL     1       5.685  -4.581  21.183  0.00  0.00    -0.227 OA
BRANCH  24  26
ATOM     26  O   UNL     1       6.347  -6.897  22.095  0.00  0.00    -0.302 OA
ATOM     27  H   UNL     1       6.992  -6.806  21.370  0.00  0.00    +0.222 HD
ENDBRANCH  24  26
BRANCH  24  28
ATOM     28  O   UNL     1       3.983  -6.050  22.548  0.00  0.00    -0.208 OA
BRANCH  28  29
ATOM     29  P   UNL     1       3.154  -6.557  23.980  0.00  0.00    +0.350 P 
ATOM     30  O   UNL     1       4.284  -7.538  24.324  0.00  0.00    -0.258 OA
BRANCH  29  31
ATOM     31  O   UNL     1       2.154  -7.465  23.034  0.00  0.00    -0.323 OA
ATOM     32  H   UNL     1       1.502  -6.857  22.628  0.00  0.00    +0.220 HD
ENDBRANCH  29  31
BRANCH  29  33
ATOM     33  C   UNL     1       2.278  -7.093  25.495  0.00  0.00    +0.254 C 
BRANCH  33  34
ATOM     34  P   UNL     1       2.569  -6.203  26.965  0.00  0.00    +0.350 P 
ATOM     35  O   UNL     1       2.747  -4.717  26.969  0.00  0.00    -0.258 OA
BRANCH  34  36
ATOM     36  O   UNL     1       1.430  -6.654  28.003  0.00  0.00    -0.323 OA
ATOM     37  H   UNL     1       0.759  -7.237  27.596  0.00  0.00    +0.220 HD
ENDBRANCH  34  36
BRANCH  34  38
ATOM     38  O   UNL     1       3.859  -7.001  27.453  0.00  0.00    -0.208 OA
BRANCH  38  39
ATOM     39  P   UNL     1       5.265  -6.166  28.017  0.00  0.00    +0.479 P 
ATOM     40  O   UNL     1       6.523  -5.418  28.524  0.00  0.00    -0.227 OA
BRANCH  39  41
ATOM     41  O   UNL     1       5.913  -6.329  26.531  0.00  0.00    -0.302 OA
ATOM     42  H   UNL     1       5.268  -6.067  25.833  0.00  0.00    +0.222 HD
ENDBRANCH  39  41
BRANCH  39  43
ATOM     43  O   UNL     1       5.682  -7.644  28.572  0.00  0.00    -0.302 OA
ATOM     44  H   UNL     1       5.151  -7.914  29.342  0.00  0.00    +0.222 HD
ENDBRANCH  39  43
ENDBRANCH  38  39
ENDBRANCH  34  38
ENDBRANCH  33  34
ENDBRANCH  29  33
ENDBRANCH  28  29
ENDBRANCH  24  28
ENDBRANCH  23  24
ENDBRANCH   1  23
TORSDOF 17
ENDMDL
MODEL 7
REMARK VINA RESULT:      -6.6      1.928      4.430
REMARK  Name = 
REMARK  17 active torsions:
REMARK  status: ('A' for Active; 'I' for Inactive)
REMARK    1  A    between atoms: N_10  and  C_11
REMARK    2  A    between atoms: C_14  and  C_16
REMARK    3  A    between atoms: C_16  and  O_17
REMARK    4  A    between atoms: O_17  and  P_18
REMARK    5  A    between atoms: P_18  and  O_19
REMARK    6  A    between atoms: P_18  and  O_21
REMARK    7  A    between atoms: O_21  and  P_22
REMARK    8  A    between atoms: P_22  and  O_23
REMARK    9  A    between atoms: P_22  and  C_25
REMARK   10  A    between atoms: C_25  and  P_26
REMARK   11  A    between atoms: P_26  and  O_27
REMARK   12  A    between atoms: P_26  and  O_29
REMARK   13  A    between atoms: O_29  and  P_30
REMARK   14  A    between atoms: P_30  and  O_31
REMARK   15  A    between atoms: P_30  and  O_32
REMARK   16  A    between atoms: C_34  and  O_36
REMARK   17  A    between atoms: C_37  and  O_39
REMARK                            x       y       z     vdW  Elec       q    Type
REMARK                         _______ _______ _______ _____ _____    ______ ____
ROOT
ATOM      1  C   UNL     1       6.489  -4.442  27.275  0.00  0.00    +0.206 C 
ENDROOT
BRANCH   1   5
ATOM      2  C   UNL     1       7.481  -3.384  23.896  0.00  0.00    +0.253 C 
ATOM      3  C   UNL     1       8.288  -4.701  23.952  0.00  0.00    +0.195 C 
ATOM      4  C   UNL     1       8.177  -5.169  25.414  0.00  0.00    +0.178 C 
ATOM      5  C   UNL     1       7.321  -4.079  26.053  0.00  0.00    +0.178 C 
ATOM      6  O   UNL     1       6.519  -3.565  24.972  0.00  0.00    -0.346 OA
BRANCH   2  14
ATOM      7  N   UNL     1       9.473   2.320  24.427  0.00  0.00    -0.341 N 
ATOM      8  H   UNL     1      10.356   1.945  24.757  0.00  0.00    +0.144 HD
ATOM      9  H   UNL     1       9.149   3.189  24.827  0.00  0.00    +0.144 HD
ATOM     10  C   UNL     1       8.466   1.364  24.362  0.00  0.00    +0.147 A 
ATOM     11  C   UNL     1       8.723  -0.016  24.314  0.00  0.00    +0.147 A 
ATOM     12  N   UNL     1       9.899  -0.731  24.340  0.00  0.00    -0.231 NA
ATOM     13  C   UNL     1       9.522  -1.984  24.245  0.00  0.00    +0.203 A 
ATOM     14  N   UNL     1       8.152  -2.117  24.139  0.00  0.00    -0.286 N 
ATOM     15  C   UNL     1       7.624  -0.860  24.229  0.00  0.00    +0.167 A 
ATOM     16  N   UNL     1       6.334  -0.492  24.212  0.00  0.00    -0.216 NA
ATOM     17  C   UNL     1       6.208   0.849  24.275  0.00  0.00    +0.225 A 
ATOM     18  N   UNL     1       7.182   1.782  24.355  0.00  0.00    -0.219 NA
ENDBRANCH   2  14
BRANCH   4  19
ATOM     19  O   UNL     1       9.455  -5.196  26.047  0.00  0.00    -0.386 OA
ATOM     20  H   UNL     1       9.321  -5.051  27.000  0.00  0.00    +0.210 HD
ENDBRANCH   4  19
BRANCH   3  21
ATOM     21  O   UNL     1       7.661  -5.691  23.103  0.00  0.00    -0.385 OA
ATOM     22  H   UNL     1       6.729  -5.435  22.975  0.00  0.00    +0.210 HD
ENDBRANCH   3  21
ENDBRANCH   1   5
BRANCH   1  23
ATOM     23  O   UNL     1       5.784  -5.660  27.165  0.00  0.00    -0.284 OA
BRANCH  23  24
ATOM     24  P   UNL     1       5.447  -6.335  28.601  0.00  0.00    +0.482 P 
ATOM     25  O   UNL     1       6.063  -7.681  28.793  0.00  0.00    -0.227 OA
BRANCH  24  26
ATOM     26  O   UNL     1       6.019  -5.234  29.596  0.00  0.00    -0.302 OA
ATOM     27  H   UNL     1       5.414  -4.474  29.680  0.00  0.00    +0.222 HD
ENDBRANCH  24  26
BRANCH  24  28
ATOM     28  O   UNL     1       3.878  -6.227  28.626  0.00  0.00    -0.208 OA
BRANCH  28  29
ATOM     29  P   UNL     1       2.644  -6.595  27.470  0.00  0.00    +0.350 P 
ATOM     30  O   UNL     1       1.984  -7.582  28.444  0.00  0.00    -0.258 OA
BRANCH  29  31
ATOM     31  O   UNL     1       3.730  -7.542  26.668  0.00  0.00    -0.323 OA
ATOM     32  H   UNL     1       3.937  -7.097  25.820  0.00  0.00    +0.220 HD
ENDBRANCH  29  31
BRANCH  29  33
ATOM     33  C   UNL     1       1.339  -6.985  26.248  0.00  0.00    +0.254 C 
BRANCH  33  34
ATOM     34  P   UNL     1       1.804  -7.122  24.573  0.00  0.00    +0.350 P 
ATOM     35  O   UNL     1       2.571  -8.299  24.058  0.00  0.00    -0.258 OA
BRANCH  34  36
ATOM     36  O   UNL     1       0.473  -6.874  23.710  0.00  0.00    -0.323 OA
ATOM     37  H   UNL     1      -0.300  -6.647  24.265  0.00  0.00    +0.220 HD
ENDBRANCH  34  36
BRANCH  34  38
ATOM     38  O   UNL     1       2.593  -5.743  24.450  0.00  0.00    -0.208 OA
BRANCH  38  39
ATOM     39  P   UNL     1       3.849  -5.534  23.279  0.00  0.00    +0.479 P 
ATOM     40  O   UNL     1       4.973  -5.347  22.230  0.00  0.00    -0.227 OA
BRANCH  39  41
ATOM     41  O   UNL     1       4.893  -6.207  24.335  0.00  0.00    -0.302 OA
ATOM     42  H   UNL     1       5.377  -5.515  24.844  0.00  0.00    +0.222 HD
ENDBRANCH  39  41
BRANCH  39  43
ATOM     43  O   UNL     1       3.903  -4.022  23.892  0.00  0.00    -0.302 OA
ATOM     44  H   UNL     1       4.223  -3.370  23.245  0.00  0.00    +0.222 HD
ENDBRANCH  39  43
ENDBRANCH  38  39
ENDBRANCH  34  38
ENDBRANCH  33  34
ENDBRANCH  29  33
ENDBRANCH  28  29
ENDBRANCH  24  28
ENDBRANCH  23  24
ENDBRANCH   1  23
TORSDOF 17
ENDMDL
MODEL 8
REMARK VINA RESULT:      -6.5      4.850      8.390
REMARK  Name = 
REMARK  17 active torsions:
REMARK  status: ('A' for Active; 'I' for Inactive)
REMARK    1  A    between atoms: N_10  and  C_11
REMARK    2  A    between atoms: C_14  and  C_16
REMARK    3  A    between atoms: C_16  and  O_17
REMARK    4  A    between atoms: O_17  and  P_18
REMARK    5  A    between atoms: P_18  and  O_19
REMARK    6  A    between atoms: P_18  and  O_21
REMARK    7  A    between atoms: O_21  and  P_22
REMARK    8  A    between atoms: P_22  and  O_23
REMARK    9  A    between atoms: P_22  and  C_25
REMARK   10  A    between atoms: C_25  and  P_26
REMARK   11  A    between atoms: P_26  and  O_27
REMARK   12  A    between atoms: P_26  and  O_29
REMARK   13  A    between atoms: O_29  and  P_30
REMARK   14  A    between atoms: P_30  and  O_31
REMARK   15  A    between atoms: P_30  and  O_32
REMARK   16  A    between atoms: C_34  and  O_36
REMARK   17  A    between atoms: C_37  and  O_39
REMARK                            x       y       z     vdW  Elec       q    Type
REMARK                         _______ _______ _______ _____ _____    ______ ____
ROOT
ATOM      1  C   UNL     1       7.580  -1.702  26.287  0.00  0.00    +0.206 C 
ENDROOT
BRANCH   1   5
ATOM      2  C   UNL     1       7.975  -5.343  26.621  0.00  0.00    +0.253 C 
ATOM      3  C   UNL     1       8.452  -5.211  25.157  0.00  0.00    +0.195 C 
ATOM      4  C   UNL     1       8.123  -3.759  24.764  0.00  0.00    +0.178 C 
ATOM      5  C   UNL     1       7.491  -3.201  26.037  0.00  0.00    +0.178 C 
ATOM      6  O   UNL     1       8.075  -3.974  27.103  0.00  0.00    -0.346 OA
BRANCH   2  14
ATOM      7  N   UNL     1       2.716  -7.574  28.658  0.00  0.00    -0.341 N 
ATOM      8  H   UNL     1       2.319  -7.378  27.746  0.00  0.00    +0.144 HD
ATOM      9  H   UNL     1       2.122  -7.462  29.468  0.00  0.00    +0.144 HD
ATOM     10  C   UNL     1       3.968  -6.997  28.842  0.00  0.00    +0.147 A 
ATOM     11  C   UNL     1       4.784  -6.586  27.776  0.00  0.00    +0.147 A 
ATOM     12  N   UNL     1       4.593  -6.609  26.414  0.00  0.00    -0.231 NA
ATOM     13  C   UNL     1       5.704  -6.116  25.919  0.00  0.00    +0.203 A 
ATOM     14  N   UNL     1       6.619  -5.790  26.899  0.00  0.00    -0.286 N 
ATOM     15  C   UNL     1       6.020  -6.044  28.101  0.00  0.00    +0.167 A 
ATOM     16  N   UNL     1       6.508  -5.850  29.335  0.00  0.00    -0.216 NA
ATOM     17  C   UNL     1       5.637  -6.270  30.276  0.00  0.00    +0.225 A 
ATOM     18  N   UNL     1       4.413  -6.815  30.104  0.00  0.00    -0.219 NA
ENDBRANCH   2  14
BRANCH   4  19
ATOM     19  O   UNL     1       7.170  -3.713  23.706  0.00  0.00    -0.386 OA
ATOM     20  H   UNL     1       6.313  -4.009  24.060  0.00  0.00    +0.210 HD
ENDBRANCH   4  19
BRANCH   3  21
ATOM     21  O   UNL     1       9.887  -5.391  25.095  0.00  0.00    -0.385 OA
ATOM     22  H   UNL     1      10.107  -6.227  25.547  0.00  0.00    +0.210 HD
ENDBRANCH   3  21
ENDBRANCH   1   5
BRANCH   1  23
ATOM     23  O   UNL     1       6.728  -0.921  25.476  0.00  0.00    -0.284 OA
BRANCH  23  24
ATOM     24  P   UNL     1       5.916   0.210  26.308  0.00  0.00    +0.482 P 
ATOM     25  O   UNL     1       4.543   0.474  25.784  0.00  0.00    -0.227 OA
BRANCH  24  26
ATOM     26  O   UNL     1       5.922  -0.422  27.767  0.00  0.00    -0.302 OA
ATOM     27  H   UNL     1       6.090   0.251  28.452  0.00  0.00    +0.222 HD
ENDBRANCH  24  26
BRANCH  24  28
ATOM     28  O   UNL     1       6.952   1.394  26.301  0.00  0.00    -0.208 OA
BRANCH  28  29
ATOM     29  P   UNL     1       7.922   2.115  25.063  0.00  0.00    +0.350 P 
ATOM     30  O   UNL     1       7.305   3.494  25.339  0.00  0.00    -0.258 OA
BRANCH  29  31
ATOM     31  O   UNL     1       6.900   1.472  23.939  0.00  0.00    -0.323 OA
ATOM     32  H   UNL     1       7.282   0.617  23.650  0.00  0.00    +0.220 HD
ENDBRANCH  29  31
BRANCH  29  33
ATOM     33  C   UNL     1       8.948   2.878  23.753  0.00  0.00    +0.254 C 
BRANCH  33  34
ATOM     34  P   UNL     1       9.290   1.932  22.329  0.00  0.00    +0.350 P 
ATOM     35  O   UNL     1       8.253   1.677  21.279  0.00  0.00    -0.258 OA
BRANCH  34  36
ATOM     36  O   UNL     1      10.628   2.544  21.686  0.00  0.00    -0.323 OA
ATOM     37  H   UNL     1      11.289   1.858  21.469  0.00  0.00    +0.220 HD
ENDBRANCH  34  36
BRANCH  34  38
ATOM     38  O   UNL     1       9.795   0.609  23.060  0.00  0.00    -0.208 OA
BRANCH  38  39
ATOM     39  P   UNL     1       9.527  -0.953  22.366  0.00  0.00    +0.479 P 
ATOM     40  O   UNL     1       9.288  -2.351  21.743  0.00  0.00    -0.227 OA
BRANCH  39  41
ATOM     41  O   UNL     1       7.976  -0.865  22.860  0.00  0.00    -0.302 OA
ATOM     42  H   UNL     1       7.922  -0.641  23.818  0.00  0.00    +0.222 HD
ENDBRANCH  39  41
BRANCH  39  43
ATOM     43  O   UNL     1      10.151  -1.475  23.781  0.00  0.00    -0.302 OA
ATOM     44  H   UNL     1       9.517  -2.008  24.292  0.00  0.00    +0.222 HD
ENDBRANCH  39  43
ENDBRANCH  38  39
ENDBRANCH  34  38
ENDBRANCH  33  34
ENDBRANCH  29  33
ENDBRANCH  28  29
ENDBRANCH  24  28
ENDBRANCH  23  24
ENDBRANCH   1  23
TORSDOF 17
ENDMDL
MODEL 9
REMARK VINA RESULT:      -6.5      3.075      5.120
REMARK  Name = 
REMARK  17 active torsions:
REMARK  status: ('A' for Active; 'I' for Inactive)
REMARK    1  A    between atoms: N_10  and  C_11
REMARK    2  A    between atoms: C_14  and  C_16
REMARK    3  A    between atoms: C_16  and  O_17
REMARK    4  A    between atoms: O_17  and  P_18
REMARK    5  A    between atoms: P_18  and  O_19
REMARK    6  A    between atoms: P_18  and  O_21
REMARK    7  A    between atoms: O_21  and  P_22
REMARK    8  A    between atoms: P_22  and  O_23
REMARK    9  A    between atoms: P_22  and  C_25
REMARK   10  A    between atoms: C_25  and  P_26
REMARK   11  A    between atoms: P_26  and  O_27
REMARK   12  A    between atoms: P_26  and  O_29
REMARK   13  A    between atoms: O_29  and  P_30
REMARK   14  A    between atoms: P_30  and  O_31
REMARK   15  A    between atoms: P_30  and  O_32
REMARK   16  A    between atoms: C_34  and  O_36
REMARK   17  A    between atoms: C_37  and  O_39
REMARK                            x       y       z     vdW  Elec       q    Type
REMARK                         _______ _______ _______ _____ _____    ______ ____
ROOT
ATOM      1  C   UNL     1       5.703  -4.139  24.081  0.00  0.00    +0.206 C 
ENDROOT
BRANCH   1   5
ATOM      2  C   UNL     1       9.333  -3.560  24.214  0.00  0.00    +0.253 C 
ATOM      3  C   UNL     1       9.214  -4.458  25.466  0.00  0.00    +0.195 C 
ATOM      4  C   UNL     1       7.700  -4.605  25.705  0.00  0.00    +0.178 C 
ATOM      5  C   UNL     1       7.099  -3.780  24.570  0.00  0.00    +0.178 C 
ATOM      6  O   UNL     1       8.084  -3.833  23.519  0.00  0.00    -0.346 OA
BRANCH   2  14
ATOM      7  N   UNL     1      10.177   2.439  23.940  0.00  0.00    -0.341 N 
ATOM      8  H   UNL     1       9.876   2.491  24.907  0.00  0.00    +0.144 HD
ATOM      9  H   UNL     1       9.927   3.200  23.324  0.00  0.00    +0.144 HD
ATOM     10  C   UNL     1       9.939   1.197  23.362  0.00  0.00    +0.147 A 
ATOM     11  C   UNL     1       9.736   0.030  24.116  0.00  0.00    +0.147 A 
ATOM     12  N   UNL     1       9.694  -0.189  25.473  0.00  0.00    -0.231 NA
ATOM     13  C   UNL     1       9.494  -1.481  25.591  0.00  0.00    +0.203 A 
ATOM     14  N   UNL     1       9.423  -2.117  24.368  0.00  0.00    -0.286 N 
ATOM     15  C   UNL     1       9.531  -1.149  23.411  0.00  0.00    +0.167 A 
ATOM     16  N   UNL     1       9.482  -1.283  22.077  0.00  0.00    -0.216 NA
ATOM     17  C   UNL     1       9.677  -0.100  21.460  0.00  0.00    +0.225 A 
ATOM     18  N   UNL     1       9.891   1.113  22.015  0.00  0.00    -0.219 NA
ENDBRANCH   2  14
BRANCH   4  19
ATOM     19  O   UNL     1       7.316  -4.038  26.955  0.00  0.00    -0.386 OA
ATOM     20  H   UNL     1       8.126  -3.856  27.464  0.00  0.00    +0.210 HD
ENDBRANCH   4  19
BRANCH   3  21
ATOM     21  O   UNL     1       9.764  -5.766  25.180  0.00  0.00    -0.385 OA
ATOM     22  H   UNL     1       9.033  -6.411  25.190  0.00  0.00    +0.210 HD
ENDBRANCH   3  21
ENDBRANCH   1   5
BRANCH   1  23
ATOM     23  O   UNL     1       4.730  -3.140  24.298  0.00  0.00    -0.284 OA
BRANCH  23  24
ATOM     24  P   UNL     1       3.700  -3.502  25.498  0.00  0.00    +0.482 P 
ATOM     25  O   UNL     1       2.310  -3.008  25.268  0.00  0.00    -0.227 OA
BRANCH  24  26
ATOM     26  O   UNL     1       3.807  -5.088  25.523  0.00  0.00    -0.302 OA
ATOM     27  H   UNL     1       3.755  -5.468  24.626  0.00  0.00    +0.222 HD
ENDBRANCH  24  26
BRANCH  24  28
ATOM     28  O   UNL     1       4.484  -2.954  26.747  0.00  0.00    -0.208 OA
BRANCH  28  29
ATOM     29  P   UNL     1       4.841  -1.361  27.319  0.00  0.00    +0.350 P 
ATOM     30  O   UNL     1       3.814  -1.505  28.452  0.00  0.00    -0.258 OA
BRANCH  29  31
ATOM     31  O   UNL     1       3.938  -0.754  26.080  0.00  0.00    -0.323 OA
ATOM     32  H   UNL     1       4.426   0.011  25.708  0.00  0.00    +0.220 HD
ENDBRANCH  29  31
BRANCH  29  33
ATOM     33  C   UNL     1       5.218   0.325  27.925  0.00  0.00    +0.254 C 
BRANCH  33  34
ATOM     34  P   UNL     1       6.391   1.266  27.043  0.00  0.00    +0.350 P 
ATOM     35  O   UNL     1       6.206   2.731  26.793  0.00  0.00    -0.258 OA
BRANCH  34  36
ATOM     36  O   UNL     1       7.815   0.969  27.722  0.00  0.00    -0.323 OA
ATOM     37  H   UNL     1       8.361   1.774  27.821  0.00  0.00    +0.220 HD
ENDBRANCH  34  36
BRANCH  34  38
ATOM     38  O   UNL     1       6.419   0.391  25.712  0.00  0.00    -0.208 OA
BRANCH  38  39
ATOM     39  P   UNL     1       6.307   1.132  24.153  0.00  0.00    +0.479 P 
ATOM     40  O   UNL     1       6.209   1.796  22.758  0.00  0.00    -0.227 OA
BRANCH  39  41
ATOM     41  O   UNL     1       4.756   1.505  24.483  0.00  0.00    -0.302 OA
ATOM     42  H   UNL     1       4.266   1.744  23.662  0.00  0.00    +0.222 HD
ENDBRANCH  39  41
BRANCH  39  43
ATOM     43  O   UNL     1       6.036  -0.400  23.659  0.00  0.00    -0.302 OA
ATOM     44  H   UNL     1       5.874  -0.457  22.701  0.00  0.00    +0.222 HD
ENDBRANCH  39  43
ENDBRANCH  38  39
ENDBRANCH  34  38
ENDBRANCH  33  34
ENDBRANCH  29  33
ENDBRANCH  28  29
ENDBRANCH  24  28
ENDBRANCH  23  24
ENDBRANCH   1  23
TORSDOF 17
ENDMDL
