MODEL 1
REMARK VINA RESULT:      -4.4      0.000      0.000
REMARK  Name = 
REMARK  5 active torsions:
REMARK  status: ('A' for Active; 'I' for Inactive)
REMARK    1  A    between atoms: C_1  and  C_2
REMARK    2  A    between atoms: C_2  and  O_3
REMARK    3  A    between atoms: C_6  and  O_8
REMARK    4  A    between atoms: C_9  and  O_10
REMARK    5  A    between atoms: C_9  and  O_11
REMARK                            x       y       z     vdW  Elec       q    Type
REMARK                         _______ _______ _______ _____ _____    ______ ____
ROOT
ATOM      1  C   UNL     1       9.480   2.405  24.316  0.00  0.00    +0.082 C 
ATOM      2  C   UNL     1       8.667   1.663  23.256  0.00  0.00    +0.246 C 
ATOM      3  C   UNL     1       9.444   1.403  21.931  0.00  0.00    +0.322 C 
ATOM      4  C   UNL     1       9.985  -0.032  22.102  0.00  0.00    +0.229 C 
ATOM      5  C   UNL     1       9.388  -0.521  23.417  0.00  0.00    +0.202 C 
ATOM      6  O   UNL     1       8.312   0.361  23.751  0.00  0.00    -0.340 OA
ENDROOT
BRANCH   2   7
ATOM      7  O   UNL     1       7.483   2.415  23.020  0.00  0.00    -0.359 OA
ATOM      8  H   UNL     1       7.545   3.167  23.645  0.00  0.00    +0.213 HD
ENDBRANCH   2   7
BRANCH   3   9
ATOM      9  O   UNL     1      10.432   2.377  21.654  0.00  0.00    -0.500 OA
ATOM     10  H   UNL     1      10.460   3.023  22.378  0.00  0.00    +0.288 HD
ENDBRANCH   3   9
BRANCH   3  11
ATOM     11  O   UNL     1       8.515   1.423  20.833  0.00  0.00    -0.500 OA
ATOM     12  H   UNL     1       9.010   1.838  20.100  0.00  0.00    +0.288 HD
ENDBRANCH   3  11
BRANCH   4  13
ATOM     13  O   UNL     1       9.564  -0.868  21.009  0.00  0.00    -0.382 OA
ATOM     14  H   UNL     1       8.973  -0.327  20.446  0.00  0.00    +0.210 HD
ENDBRANCH   4  13
TORSDOF 4
ENDMDL
MODEL 2
REMARK VINA RESULT:      -4.4      5.861      7.311
REMARK  Name = 
REMARK  5 active torsions:
REMARK  status: ('A' for Active; 'I' for Inactive)
REMARK    1  A    between atoms: C_1  and  C_2
REMARK    2  A    between atoms: C_2  and  O_3
REMARK    3  A    between atoms: C_6  and  O_8
REMARK    4  A    between atoms: C_9  and  O_10
REMARK    5  A    between atoms: C_9  and  O_11
REMARK                            x       y       z     vdW  Elec       q    Type
REMARK                         _______ _______ _______ _____ _____    ______ ____
ROOT
ATOM      1  C   UNL     1       9.422  -3.271  24.424  0.00  0.00    +0.082 C 
ATOM      2  C   UNL     1       9.088  -4.694  24.870  0.00  0.00    +0.246 C 
ATOM      3  C   UNL     1       8.088  -4.765  26.062  0.00  0.00    +0.322 C 
ATOM      4  C   UNL     1       6.721  -4.971  25.378  0.00  0.00    +0.229 C 
ATOM      5  C   UNL     1       7.044  -5.127  23.896  0.00  0.00    +0.202 C 
ATOM      6  O   UNL     1       8.446  -5.395  23.792  0.00  0.00    -0.340 OA
ENDROOT
BRANCH   2   7
ATOM      7  O   UNL     1      10.315  -5.342  25.188  0.00  0.00    -0.359 OA
ATOM      8  H   UNL     1      10.997  -4.657  25.032  0.00  0.00    +0.213 HD
ENDBRANCH   2   7
BRANCH   3   9
ATOM      9  O   UNL     1       8.154  -3.644  26.923  0.00  0.00    -0.500 OA
ATOM     10  H   UNL     1       9.072  -3.331  26.976  0.00  0.00    +0.288 HD
ENDBRANCH   3   9
BRANCH   3  11
ATOM     11  O   UNL     1       8.390  -5.924  26.858  0.00  0.00    -0.500 OA
ATOM     12  H   UNL     1       8.386  -5.598  27.779  0.00  0.00    +0.288 HD
ENDBRANCH   3  11
BRANCH   4  13
ATOM     13  O   UNL     1       6.070  -6.149  25.885  0.00  0.00    -0.382 OA
ATOM     14  H   UNL     1       6.453  -6.330  26.767  0.00  0.00    +0.210 HD
ENDBRANCH   4  13
TORSDOF 4
ENDMDL
MODEL 3
REMARK VINA RESULT:      -4.4      5.016      6.702
REMARK  Name = 
REMARK  5 active torsions:
REMARK  status: ('A' for Active; 'I' for Inactive)
REMARK    1  A    between atoms: C_1  and  C_2
REMARK    2  A    between atoms: C_2  and  O_3
REMARK    3  A    between atoms: C_6  and  O_8
REMARK    4  A    between atoms: C_9  and  O_10
REMARK    5  A    between atoms: C_9  and  O_11
REMARK                            x       y       z     vdW  Elec       q    Type
REMARK                         _______ _______ _______ _____ _____    ______ ____
ROOT
ATOM      1  C   UNL     1       6.431  -5.190  25.540  0.00  0.00    +0.082 C 
ATOM      2  C   UNL     1       7.913  -4.907  25.780  0.00  0.00    +0.246 C 
ATOM      3  C   UNL     1       8.775  -4.905  24.482  0.00  0.00    +0.322 C 
ATOM      4  C   UNL     1       8.851  -3.412  24.099  0.00  0.00    +0.229 C 
ATOM      5  C   UNL     1       8.158  -2.679  25.242  0.00  0.00    +0.202 C 
ATOM      6  O   UNL     1       8.065  -3.592  26.339  0.00  0.00    -0.340 OA
ENDROOT
BRANCH   2   7
ATOM      7  O   UNL     1       8.389  -5.873  26.711  0.00  0.00    -0.359 OA
ATOM      8  H   UNL     1       9.321  -5.615  26.871  0.00  0.00    +0.213 HD
ENDBRANCH   2   7
BRANCH   3   9
ATOM      9  O   UNL     1       8.269  -5.750  23.465  0.00  0.00    -0.500 OA
ATOM     10  H   UNL     1       8.422  -6.677  23.710  0.00  0.00    +0.288 HD
ENDBRANCH   3   9
BRANCH   3  11
ATOM     11  O   UNL     1      10.098  -5.373  24.797  0.00  0.00    -0.500 OA
ATOM     12  H   UNL     1      10.694  -4.691  24.432  0.00  0.00    +0.288 HD
ENDBRANCH   3  11
BRANCH   4  13
ATOM     13  O   UNL     1      10.220  -2.987  23.976  0.00  0.00    -0.382 OA
ATOM     14  H   UNL     1      10.768  -3.650  24.445  0.00  0.00    +0.210 HD
ENDBRANCH   4  13
TORSDOF 4
ENDMDL
MODEL 4
REMARK VINA RESULT:      -4.4      5.319      6.670
REMARK  Name = 
REMARK  5 active torsions:
REMARK  status: ('A' for Active; 'I' for Inactive)
REMARK    1  A    between atoms: C_1  and  C_2
REMARK    2  A    between atoms: C_2  and  O_3
REMARK    3  A    between atoms: C_6  and  O_8
REMARK    4  A    between atoms: C_9  and  O_10
REMARK    5  A    between atoms: C_9  and  O_11
REMARK                            x       y       z     vdW  Elec       q    Type
REMARK                         _______ _______ _______ _____ _____    ______ ____
ROOT
ATOM      1  C   UNL     1       7.439  -3.569  23.103  0.00  0.00    +0.082 C 
ATOM      2  C   UNL     1       7.998  -4.726  23.930  0.00  0.00    +0.246 C 
ATOM      3  C   UNL     1       9.273  -4.360  24.747  0.00  0.00    +0.322 C 
ATOM      4  C   UNL     1       8.721  -4.011  26.145  0.00  0.00    +0.229 C 
ATOM      5  C   UNL     1       7.230  -4.318  26.065  0.00  0.00    +0.202 C 
ATOM      6  O   UNL     1       7.024  -5.131  24.906  0.00  0.00    -0.340 OA
ENDROOT
BRANCH   2   7
ATOM      7  O   UNL     1       8.250  -5.807  23.039  0.00  0.00    -0.359 OA
ATOM      8  H   UNL     1       8.770  -5.404  22.312  0.00  0.00    +0.213 HD
ENDBRANCH   2   7
BRANCH   3   9
ATOM      9  O   UNL     1      10.055  -3.342  24.151  0.00  0.00    -0.500 OA
ATOM     10  H   UNL     1      10.777  -3.096  24.752  0.00  0.00    +0.288 HD
ENDBRANCH   3   9
BRANCH   3  11
ATOM     11  O   UNL     1      10.111  -5.525  24.854  0.00  0.00    -0.500 OA
ATOM     12  H   UNL     1      11.021  -5.172  24.867  0.00  0.00    +0.288 HD
ENDBRANCH   3  11
BRANCH   4  13
ATOM     13  O   UNL     1       9.354  -4.815  27.157  0.00  0.00    -0.382 OA
ATOM     14  H   UNL     1       8.675  -5.005  27.837  0.00  0.00    +0.210 HD
ENDBRANCH   4  13
TORSDOF 4
ENDMDL
MODEL 5
REMARK VINA RESULT:      -4.2      1.354      2.893
REMARK  Name = 
REMARK  5 active torsions:
REMARK  status: ('A' for Active; 'I' for Inactive)
REMARK    1  A    between atoms: C_1  and  C_2
REMARK    2  A    between atoms: C_2  and  O_3
REMARK    3  A    between atoms: C_6  and  O_8
REMARK    4  A    between atoms: C_9  and  O_10
REMARK    5  A    between atoms: C_9  and  O_11
REMARK                            x       y       z     vdW  Elec       q    Type
REMARK                         _______ _______ _______ _____ _____    ______ ____
ROOT
ATOM      1  C   UNL     1       8.201  -0.693  22.979  0.00  0.00    +0.082 C 
ATOM      2  C   UNL     1       9.454   0.030  22.484  0.00  0.00    +0.246 C 
ATOM      3  C   UNL     1       9.333   1.584  22.496  0.00  0.00    +0.322 C 
ATOM      4  C   UNL     1       9.983   1.988  23.836  0.00  0.00    +0.229 C 
ATOM      5  C   UNL     1      10.527   0.688  24.416  0.00  0.00    +0.202 C 
ATOM      6  O   UNL     1      10.556  -0.273  23.356  0.00  0.00    -0.340 OA
ENDROOT
BRANCH   2   7
ATOM      7  O   UNL     1       9.740  -0.454  21.177  0.00  0.00    -0.359 OA
ATOM      8  H   UNL     1       9.834   0.357  20.635  0.00  0.00    +0.213 HD
ENDBRANCH   2   7
BRANCH   3   9
ATOM      9  O   UNL     1       8.009   2.050  22.318  0.00  0.00    -0.500 OA
ATOM     10  H   UNL     1       7.831   2.162  21.370  0.00  0.00    +0.288 HD
ENDBRANCH   3   9
BRANCH   3  11
ATOM     11  O   UNL     1      10.116   2.122  21.417  0.00  0.00    -0.500 OA
ATOM     12  H   UNL     1       9.463   2.345  20.726  0.00  0.00    +0.288 HD
ENDBRANCH   3  11
BRANCH   4  13
ATOM     13  O   UNL     1      11.045   2.935  23.621  0.00  0.00    -0.382 OA
ATOM     14  H   UNL     1      10.843   3.720  24.169  0.00  0.00    +0.210 HD
ENDBRANCH   4  13
TORSDOF 4
ENDMDL
MODEL 6
REMARK VINA RESULT:      -4.1      1.513      3.081
REMARK  Name = 
REMARK  5 active torsions:
REMARK  status: ('A' for Active; 'I' for Inactive)
REMARK    1  A    between atoms: C_1  and  C_2
REMARK    2  A    between atoms: C_2  and  O_3
REMARK    3  A    between atoms: C_6  and  O_8
REMARK    4  A    between atoms: C_9  and  O_10
REMARK    5  A    between atoms: C_9  and  O_11
REMARK                            x       y       z     vdW  Elec       q    Type
REMARK                         _______ _______ _______ _____ _____    ______ ____
ROOT
ATOM      1  C   UNL     1       9.159  -1.051  24.824  0.00  0.00    +0.082 C 
ATOM      2  C   UNL     1       9.947  -0.724  23.556  0.00  0.00    +0.246 C 
ATOM      3  C   UNL     1       9.111   0.005  22.462  0.00  0.00    +0.322 C 
ATOM      4  C   UNL     1       9.431   1.496  22.695  0.00  0.00    +0.229 C 
ATOM      5  C   UNL     1      10.494   1.503  23.788  0.00  0.00    +0.202 C 
ATOM      6  O   UNL     1      11.020   0.176  23.879  0.00  0.00    -0.340 OA
ENDROOT
BRANCH   2   7
ATOM      7  O   UNL     1      10.488  -1.944  23.062  0.00  0.00    -0.359 OA
ATOM      8  H   UNL     1      10.122  -2.630  23.658  0.00  0.00    +0.213 HD
ENDBRANCH   2   7
BRANCH   3   9
ATOM      9  O   UNL     1       7.733  -0.315  22.496  0.00  0.00    -0.500 OA
ATOM     10  H   UNL     1       7.310  -0.006  21.678  0.00  0.00    +0.288 HD
ENDBRANCH   3   9
BRANCH   3  11
ATOM     11  O   UNL     1       9.600  -0.380  21.165  0.00  0.00    -0.500 OA
ATOM     12  H   UNL     1       9.892  -1.305  21.277  0.00  0.00    +0.288 HD
ENDBRANCH   3  11
BRANCH   4  13
ATOM     13  O   UNL     1       9.934   2.103  21.491  0.00  0.00    -0.382 OA
ATOM     14  H   UNL     1      10.890   1.897  21.445  0.00  0.00    +0.210 HD
ENDBRANCH   4  13
TORSDOF 4
ENDMDL
MODEL 7
REMARK VINA RESULT:      -4.1      6.286      7.249
REMARK  Name = 
REMARK  5 active torsions:
REMARK  status: ('A' for Active; 'I' for Inactive)
REMARK    1  A    between atoms: C_1  and  C_2
REMARK    2  A    between atoms: C_2  and  O_3
REMARK    3  A    between atoms: C_6  and  O_8
REMARK    4  A    between atoms: C_9  and  O_10
REMARK    5  A    between atoms: C_9  and  O_11
REMARK                            x       y       z     vdW  Elec       q    Type
REMARK                         _______ _______ _______ _____ _____    ______ ____
ROOT
ATOM      1  C   UNL     1       5.744  -5.130  25.945  0.00  0.00    +0.082 C 
ATOM      2  C   UNL     1       7.026  -4.300  25.898  0.00  0.00    +0.246 C 
ATOM      3  C   UNL     1       8.281  -5.043  26.449  0.00  0.00    +0.322 C 
ATOM      4  C   UNL     1       8.949  -5.615  25.182  0.00  0.00    +0.229 C 
ATOM      5  C   UNL     1       8.126  -5.067  24.022  0.00  0.00    +0.202 C 
ATOM      6  O   UNL     1       7.341  -3.984  24.532  0.00  0.00    -0.340 OA
ENDROOT
BRANCH   2   7
ATOM      7  O   UNL     1       6.785  -3.096  26.616  0.00  0.00    -0.359 OA
ATOM      8  H   UNL     1       7.617  -2.938  27.110  0.00  0.00    +0.213 HD
ENDBRANCH   2   7
BRANCH   3   9
ATOM      9  O   UNL     1       7.978  -6.004  27.442  0.00  0.00    -0.500 OA
ATOM     10  H   UNL     1       8.799  -6.296  27.870  0.00  0.00    +0.288 HD
ENDBRANCH   3   9
BRANCH   3  11
ATOM     11  O   UNL     1       9.166  -4.083  27.051  0.00  0.00    -0.500 OA
ATOM     12  H   UNL     1       9.587  -4.565  27.788  0.00  0.00    +0.288 HD
ENDBRANCH   3  11
BRANCH   4  13
ATOM     13  O   UNL     1      10.317  -5.179  25.088  0.00  0.00    -0.382 OA
ATOM     14  H   UNL     1      10.669  -5.523  24.241  0.00  0.00    +0.210 HD
ENDBRANCH   4  13
TORSDOF 4
ENDMDL
MODEL 8
REMARK VINA RESULT:      -4.0      1.588      2.910
REMARK  Name = 
REMARK  5 active torsions:
REMARK  status: ('A' for Active; 'I' for Inactive)
REMARK    1  A    between atoms: C_1  and  C_2
REMARK    2  A    between atoms: C_2  and  O_3
REMARK    3  A    between atoms: C_6  and  O_8
REMARK    4  A    between atoms: C_9  and  O_10
REMARK    5  A    between atoms: C_9  and  O_11
REMARK                            x       y       z     vdW  Elec       q    Type
REMARK                         _______ _______ _______ _____ _____    ______ ____
ROOT
ATOM      1  C   UNL     1       8.009   1.854  21.735  0.00  0.00    +0.082 C 
ATOM      2  C   UNL     1       9.422   1.623  22.270  0.00  0.00    +0.246 C 
ATOM      3  C   UNL     1       9.618   2.066  23.751  0.00  0.00    +0.322 C 
ATOM      4  C   UNL     1       9.416   0.762  24.550  0.00  0.00    +0.229 C 
ATOM      5  C   UNL     1       9.252  -0.324  23.493  0.00  0.00    +0.202 C 
ATOM      6  O   UNL     1       9.716   0.216  22.251  0.00  0.00    -0.340 OA
ENDROOT
BRANCH   2   7
ATOM      7  O   UNL     1      10.324   2.304  21.405  0.00  0.00    -0.359 OA
ATOM      8  H   UNL     1       9.779   3.004  20.990  0.00  0.00    +0.213 HD
ENDBRANCH   2   7
BRANCH   3   9
ATOM      9  O   UNL     1       8.773   3.133  24.139  0.00  0.00    -0.500 OA
ATOM     10  H   UNL     1       9.308   3.842  24.531  0.00  0.00    +0.288 HD
ENDBRANCH   3   9
BRANCH   3  11
ATOM     11  O   UNL     1      10.972   2.517  23.929  0.00  0.00    -0.500 OA
ATOM     12  H   UNL     1      11.507   1.699  23.922  0.00  0.00    +0.288 HD
ENDBRANCH   3  11
BRANCH   4  13
ATOM     13  O   UNL     1      10.558   0.494  25.383  0.00  0.00    -0.382 OA
ATOM     14  H   UNL     1      11.345   0.824  24.904  0.00  0.00    +0.210 HD
ENDBRANCH   4  13
TORSDOF 4
ENDMDL
MODEL 9
REMARK VINA RESULT:      -4.0      1.502      2.178
REMARK  Name = 
REMARK  5 active torsions:
REMARK  status: ('A' for Active; 'I' for Inactive)
REMARK    1  A    between atoms: C_1  and  C_2
REMARK    2  A    between atoms: C_2  and  O_3
REMARK    3  A    between atoms: C_6  and  O_8
REMARK    4  A    between atoms: C_9  and  O_10
REMARK    5  A    between atoms: C_9  and  O_11
REMARK                            x       y       z     vdW  Elec       q    Type
REMARK                         _______ _______ _______ _____ _____    ______ ____
ROOT
ATOM      1  C   UNL     1       9.312   2.152  23.641  0.00  0.00    +0.082 C 
ATOM      2  C   UNL     1       9.010   1.289  22.416  0.00  0.00    +0.246 C 
ATOM      3  C   UNL     1       9.516  -0.180  22.537  0.00  0.00    +0.322 C 
ATOM      4  C   UNL     1       8.273  -0.953  23.025  0.00  0.00    +0.229 C 
ATOM      5  C   UNL     1       7.147   0.075  23.024  0.00  0.00    +0.202 C 
ATOM      6  O   UNL     1       7.587   1.188  22.241  0.00  0.00    -0.340 OA
ENDROOT
BRANCH   2   7
ATOM      7  O   UNL     1       9.579   1.938  21.284  0.00  0.00    -0.359 OA
ATOM      8  H   UNL     1       9.534   2.892  21.504  0.00  0.00    +0.213 HD
ENDBRANCH   2   7
BRANCH   3   9
ATOM      9  O   UNL     1      10.658  -0.319  23.360  0.00  0.00    -0.500 OA
ATOM     10  H   UNL     1      10.728   0.451  23.948  0.00  0.00    +0.288 HD
ENDBRANCH   3   9
BRANCH   3  11
ATOM     11  O   UNL     1       9.879  -0.659  21.230  0.00  0.00    -0.500 OA
ATOM     12  H   UNL     1       9.336  -1.460  21.102  0.00  0.00    +0.288 HD
ENDBRANCH   3  11
BRANCH   4  13
ATOM     13  O   UNL     1       7.969  -2.042  22.136  0.00  0.00    -0.382 OA
ATOM     14  H   UNL     1       8.455  -1.875  21.302  0.00  0.00    +0.210 HD
ENDBRANCH   4  13
TORSDOF 4
ENDMDL
