MODEL 1
REMARK VINA RESULT:      -7.5      0.000      0.000
REMARK  Name = 
REMARK  8 active torsions:
REMARK  status: ('A' for Active; 'I' for Inactive)
REMARK    1  A    between atoms: C_2  and  C_3
REMARK    2  A    between atoms: C_2  and  C_5
REMARK    3  A    between atoms: C_2  and  C_19
REMARK    4  A    between atoms: C_3  and  C_4
REMARK    5  A    between atoms: C_5  and  N_6
REMARK    6  A    between atoms: C_7  and  C_9
REMARK    7  A    between atoms: C_12  and  S_15
REMARK    8  A    between atoms: S_15  and  N_16
REMARK                            x       y       z     vdW  Elec       q    Type
REMARK                         _______ _______ _______ _____ _____    ______ ____
ROOT
ATOM      1  N   UNL     1       7.989  -3.274  23.407  0.00  0.00    -0.311 N 
ATOM      2  H   UNL     1       7.349  -2.596  23.016  0.00  0.00    +0.149 HD
ATOM      3  C   UNL     1       9.235  -2.855  23.821  0.00  0.00    +0.244 C 
ATOM      4  O   UNL     1      10.144  -3.605  24.146  0.00  0.00    -0.270 OA
ENDROOT
BRANCH   3   5
ATOM      5  C   UNL     1       9.436  -1.378  23.810  0.00  0.00    +0.037 A 
ATOM      6  C   UNL     1       9.715  -0.732  22.601  0.00  0.00    +0.015 A 
ATOM      7  C   UNL     1       9.834   0.662  22.563  0.00  0.00    +0.029 A 
ATOM      8  C   UNL     1       9.696   1.400  23.744  0.00  0.00    +0.105 A 
ATOM      9  C   UNL     1       9.459   0.758  24.961  0.00  0.00    +0.029 A 
ATOM     10  C   UNL     1       9.337  -0.631  24.992  0.00  0.00    +0.015 A 
BRANCH   8  11
ATOM     11  S   UNL     1       9.723   3.169  23.703  0.00  0.00    +0.056 S 
ATOM     12  O   UNL     1      11.054   3.608  23.352  0.00  0.00    -0.153 OA
ATOM     13  O   UNL     1       9.018   3.682  24.853  0.00  0.00    -0.153 OA
BRANCH  11  14
ATOM     14  N   UNL     1       8.758   3.506  22.374  0.00  0.00    -0.204 NA
ATOM     15  H   UNL     1       9.338   3.610  21.541  0.00  0.00    +0.144 HD
ATOM     16  H   UNL     1       8.175   4.320  22.570  0.00  0.00    +0.144 HD
ENDBRANCH  11  14
ENDBRANCH   8  11
ENDBRANCH   3   5
BRANCH   1  17
ATOM     17  C   UNL     1       7.595  -4.672  23.353  0.00  0.00    +0.112 C 
BRANCH  17  18
ATOM     18  C   UNL     1       6.067  -4.910  23.357  0.00  0.00    +0.036 C 
BRANCH  18  19
ATOM     19  C   UNL     1       5.663  -5.599  24.665  0.00  0.00    -0.042 A 
ATOM     20  C   UNL     1       4.620  -6.539  24.701  0.00  0.00    +0.006 A 
ATOM     21  C   UNL     1       4.227  -7.164  25.889  0.00  0.00    +0.026 A 
ATOM     22  C   UNL     1       4.915  -6.822  27.055  0.00  0.00    +0.046 A 
ATOM     23  N   UNL     1       4.749  -7.268  28.347  0.00  0.00    -0.361 N 
ATOM     24  H   UNL     1       4.058  -7.949  28.633  0.00  0.00    +0.165 HD
ATOM     25  C   UNL     1       5.649  -6.659  29.180  0.00  0.00    +0.083 A 
ATOM     26  C   UNL     1       6.410  -5.802  28.417  0.00  0.00    +0.027 A 
ATOM     27  C   UNL     1       5.959  -5.898  27.070  0.00  0.00    -0.000 A 
ATOM     28  C   UNL     1       6.339  -5.283  25.859  0.00  0.00    +0.014 A 
ENDBRANCH  18  19
BRANCH  18  29
ATOM     29  C   UNL     1       5.540  -5.753  22.168  0.00  0.00    +0.006 C 
ATOM     30  C   UNL     1       6.447  -5.808  20.953  0.00  0.00    +0.004 C 
ENDBRANCH  18  29
ENDBRANCH  17  18
ENDBRANCH   1  17
TORSDOF 7
ENDMDL
MODEL 2
REMARK VINA RESULT:      -7.4      1.306      1.872
REMARK  Name = 
REMARK  8 active torsions:
REMARK  status: ('A' for Active; 'I' for Inactive)
REMARK    1  A    between atoms: C_2  and  C_3
REMARK    2  A    between atoms: C_2  and  C_5
REMARK    3  A    between atoms: C_2  and  C_19
REMARK    4  A    between atoms: C_3  and  C_4
REMARK    5  A    between atoms: C_5  and  N_6
REMARK    6  A    between atoms: C_7  and  C_9
REMARK    7  A    between atoms: C_12  and  S_15
REMARK    8  A    between atoms: S_15  and  N_16
REMARK                            x       y       z     vdW  Elec       q    Type
REMARK                         _______ _______ _______ _____ _____    ______ ____
ROOT
ATOM      1  N   UNL     1       8.277  -1.978  22.953  0.00  0.00    -0.311 N 
ATOM      2  H   UNL     1       7.483  -1.365  23.079  0.00  0.00    +0.149 HD
ATOM      3  C   UNL     1       9.538  -1.427  22.866  0.00  0.00    +0.244 C 
ATOM      4  O   UNL     1      10.542  -2.046  22.545  0.00  0.00    -0.270 OA
ENDROOT
BRANCH   3   5
ATOM      5  C   UNL     1       9.606   0.033  23.157  0.00  0.00    +0.037 A 
ATOM      6  C   UNL     1       9.994   0.917  22.145  0.00  0.00    +0.015 A 
ATOM      7  C   UNL     1       9.992   2.297  22.381  0.00  0.00    +0.029 A 
ATOM      8  C   UNL     1       9.625   2.782  23.641  0.00  0.00    +0.105 A 
ATOM      9  C   UNL     1       9.276   1.903  24.669  0.00  0.00    +0.029 A 
ATOM     10  C   UNL     1       9.275   0.529  24.426  0.00  0.00    +0.015 A 
BRANCH   8  11
ATOM     11  S   UNL     1       9.499   4.524  23.929  0.00  0.00    +0.056 S 
ATOM     12  O   UNL     1      10.769   5.140  23.622  0.00  0.00    -0.153 OA
ATOM     13  O   UNL     1       8.810   4.751  25.176  0.00  0.00    -0.153 OA
BRANCH  11  14
ATOM     14  N   UNL     1       8.445   5.006  22.718  0.00  0.00    -0.204 NA
ATOM     15  H   UNL     1       7.852   5.765  23.055  0.00  0.00    +0.144 HD
ATOM     16  H   UNL     1       7.921   4.200  22.376  0.00  0.00    +0.144 HD
ENDBRANCH  11  14
ENDBRANCH   8  11
ENDBRANCH   3   5
BRANCH   1  17
ATOM     17  C   UNL     1       8.004  -3.385  22.712  0.00  0.00    +0.112 C 
BRANCH  17  18
ATOM     18  C   UNL     1       6.595  -3.850  23.149  0.00  0.00    +0.036 C 
BRANCH  18  19
ATOM     19  C   UNL     1       6.678  -4.479  24.545  0.00  0.00    -0.042 A 
ATOM     20  C   UNL     1       7.836  -4.357  25.331  0.00  0.00    +0.006 A 
ATOM     21  C   UNL     1       7.935  -4.938  26.599  0.00  0.00    +0.026 A 
ATOM     22  C   UNL     1       6.830  -5.653  27.068  0.00  0.00    +0.046 A 
ATOM     23  N   UNL     1       6.645  -6.321  28.258  0.00  0.00    -0.361 N 
ATOM     24  H   UNL     1       7.336  -6.381  28.993  0.00  0.00    +0.165 HD
ATOM     25  C   UNL     1       5.398  -6.886  28.296  0.00  0.00    +0.083 A 
ATOM     26  C   UNL     1       4.765  -6.582  27.112  0.00  0.00    +0.027 A 
ATOM     27  C   UNL     1       5.658  -5.798  26.328  0.00  0.00    -0.000 A 
ATOM     28  C   UNL     1       5.581  -5.200  25.053  0.00  0.00    +0.014 A 
ENDBRANCH  18  19
BRANCH  18  29
ATOM     29  C   UNL     1       5.919  -4.860  22.188  0.00  0.00    +0.006 C 
ATOM     30  C   UNL     1       6.826  -5.942  21.632  0.00  0.00    +0.004 C 
ENDBRANCH  18  29
ENDBRANCH  17  18
ENDBRANCH   1  17
TORSDOF 7
ENDMDL
MODEL 3
REMARK VINA RESULT:      -7.3      1.086      1.232
REMARK  Name = 
REMARK  8 active torsions:
REMARK  status: ('A' for Active; 'I' for Inactive)
REMARK    1  A    between atoms: C_2  and  C_3
REMARK    2  A    between atoms: C_2  and  C_5
REMARK    3  A    between atoms: C_2  and  C_19
REMARK    4  A    between atoms: C_3  and  C_4
REMARK    5  A    between atoms: C_5  and  N_6
REMARK    6  A    between atoms: C_7  and  C_9
REMARK    7  A    between atoms: C_12  and  S_15
REMARK    8  A    between atoms: S_15  and  N_16
REMARK                            x       y       z     vdW  Elec       q    Type
REMARK                         _______ _______ _______ _____ _____    ______ ____
ROOT
ATOM      1  N   UNL     1       8.539  -2.719  24.024  0.00  0.00    -0.311 N 
ATOM      2  H   UNL     1       7.719  -2.197  24.301  0.00  0.00    +0.149 HD
ATOM      3  C   UNL     1       9.623  -2.037  23.513  0.00  0.00    +0.244 C 
ATOM      4  O   UNL     1      10.592  -2.570  22.990  0.00  0.00    -0.270 OA
ENDROOT
BRANCH   3   5
ATOM      5  C   UNL     1       9.529  -0.553  23.601  0.00  0.00    +0.037 A 
ATOM      6  C   UNL     1       9.730   0.218  22.450  0.00  0.00    +0.015 A 
ATOM      7  C   UNL     1       9.572   1.607  22.500  0.00  0.00    +0.029 A 
ATOM      8  C   UNL     1       9.236   2.222  23.711  0.00  0.00    +0.105 A 
ATOM      9  C   UNL     1       9.074   1.464  24.873  0.00  0.00    +0.029 A 
ATOM     10  C   UNL     1       9.228   0.078  24.816  0.00  0.00    +0.015 A 
BRANCH   8  11
ATOM     11  S   UNL     1       8.914   3.961  23.775  0.00  0.00    +0.056 S 
ATOM     12  O   UNL     1       8.681   4.342  25.149  0.00  0.00    -0.153 OA
ATOM     13  O   UNL     1       8.007   4.315  22.710  0.00  0.00    -0.153 OA
BRANCH  11  14
ATOM     14  N   UNL     1      10.402   4.611  23.359  0.00  0.00    -0.204 NA
ATOM     15  H   UNL     1      11.147   4.120  23.855  0.00  0.00    +0.144 HD
ATOM     16  H   UNL     1      10.396   5.617  23.523  0.00  0.00    +0.144 HD
ENDBRANCH  11  14
ENDBRANCH   8  11
ENDBRANCH   3   5
BRANCH   1  17
ATOM     17  C   UNL     1       8.445  -4.169  24.037  0.00  0.00    +0.112 C 
BRANCH  17  18
ATOM     18  C   UNL     1       7.122  -4.733  23.469  0.00  0.00    +0.036 C 
BRANCH  18  19
ATOM     19  C   UNL     1       6.336  -5.416  24.593  0.00  0.00    -0.042 A 
ATOM     20  C   UNL     1       5.179  -6.165  24.321  0.00  0.00    +0.006 A 
ATOM     21  C   UNL     1       4.440  -6.781  25.336  0.00  0.00    +0.026 A 
ATOM     22  C   UNL     1       4.895  -6.628  26.648  0.00  0.00    +0.046 A 
ATOM     23  N   UNL     1       4.378  -7.113  27.829  0.00  0.00    -0.361 N 
ATOM     24  H   UNL     1       3.545  -7.681  27.898  0.00  0.00    +0.165 HD
ATOM     25  C   UNL     1       5.153  -6.714  28.885  0.00  0.00    +0.083 A 
ATOM     26  C   UNL     1       6.188  -5.958  28.382  0.00  0.00    +0.027 A 
ATOM     27  C   UNL     1       6.039  -5.899  26.968  0.00  0.00    -0.000 A 
ATOM     28  C   UNL     1       6.769  -5.289  25.926  0.00  0.00    +0.014 A 
ENDBRANCH  18  19
BRANCH  18  29
ATOM     29  C   UNL     1       7.294  -5.737  22.301  0.00  0.00    +0.006 C 
ATOM     30  C   UNL     1       6.413  -5.490  21.091  0.00  0.00    +0.004 C 
ENDBRANCH  18  29
ENDBRANCH  17  18
ENDBRANCH   1  17
TORSDOF 7
ENDMDL
MODEL 4
REMARK VINA RESULT:      -7.2      3.669      9.100
REMARK  Name = 
REMARK  8 active torsions:
REMARK  status: ('A' for Active; 'I' for Inactive)
REMARK    1  A    between atoms: C_2  and  C_3
REMARK    2  A    between atoms: C_2  and  C_5
REMARK    3  A    between atoms: C_2  and  C_19
REMARK    4  A    between atoms: C_3  and  C_4
REMARK    5  A    between atoms: C_5  and  N_6
REMARK    6  A    between atoms: C_7  and  C_9
REMARK    7  A    between atoms: C_12  and  S_15
REMARK    8  A    between atoms: S_15  and  N_16
REMARK                            x       y       z     vdW  Elec       q    Type
REMARK                         _______ _______ _______ _____ _____    ______ ____
ROOT
ATOM      1  N   UNL     1       9.232  -1.325  24.641  0.00  0.00    -0.311 N 
ATOM      2  H   UNL     1       8.397  -1.133  25.176  0.00  0.00    +0.149 HD
ATOM      3  C   UNL     1       9.473  -2.615  24.218  0.00  0.00    +0.244 C 
ATOM      4  O   UNL     1      10.523  -2.995  23.718  0.00  0.00    -0.270 OA
ENDROOT
BRANCH   3   5
ATOM      5  C   UNL     1       8.353  -3.570  24.449  0.00  0.00    +0.037 A 
ATOM      6  C   UNL     1       8.350  -4.357  25.606  0.00  0.00    +0.015 A 
ATOM      7  C   UNL     1       7.269  -5.205  25.874  0.00  0.00    +0.029 A 
ATOM      8  C   UNL     1       6.207  -5.279  24.966  0.00  0.00    +0.105 A 
ATOM      9  C   UNL     1       6.223  -4.528  23.789  0.00  0.00    +0.029 A 
ATOM     10  C   UNL     1       7.300  -3.680  23.530  0.00  0.00    +0.015 A 
BRANCH   8  11
ATOM     11  S   UNL     1       4.776  -6.251  25.338  0.00  0.00    +0.056 S 
ATOM     12  O   UNL     1       3.612  -5.395  25.317  0.00  0.00    -0.153 OA
ATOM     13  O   UNL     1       5.071  -7.127  26.446  0.00  0.00    -0.153 OA
BRANCH  11  14
ATOM     14  N   UNL     1       4.654  -7.233  23.985  0.00  0.00    -0.204 NA
ATOM     15  H   UNL     1       5.561  -7.652  23.777  0.00  0.00    +0.144 HD
ATOM     16  H   UNL     1       4.263  -6.700  23.207  0.00  0.00    +0.144 HD
ENDBRANCH  11  14
ENDBRANCH   8  11
ENDBRANCH   3   5
BRANCH   1  17
ATOM     17  C   UNL     1      10.196  -0.247  24.498  0.00  0.00    +0.112 C 
BRANCH  17  18
ATOM     18  C   UNL     1       9.908   0.722  23.327  0.00  0.00    +0.036 C 
BRANCH  18  19
ATOM     19  C   UNL     1       9.545   2.101  23.886  0.00  0.00    -0.042 A 
ATOM     20  C   UNL     1       8.507   2.258  24.820  0.00  0.00    +0.006 A 
ATOM     21  C   UNL     1       8.151   3.512  25.328  0.00  0.00    +0.026 A 
ATOM     22  C   UNL     1       8.871   4.619  24.874  0.00  0.00    +0.046 A 
ATOM     23  N   UNL     1       8.743   5.952  25.193  0.00  0.00    -0.361 N 
ATOM     24  H   UNL     1       8.064   6.323  25.844  0.00  0.00    +0.165 HD
ATOM     25  C   UNL     1       9.665   6.696  24.505  0.00  0.00    +0.083 A 
ATOM     26  C   UNL     1      10.400   5.832  23.725  0.00  0.00    +0.027 A 
ATOM     27  C   UNL     1       9.911   4.514  23.952  0.00  0.00    -0.000 A 
ATOM     28  C   UNL     1      10.253   3.239  23.456  0.00  0.00    +0.014 A 
ENDBRANCH  18  19
BRANCH  18  29
ATOM     29  C   UNL     1       8.782   0.262  22.367  0.00  0.00    +0.006 C 
ATOM     30  C   UNL     1       9.241  -0.506  21.141  0.00  0.00    +0.004 C 
ENDBRANCH  18  29
ENDBRANCH  17  18
ENDBRANCH   1  17
TORSDOF 7
ENDMDL
MODEL 5
REMARK VINA RESULT:      -7.0      4.474      9.288
REMARK  Name = 
REMARK  8 active torsions:
REMARK  status: ('A' for Active; 'I' for Inactive)
REMARK    1  A    between atoms: C_2  and  C_3
REMARK    2  A    between atoms: C_2  and  C_5
REMARK    3  A    between atoms: C_2  and  C_19
REMARK    4  A    between atoms: C_3  and  C_4
REMARK    5  A    between atoms: C_5  and  N_6
REMARK    6  A    between atoms: C_7  and  C_9
REMARK    7  A    between atoms: C_12  and  S_15
REMARK    8  A    between atoms: S_15  and  N_16
REMARK                            x       y       z     vdW  Elec       q    Type
REMARK                         _______ _______ _______ _____ _____    ______ ____
ROOT
ATOM      1  N   UNL     1      10.556   2.155  23.759  0.00  0.00    -0.311 N 
ATOM      2  H   UNL     1      10.844   1.907  24.696  0.00  0.00    +0.149 HD
ATOM      3  C   UNL     1      10.065   1.172  22.928  0.00  0.00    +0.244 C 
ATOM      4  O   UNL     1       9.851   1.318  21.733  0.00  0.00    -0.270 OA
ENDROOT
BRANCH   3   5
ATOM      5  C   UNL     1       9.839  -0.148  23.583  0.00  0.00    +0.037 A 
ATOM      6  C   UNL     1       9.170  -0.199  24.811  0.00  0.00    +0.015 A 
ATOM      7  C   UNL     1       8.884  -1.435  25.402  0.00  0.00    +0.029 A 
ATOM      8  C   UNL     1       9.294  -2.614  24.771  0.00  0.00    +0.105 A 
ATOM      9  C   UNL     1       9.998  -2.569  23.566  0.00  0.00    +0.029 A 
ATOM     10  C   UNL     1      10.275  -1.335  22.978  0.00  0.00    +0.015 A 
BRANCH   8  11
ATOM     11  S   UNL     1       8.841  -4.190  25.437  0.00  0.00    +0.056 S 
ATOM     12  O   UNL     1       7.708  -4.700  24.700  0.00  0.00    -0.153 OA
ATOM     13  O   UNL     1       8.859  -4.121  26.878  0.00  0.00    -0.153 OA
BRANCH  11  14
ATOM     14  N   UNL     1      10.147  -5.146  24.999  0.00  0.00    -0.204 NA
ATOM     15  H   UNL     1      10.133  -6.018  25.529  0.00  0.00    +0.144 HD
ATOM     16  H   UNL     1      11.012  -4.616  25.106  0.00  0.00    +0.144 HD
ENDBRANCH  11  14
ENDBRANCH   8  11
ENDBRANCH   3   5
BRANCH   1  17
ATOM     17  C   UNL     1      10.836   3.510  23.312  0.00  0.00    +0.112 C 
BRANCH  17  18
ATOM     18  C   UNL     1      10.086   4.613  24.094  0.00  0.00    +0.036 C 
BRANCH  18  19
ATOM     19  C   UNL     1       8.659   4.740  23.551  0.00  0.00    -0.042 A 
ATOM     20  C   UNL     1       8.267   5.849  22.783  0.00  0.00    +0.006 A 
ATOM     21  C   UNL     1       6.965   5.989  22.293  0.00  0.00    +0.026 A 
ATOM     22  C   UNL     1       6.051   4.976  22.594  0.00  0.00    +0.046 A 
ATOM     23  N   UNL     1       4.723   4.848  22.253  0.00  0.00    -0.361 N 
ATOM     24  H   UNL     1       4.207   5.521  21.702  0.00  0.00    +0.165 HD
ATOM     25  C   UNL     1       4.211   3.686  22.766  0.00  0.00    +0.083 A 
ATOM     26  C   UNL     1       5.221   3.051  23.452  0.00  0.00    +0.027 A 
ATOM     27  C   UNL     1       6.392   3.854  23.348  0.00  0.00    -0.000 A 
ATOM     28  C   UNL     1       7.713   3.734  23.828  0.00  0.00    +0.014 A 
ENDBRANCH  18  19
BRANCH  18  29
ATOM     29  C   UNL     1      10.759   6.008  24.053  0.00  0.00    +0.006 C 
ATOM     30  C   UNL     1      12.277   6.002  24.032  0.00  0.00    +0.004 C 
ENDBRANCH  18  29
ENDBRANCH  17  18
ENDBRANCH   1  17
TORSDOF 7
ENDMDL
MODEL 6
REMARK VINA RESULT:      -6.9      3.658      8.377
REMARK  Name = 
REMARK  8 active torsions:
REMARK  status: ('A' for Active; 'I' for Inactive)
REMARK    1  A    between atoms: C_2  and  C_3
REMARK    2  A    between atoms: C_2  and  C_5
REMARK    3  A    between atoms: C_2  and  C_19
REMARK    4  A    between atoms: C_3  and  C_4
REMARK    5  A    between atoms: C_5  and  N_6
REMARK    6  A    between atoms: C_7  and  C_9
REMARK    7  A    between atoms: C_12  and  S_15
REMARK    8  A    between atoms: S_15  and  N_16
REMARK                            x       y       z     vdW  Elec       q    Type
REMARK                         _______ _______ _______ _____ _____    ______ ____
ROOT
ATOM      1  N   UNL     1       9.947  -0.284  24.450  0.00  0.00    -0.311 N 
ATOM      2  H   UNL     1       9.528  -0.101  25.352  0.00  0.00    +0.149 HD
ATOM      3  C   UNL     1       9.815  -1.538  23.894  0.00  0.00    +0.244 C 
ATOM      4  O   UNL     1      10.417  -1.923  22.902  0.00  0.00    -0.270 OA
ENDROOT
BRANCH   3   5
ATOM      5  C   UNL     1       8.890  -2.452  24.622  0.00  0.00    +0.037 A 
ATOM      6  C   UNL     1       8.682  -3.748  24.136  0.00  0.00    +0.015 A 
ATOM      7  C   UNL     1       7.874  -4.642  24.849  0.00  0.00    +0.029 A 
ATOM      8  C   UNL     1       7.259  -4.225  26.034  0.00  0.00    +0.105 A 
ATOM      9  C   UNL     1       7.429  -2.920  26.503  0.00  0.00    +0.029 A 
ATOM     10  C   UNL     1       8.239  -2.035  25.792  0.00  0.00    +0.015 A 
BRANCH   8  11
ATOM     11  S   UNL     1       6.332  -5.370  27.014  0.00  0.00    +0.056 S 
ATOM     12  O   UNL     1       5.773  -6.381  26.146  0.00  0.00    -0.153 OA
ATOM     13  O   UNL     1       5.531  -4.640  27.967  0.00  0.00    -0.153 OA
BRANCH  11  14
ATOM     14  N   UNL     1       7.535  -6.131  27.899  0.00  0.00    -0.204 NA
ATOM     15  H   UNL     1       7.313  -6.089  28.895  0.00  0.00    +0.144 HD
ATOM     16  H   UNL     1       8.442  -5.727  27.665  0.00  0.00    +0.144 HD
ENDBRANCH  11  14
ENDBRANCH   8  11
ENDBRANCH   3   5
BRANCH   1  17
ATOM     17  C   UNL     1      10.796   0.752  23.885  0.00  0.00    +0.112 C 
BRANCH  17  18
ATOM     18  C   UNL     1      10.282   2.194  24.103  0.00  0.00    +0.036 C 
BRANCH  18  19
ATOM     19  C   UNL     1       8.825   2.290  23.636  0.00  0.00    -0.042 A 
ATOM     20  C   UNL     1       8.485   2.147  22.280  0.00  0.00    +0.006 A 
ATOM     21  C   UNL     1       7.163   2.249  21.834  0.00  0.00    +0.026 A 
ATOM     22  C   UNL     1       6.177   2.499  22.791  0.00  0.00    +0.046 A 
ATOM     23  N   UNL     1       4.816   2.647  22.646  0.00  0.00    -0.361 N 
ATOM     24  H   UNL     1       4.325   2.589  21.764  0.00  0.00    +0.165 HD
ATOM     25  C   UNL     1       4.232   2.883  23.862  0.00  0.00    +0.083 A 
ATOM     26  C   UNL     1       5.229   2.891  24.811  0.00  0.00    +0.027 A 
ATOM     27  C   UNL     1       6.465   2.644  24.148  0.00  0.00    -0.000 A 
ATOM     28  C   UNL     1       7.805   2.535  24.574  0.00  0.00    +0.014 A 
ENDBRANCH  18  19
BRANCH  18  29
ATOM     29  C   UNL     1      11.108   3.292  23.386  0.00  0.00    +0.006 C 
ATOM     30  C   UNL     1      10.730   4.721  23.725  0.00  0.00    +0.004 C 
ENDBRANCH  18  29
ENDBRANCH  17  18
ENDBRANCH   1  17
TORSDOF 7
ENDMDL
MODEL 7
REMARK VINA RESULT:      -6.9      1.946      2.946
REMARK  Name = 
REMARK  8 active torsions:
REMARK  status: ('A' for Active; 'I' for Inactive)
REMARK    1  A    between atoms: C_2  and  C_3
REMARK    2  A    between atoms: C_2  and  C_5
REMARK    3  A    between atoms: C_2  and  C_19
REMARK    4  A    between atoms: C_3  and  C_4
REMARK    5  A    between atoms: C_5  and  N_6
REMARK    6  A    between atoms: C_7  and  C_9
REMARK    7  A    between atoms: C_12  and  S_15
REMARK    8  A    between atoms: S_15  and  N_16
REMARK                            x       y       z     vdW  Elec       q    Type
REMARK                         _______ _______ _______ _____ _____    ______ ____
ROOT
ATOM      1  N   UNL     1       8.344  -1.968  23.045  0.00  0.00    -0.311 N 
ATOM      2  H   UNL     1       7.515  -1.417  23.220  0.00  0.00    +0.149 HD
ATOM      3  C   UNL     1       9.547  -1.324  22.854  0.00  0.00    +0.244 C 
ATOM      4  O   UNL     1      10.571  -1.870  22.468  0.00  0.00    -0.270 OA
ENDROOT
BRANCH   3   5
ATOM      5  C   UNL     1       9.521   0.143  23.114  0.00  0.00    +0.037 A 
ATOM      6  C   UNL     1       9.771   1.032  22.062  0.00  0.00    +0.015 A 
ATOM      7  C   UNL     1       9.678   2.412  22.273  0.00  0.00    +0.029 A 
ATOM      8  C   UNL     1       9.359   2.896  23.546  0.00  0.00    +0.105 A 
ATOM      9  C   UNL     1       9.148   2.017  24.611  0.00  0.00    +0.029 A 
ATOM     10  C   UNL     1       9.237   0.642  24.393  0.00  0.00    +0.015 A 
BRANCH   8  11
ATOM     11  S   UNL     1       9.118   4.629  23.811  0.00  0.00    +0.056 S 
ATOM     12  O   UNL     1       9.031   4.876  25.232  0.00  0.00    -0.153 OA
ATOM     13  O   UNL     1       8.131   5.120  22.879  0.00  0.00    -0.153 OA
BRANCH  11  14
ATOM     14  N   UNL     1      10.587   5.269  23.318  0.00  0.00    -0.204 NA
ATOM     15  H   UNL     1      10.691   6.219  23.678  0.00  0.00    +0.144 HD
ATOM     16  H   UNL     1      10.666   5.206  22.303  0.00  0.00    +0.144 HD
ENDBRANCH  11  14
ENDBRANCH   8  11
ENDBRANCH   3   5
BRANCH   1  17
ATOM     17  C   UNL     1       8.165  -3.398  22.851  0.00  0.00    +0.112 C 
BRANCH  17  18
ATOM     18  C   UNL     1       7.889  -4.194  24.147  0.00  0.00    +0.036 C 
BRANCH  18  19
ATOM     19  C   UNL     1       6.609  -5.020  23.973  0.00  0.00    -0.042 A 
ATOM     20  C   UNL     1       6.005  -5.169  22.714  0.00  0.00    +0.006 A 
ATOM     21  C   UNL     1       4.828  -5.905  22.540  0.00  0.00    +0.026 A 
ATOM     22  C   UNL     1       4.265  -6.498  23.673  0.00  0.00    +0.046 A 
ATOM     23  N   UNL     1       3.130  -7.265  23.801  0.00  0.00    -0.361 N 
ATOM     24  H   UNL     1       2.517  -7.514  23.036  0.00  0.00    +0.165 HD
ATOM     25  C   UNL     1       2.954  -7.638  25.107  0.00  0.00    +0.083 A 
ATOM     26  C   UNL     1       3.990  -7.102  25.838  0.00  0.00    +0.027 A 
ATOM     27  C   UNL     1       4.830  -6.381  24.942  0.00  0.00    -0.000 A 
ATOM     28  C   UNL     1       6.018  -5.636  25.092  0.00  0.00    +0.014 A 
ENDBRANCH  18  19
BRANCH  18  29
ATOM     29  C   UNL     1       7.751  -3.326  25.424  0.00  0.00    +0.006 C 
ATOM     30  C   UNL     1       8.761  -3.611  26.520  0.00  0.00    +0.004 C 
ENDBRANCH  18  29
ENDBRANCH  17  18
ENDBRANCH   1  17
TORSDOF 7
ENDMDL
MODEL 8
REMARK VINA RESULT:      -6.8      3.745      8.992
REMARK  Name = 
REMARK  8 active torsions:
REMARK  status: ('A' for Active; 'I' for Inactive)
REMARK    1  A    between atoms: C_2  and  C_3
REMARK    2  A    between atoms: C_2  and  C_5
REMARK    3  A    between atoms: C_2  and  C_19
REMARK    4  A    between atoms: C_3  and  C_4
REMARK    5  A    between atoms: C_5  and  N_6
REMARK    6  A    between atoms: C_7  and  C_9
REMARK    7  A    between atoms: C_12  and  S_15
REMARK    8  A    between atoms: S_15  and  N_16
REMARK                            x       y       z     vdW  Elec       q    Type
REMARK                         _______ _______ _______ _____ _____    ______ ____
ROOT
ATOM      1  N   UNL     1       8.977  -0.995  24.420  0.00  0.00    -0.311 N 
ATOM      2  H   UNL     1       8.088  -0.649  24.753  0.00  0.00    +0.149 HD
ATOM      3  C   UNL     1       9.106  -2.337  24.134  0.00  0.00    +0.244 C 
ATOM      4  O   UNL     1      10.168  -2.895  23.893  0.00  0.00    -0.270 OA
ENDROOT
BRANCH   3   5
ATOM      5  C   UNL     1       7.835  -3.113  24.176  0.00  0.00    +0.037 A 
ATOM      6  C   UNL     1       6.732  -2.664  23.440  0.00  0.00    +0.015 A 
ATOM      7  C   UNL     1       5.555  -3.421  23.411  0.00  0.00    +0.029 A 
ATOM      8  C   UNL     1       5.480  -4.612  24.140  0.00  0.00    +0.105 A 
ATOM      9  C   UNL     1       6.562  -5.045  24.910  0.00  0.00    +0.029 A 
ATOM     10  C   UNL     1       7.735  -4.290  24.931  0.00  0.00    +0.015 A 
BRANCH   8  11
ATOM     11  S   UNL     1       4.048  -5.646  24.024  0.00  0.00    +0.056 S 
ATOM     12  O   UNL     1       3.332  -5.317  22.813  0.00  0.00    -0.153 OA
ATOM     13  O   UNL     1       3.401  -5.707  25.313  0.00  0.00    -0.153 OA
BRANCH  11  14
ATOM     14  N   UNL     1       4.724  -7.158  23.768  0.00  0.00    -0.204 NA
ATOM     15  H   UNL     1       5.722  -7.134  23.982  0.00  0.00    +0.144 HD
ATOM     16  H   UNL     1       4.517  -7.471  22.819  0.00  0.00    +0.144 HD
ENDBRANCH  11  14
ENDBRANCH   8  11
ENDBRANCH   3   5
BRANCH   1  17
ATOM     17  C   UNL     1      10.098  -0.070  24.423  0.00  0.00    +0.112 C 
BRANCH  17  18
ATOM     18  C   UNL     1      10.151   0.881  23.206  0.00  0.00    +0.036 C 
BRANCH  18  19
ATOM     19  C   UNL     1       9.959   2.326  23.680  0.00  0.00    -0.042 A 
ATOM     20  C   UNL     1      10.849   3.342  23.295  0.00  0.00    +0.006 A 
ATOM     21  C   UNL     1      10.699   4.662  23.732  0.00  0.00    +0.026 A 
ATOM     22  C   UNL     1       9.620   4.944  24.573  0.00  0.00    +0.046 A 
ATOM     23  N   UNL     1       9.230   6.132  25.150  0.00  0.00    -0.361 N 
ATOM     24  H   UNL     1       9.711   7.013  25.026  0.00  0.00    +0.165 HD
ATOM     25  C   UNL     1       8.104   5.946  25.907  0.00  0.00    +0.083 A 
ATOM     26  C   UNL     1       7.760   4.615  25.823  0.00  0.00    +0.027 A 
ATOM     27  C   UNL     1       8.707   3.971  24.979  0.00  0.00    -0.000 A 
ATOM     28  C   UNL     1       8.879   2.647  24.523  0.00  0.00    +0.014 A 
ENDBRANCH  18  19
BRANCH  18  29
ATOM     29  C   UNL     1       9.107   0.578  22.100  0.00  0.00    +0.006 C 
ATOM     30  C   UNL     1       9.498  -0.505  21.112  0.00  0.00    +0.004 C 
ENDBRANCH  18  29
ENDBRANCH  17  18
ENDBRANCH   1  17
TORSDOF 7
ENDMDL
MODEL 9
REMARK VINA RESULT:      -6.7      4.041      7.521
REMARK  Name = 
REMARK  8 active torsions:
REMARK  status: ('A' for Active; 'I' for Inactive)
REMARK    1  A    between atoms: C_2  and  C_3
REMARK    2  A    between atoms: C_2  and  C_5
REMARK    3  A    between atoms: C_2  and  C_19
REMARK    4  A    between atoms: C_3  and  C_4
REMARK    5  A    between atoms: C_5  and  N_6
REMARK    6  A    between atoms: C_7  and  C_9
REMARK    7  A    between atoms: C_12  and  S_15
REMARK    8  A    between atoms: S_15  and  N_16
REMARK                            x       y       z     vdW  Elec       q    Type
REMARK                         _______ _______ _______ _____ _____    ______ ____
ROOT
ATOM      1  N   UNL     1       8.737  -2.316  22.507  0.00  0.00    -0.311 N 
ATOM      2  H   UNL     1       7.915  -1.945  22.050  0.00  0.00    +0.149 HD
ATOM      3  C   UNL     1       8.594  -3.363  23.392  0.00  0.00    +0.244 C 
ATOM      4  O   UNL     1       9.482  -3.776  24.125  0.00  0.00    -0.270 OA
ENDROOT
BRANCH   3   5
ATOM      5  C   UNL     1       7.231  -3.964  23.437  0.00  0.00    +0.037 A 
ATOM      6  C   UNL     1       7.047  -5.282  23.004  0.00  0.00    +0.015 A 
ATOM      7  C   UNL     1       5.788  -5.885  23.109  0.00  0.00    +0.029 A 
ATOM      8  C   UNL     1       4.713  -5.154  23.627  0.00  0.00    +0.105 A 
ATOM      9  C   UNL     1       4.880  -3.826  24.024  0.00  0.00    +0.029 A 
ATOM     10  C   UNL     1       6.138  -3.232  23.921  0.00  0.00    +0.015 A 
BRANCH   8  11
ATOM     11  S   UNL     1       3.143  -5.930  23.882  0.00  0.00    +0.056 S 
ATOM     12  O   UNL     1       2.317  -5.705  22.718  0.00  0.00    -0.153 OA
ATOM     13  O   UNL     1       2.685  -5.648  25.221  0.00  0.00    -0.153 OA
BRANCH  11  14
ATOM     14  N   UNL     1       3.545  -7.557  23.858  0.00  0.00    -0.204 NA
ATOM     15  H   UNL     1       4.074  -7.797  24.697  0.00  0.00    +0.144 HD
ATOM     16  H   UNL     1       4.034  -7.778  22.990  0.00  0.00    +0.144 HD
ENDBRANCH  11  14
ENDBRANCH   8  11
ENDBRANCH   3   5
BRANCH   1  17
ATOM     17  C   UNL     1       9.989  -1.603  22.312  0.00  0.00    +0.112 C 
BRANCH  17  18
ATOM     18  C   UNL     1      10.022  -0.183  22.922  0.00  0.00    +0.036 C 
BRANCH  18  19
ATOM     19  C   UNL     1       9.065  -0.120  24.116  0.00  0.00    -0.042 A 
ATOM     20  C   UNL     1       9.486  -0.483  25.407  0.00  0.00    +0.006 A 
ATOM     21  C   UNL     1       8.621  -0.447  26.505  0.00  0.00    +0.026 A 
ATOM     22  C   UNL     1       7.307  -0.032  26.278  0.00  0.00    +0.046 A 
ATOM     23  N   UNL     1       6.253   0.098  27.154  0.00  0.00    -0.361 N 
ATOM     24  H   UNL     1       6.302  -0.105  28.143  0.00  0.00    +0.165 HD
ATOM     25  C   UNL     1       5.137   0.539  26.493  0.00  0.00    +0.083 A 
ATOM     26  C   UNL     1       5.472   0.695  25.166  0.00  0.00    +0.027 A 
ATOM     27  C   UNL     1       6.843   0.341  25.017  0.00  0.00    -0.000 A 
ATOM     28  C   UNL     1       7.735   0.300  23.925  0.00  0.00    +0.014 A 
ENDBRANCH  18  19
BRANCH  18  29
ATOM     29  C   UNL     1       9.661   0.956  21.934  0.00  0.00    +0.006 C 
ATOM     30  C   UNL     1      10.261   2.312  22.253  0.00  0.00    +0.004 C 
ENDBRANCH  18  29
ENDBRANCH  17  18
ENDBRANCH   1  17
TORSDOF 7
ENDMDL
