MODEL 1
REMARK VINA RESULT:      -5.9      0.000      0.000
REMARK  Name = 
REMARK  10 active torsions:
REMARK  status: ('A' for Active; 'I' for Inactive)
REMARK    1  A    between atoms: C_1  and  C_2
REMARK    2  A    between atoms: C_2  and  C_3
REMARK    3  A    between atoms: C_2  and  N_4
REMARK    4  A    between atoms: N_4  and  C_5
REMARK    5  A    between atoms: C_5  and  C_6
REMARK    6  A    between atoms: C_9  and  C_10
REMARK    7  A    between atoms: C_10  and  CA_11
REMARK    8  A    between atoms: CA_11  and  N_13
REMARK    9  A    between atoms: CA_11  and  C_14
REMARK   10  A    between atoms: C_14  and  O_15
REMARK                            x       y       z     vdW  Elec       q    Type
REMARK                         _______ _______ _______ _____ _____    ______ ____
ROOT
ATOM      1  C   UNL     1       9.807   0.075  22.712  0.00  0.00    -0.034 A 
ATOM      2  C   UNL     1       9.949  -0.271  24.063  0.00  0.00    +0.005 A 
ATOM      3  C   UNL     1       9.603  -1.549  24.515  0.00  0.00    +0.004 A 
ATOM      4  C   UNL     1       9.090  -2.499  23.627  0.00  0.00    -0.045 A 
ATOM      5  C   UNL     1       8.976  -2.170  22.271  0.00  0.00    +0.004 A 
ATOM      6  C   UNL     1       9.343  -0.899  21.816  0.00  0.00    +0.005 A 
ENDROOT
BRANCH   1   7
ATOM      7  C   UNL     1      10.114   1.482  22.237  0.00  0.00    +0.116 C 
BRANCH   7   8
ATOM      8  N   UNL     1       9.037   1.992  21.389  0.00  0.00    -0.310 NA
ATOM      9  H   UNL     1       9.447   2.552  20.642  0.00  0.00    +0.122 HD
BRANCH   8  11
ATOM     10  C   UNL     1       6.814   1.925  22.360  0.00  0.00    +0.023 C 
ATOM     11  C   UNL     1       8.044   2.802  22.104  0.00  0.00    +0.048 C 
ATOM     12  C   UNL     1       8.578   3.329  23.437  0.00  0.00    +0.023 C 
ENDBRANCH   8  11
ENDBRANCH   7   8
ENDBRANCH   1   7
BRANCH   4  13
ATOM     13  C   UNL     1       8.616  -3.845  24.130  0.00  0.00    +0.065 C 
BRANCH  13  14
ATOM     14  CA  UNL     1       9.328  -4.343  25.399  0.00  0.00    +0.165 C 
BRANCH  14  15
ATOM     15  N   UNL     1       9.995  -5.677  25.227  0.00  0.00    -0.318 NA
ATOM     16  H1  UNL     1       9.659  -6.283  25.983  0.00  0.00    +0.119 HD
ATOM     17  H2  UNL     1       9.600  -6.109  24.383  0.00  0.00    +0.119 HD
ENDBRANCH  14  15
BRANCH  14  18
ATOM     18  C   UNL     1       8.274  -4.474  26.512  0.00  0.00    +0.322 C 
ATOM     19  OXT UNL     1       7.453  -3.621  26.808  0.00  0.00    -0.249 OA
BRANCH  18  20
ATOM     20  O   UNL     1       8.348  -5.684  27.126  0.00  0.00    -0.480 OA
ATOM     21  H   UNL     1       7.935  -6.330  26.498  0.00  0.00    +0.295 HD
ENDBRANCH  18  20
ENDBRANCH  14  18
ENDBRANCH  13  14
ENDBRANCH   4  13
TORSDOF 8
ENDMDL
MODEL 2
REMARK VINA RESULT:      -5.9      2.887      3.955
REMARK  Name = 
REMARK  10 active torsions:
REMARK  status: ('A' for Active; 'I' for Inactive)
REMARK    1  A    between atoms: C_1  and  C_2
REMARK    2  A    between atoms: C_2  and  C_3
REMARK    3  A    between atoms: C_2  and  N_4
REMARK    4  A    between atoms: N_4  and  C_5
REMARK    5  A    between atoms: C_5  and  C_6
REMARK    6  A    between atoms: C_9  and  C_10
REMARK    7  A    between atoms: C_10  and  CA_11
REMARK    8  A    between atoms: CA_11  and  N_13
REMARK    9  A    between atoms: CA_11  and  C_14
REMARK   10  A    between atoms: C_14  and  O_15
REMARK                            x       y       z     vdW  Elec       q    Type
REMARK                         _______ _______ _______ _____ _____    ______ ____
ROOT
ATOM      1  C   UNL     1      10.378   2.282  23.409  0.00  0.00    -0.034 A 
ATOM      2  C   UNL     1      10.069   1.853  22.111  0.00  0.00    +0.005 A 
ATOM      3  C   UNL     1       9.819   0.502  21.845  0.00  0.00    +0.004 A 
ATOM      4  C   UNL     1       9.891  -0.447  22.868  0.00  0.00    -0.045 A 
ATOM      5  C   UNL     1      10.169  -0.020  24.173  0.00  0.00    +0.004 A 
ATOM      6  C   UNL     1      10.396   1.334  24.443  0.00  0.00    +0.005 A 
ENDROOT
BRANCH   1   7
ATOM      7  C   UNL     1      10.719   3.734  23.683  0.00  0.00    +0.116 C 
BRANCH   7   8
ATOM      8  N   UNL     1      11.645   4.251  22.675  0.00  0.00    -0.310 NA
ATOM      9  H   UNL     1      12.041   3.464  22.162  0.00  0.00    +0.122 HD
BRANCH   8  11
ATOM     10  C   UNL     1      13.452   5.749  22.057  0.00  0.00    +0.023 C 
ATOM     11  C   UNL     1      12.737   5.061  23.225  0.00  0.00    +0.048 C 
ATOM     12  C   UNL     1      12.235   6.121  24.208  0.00  0.00    +0.023 C 
ENDBRANCH   8  11
ENDBRANCH   7   8
ENDBRANCH   1   7
BRANCH   4  13
ATOM     13  C   UNL     1       9.727  -1.921  22.565  0.00  0.00    +0.065 C 
BRANCH  13  14
ATOM     14  CA  UNL     1       8.960  -2.713  23.637  0.00  0.00    +0.165 C 
BRANCH  14  15
ATOM     15  N   UNL     1       9.814  -3.704  24.374  0.00  0.00    -0.318 NA
ATOM     16  H1  UNL     1       9.294  -3.987  25.212  0.00  0.00    +0.119 HD
ATOM     17  H2  UNL     1       9.841  -4.563  23.811  0.00  0.00    +0.119 HD
ENDBRANCH  14  15
BRANCH  14  18
ATOM     18  C   UNL     1       7.828  -3.484  22.936  0.00  0.00    +0.322 C 
ATOM     19  OXT UNL     1       7.648  -4.688  23.006  0.00  0.00    -0.249 OA
BRANCH  18  20
ATOM     20  O   UNL     1       7.019  -2.648  22.233  0.00  0.00    -0.480 OA
ATOM     21  H   UNL     1       6.105  -3.021  22.321  0.00  0.00    +0.295 HD
ENDBRANCH  18  20
ENDBRANCH  14  18
ENDBRANCH  13  14
ENDBRANCH   4  13
TORSDOF 8
ENDMDL
MODEL 3
REMARK VINA RESULT:      -5.7      2.856      3.765
REMARK  Name = 
REMARK  10 active torsions:
REMARK  status: ('A' for Active; 'I' for Inactive)
REMARK    1  A    between atoms: C_1  and  C_2
REMARK    2  A    between atoms: C_2  and  C_3
REMARK    3  A    between atoms: C_2  and  N_4
REMARK    4  A    between atoms: N_4  and  C_5
REMARK    5  A    between atoms: C_5  and  C_6
REMARK    6  A    between atoms: C_9  and  C_10
REMARK    7  A    between atoms: C_10  and  CA_11
REMARK    8  A    between atoms: CA_11  and  N_13
REMARK    9  A    between atoms: CA_11  and  C_14
REMARK   10  A    between atoms: C_14  and  O_15
REMARK                            x       y       z     vdW  Elec       q    Type
REMARK                         _______ _______ _______ _____ _____    ______ ____
ROOT
ATOM      1  C   UNL     1      10.302   2.478  23.453  0.00  0.00    -0.034 A 
ATOM      2  C   UNL     1      10.620   1.557  24.460  0.00  0.00    +0.005 A 
ATOM      3  C   UNL     1      10.585   0.181  24.207  0.00  0.00    +0.004 A 
ATOM      4  C   UNL     1      10.212  -0.299  22.949  0.00  0.00    -0.045 A 
ATOM      5  C   UNL     1       9.923   0.618  21.930  0.00  0.00    +0.004 A 
ATOM      6  C   UNL     1       9.981   1.994  22.177  0.00  0.00    +0.005 A 
ENDROOT
BRANCH   1   7
ATOM      7  C   UNL     1      10.271   3.966  23.747  0.00  0.00    +0.116 C 
BRANCH   7   8
ATOM      8  N   UNL     1      11.153   4.696  22.837  0.00  0.00    -0.310 NA
ATOM      9  H   UNL     1      11.343   4.108  22.026  0.00  0.00    +0.122 HD
BRANCH   8  11
ATOM     10  C   UNL     1      13.344   5.600  22.314  0.00  0.00    +0.023 C 
ATOM     11  C   UNL     1      12.426   5.108  23.438  0.00  0.00    +0.048 C 
ATOM     12  C   UNL     1      12.246   6.222  24.470  0.00  0.00    +0.023 C 
ENDBRANCH   8  11
ENDBRANCH   7   8
ENDBRANCH   1   7
BRANCH   4  13
ATOM     13  C   UNL     1      10.069  -1.785  22.703  0.00  0.00    +0.065 C 
BRANCH  13  14
ATOM     14  CA  UNL     1       9.177  -2.520  23.717  0.00  0.00    +0.165 C 
BRANCH  14  15
ATOM     15  N   UNL     1       9.825  -3.736  24.313  0.00  0.00    -0.318 NA
ATOM     16  H1  UNL     1       9.264  -4.547  24.028  0.00  0.00    +0.119 HD
ATOM     17  H2  UNL     1      10.715  -3.880  23.822  0.00  0.00    +0.119 HD
ENDBRANCH  14  15
BRANCH  14  18
ATOM     18  C   UNL     1       7.899  -2.966  22.986  0.00  0.00    +0.322 C 
ATOM     19  OXT UNL     1       7.097  -2.219  22.450  0.00  0.00    -0.249 OA
BRANCH  18  20
ATOM     20  O   UNL     1       7.774  -4.320  22.985  0.00  0.00    -0.480 OA
ATOM     21  H   UNL     1       6.856  -4.505  22.661  0.00  0.00    +0.295 HD
ENDBRANCH  18  20
ENDBRANCH  14  18
ENDBRANCH  13  14
ENDBRANCH   4  13
TORSDOF 8
ENDMDL
MODEL 4
REMARK VINA RESULT:      -5.3      3.564      6.711
REMARK  Name = 
REMARK  10 active torsions:
REMARK  status: ('A' for Active; 'I' for Inactive)
REMARK    1  A    between atoms: C_1  and  C_2
REMARK    2  A    between atoms: C_2  and  C_3
REMARK    3  A    between atoms: C_2  and  N_4
REMARK    4  A    between atoms: N_4  and  C_5
REMARK    5  A    between atoms: C_5  and  C_6
REMARK    6  A    between atoms: C_9  and  C_10
REMARK    7  A    between atoms: C_10  and  CA_11
REMARK    8  A    between atoms: CA_11  and  N_13
REMARK    9  A    between atoms: CA_11  and  C_14
REMARK   10  A    between atoms: C_14  and  O_15
REMARK                            x       y       z     vdW  Elec       q    Type
REMARK                         _______ _______ _______ _____ _____    ______ ____
ROOT
ATOM      1  C   UNL     1       8.902  -2.575  24.731  0.00  0.00    -0.034 A 
ATOM      2  C   UNL     1       9.635  -2.320  23.565  0.00  0.00    +0.005 A 
ATOM      3  C   UNL     1      10.239  -1.074  23.358  0.00  0.00    +0.004 A 
ATOM      4  C   UNL     1      10.104  -0.056  24.306  0.00  0.00    -0.045 A 
ATOM      5  C   UNL     1       9.399  -0.316  25.487  0.00  0.00    +0.004 A 
ATOM      6  C   UNL     1       8.815  -1.569  25.704  0.00  0.00    +0.005 A 
ENDROOT
BRANCH   1   7
ATOM      7  C   UNL     1       8.188  -3.900  24.922  0.00  0.00    +0.116 C 
BRANCH   7   8
ATOM      8  N   UNL     1       8.326  -4.741  23.733  0.00  0.00    -0.310 NA
ATOM      9  H   UNL     1       8.748  -4.188  22.989  0.00  0.00    +0.122 HD
BRANCH   8  11
ATOM     10  C   UNL     1       5.986  -4.221  23.353  0.00  0.00    +0.023 C 
ATOM     11  C   UNL     1       7.061  -5.308  23.250  0.00  0.00    +0.048 C 
ATOM     12  C   UNL     1       7.157  -5.791  21.803  0.00  0.00    +0.023 C 
ENDBRANCH   8  11
ENDBRANCH   7   8
ENDBRANCH   1   7
BRANCH   4  13
ATOM     13  C   UNL     1      10.665   1.325  24.038  0.00  0.00    +0.065 C 
BRANCH  13  14
ATOM     14  CA  UNL     1       9.767   2.224  23.172  0.00  0.00    +0.165 C 
BRANCH  14  15
ATOM     15  N   UNL     1      10.103   2.176  21.710  0.00  0.00    -0.318 NA
ATOM     16  H1  UNL     1      10.492   1.246  21.520  0.00  0.00    +0.119 HD
ATOM     17  H2  UNL     1       9.217   2.173  21.192  0.00  0.00    +0.119 HD
ENDBRANCH  14  15
BRANCH  14  18
ATOM     18  C   UNL     1       9.940   3.673  23.658  0.00  0.00    +0.322 C 
ATOM     19  OXT UNL     1       9.219   4.236  24.465  0.00  0.00    -0.249 OA
BRANCH  18  20
ATOM     20  O   UNL     1      11.028   4.260  23.092  0.00  0.00    -0.480 OA
ATOM     21  H   UNL     1      11.748   3.581  23.125  0.00  0.00    +0.295 HD
ENDBRANCH  18  20
ENDBRANCH  14  18
ENDBRANCH  13  14
ENDBRANCH   4  13
TORSDOF 8
ENDMDL
MODEL 5
REMARK VINA RESULT:      -5.3      1.721      2.016
REMARK  Name = 
REMARK  10 active torsions:
REMARK  status: ('A' for Active; 'I' for Inactive)
REMARK    1  A    between atoms: C_1  and  C_2
REMARK    2  A    between atoms: C_2  and  C_3
REMARK    3  A    between atoms: C_2  and  N_4
REMARK    4  A    between atoms: N_4  and  C_5
REMARK    5  A    between atoms: C_5  and  C_6
REMARK    6  A    between atoms: C_9  and  C_10
REMARK    7  A    between atoms: C_10  and  CA_11
REMARK    8  A    between atoms: CA_11  and  N_13
REMARK    9  A    between atoms: CA_11  and  C_14
REMARK   10  A    between atoms: C_14  and  O_15
REMARK                            x       y       z     vdW  Elec       q    Type
REMARK                         _______ _______ _______ _____ _____    ______ ____
ROOT
ATOM      1  C   UNL     1       8.804  -0.649  22.682  0.00  0.00    -0.034 A 
ATOM      2  C   UNL     1       9.953  -1.318  23.123  0.00  0.00    +0.005 A 
ATOM      3  C   UNL     1       9.896  -2.200  24.209  0.00  0.00    +0.004 A 
ATOM      4  C   UNL     1       8.691  -2.414  24.884  0.00  0.00    -0.045 A 
ATOM      5  C   UNL     1       7.533  -1.772  24.427  0.00  0.00    +0.004 A 
ATOM      6  C   UNL     1       7.586  -0.908  23.328  0.00  0.00    +0.005 A 
ENDROOT
BRANCH   1   7
ATOM      7  C   UNL     1       8.882   0.360  21.552  0.00  0.00    +0.116 C 
BRANCH   7   8
ATOM      8  N   UNL     1       9.943   1.336  21.798  0.00  0.00    -0.310 NA
ATOM      9  H   UNL     1      10.686   0.884  22.329  0.00  0.00    +0.122 HD
BRANCH   8  11
ATOM     10  C   UNL     1       8.018   2.759  22.198  0.00  0.00    +0.023 C 
ATOM     11  C   UNL     1       9.499   2.535  22.519  0.00  0.00    +0.048 C 
ATOM     12  C   UNL     1       9.676   2.399  24.033  0.00  0.00    +0.023 C 
ENDBRANCH   8  11
ENDBRANCH   7   8
ENDBRANCH   1   7
BRANCH   4  13
ATOM     13  C   UNL     1       8.646  -3.283  26.122  0.00  0.00    +0.065 C 
BRANCH  13  14
ATOM     14  CA  UNL     1       8.073  -4.692  25.895  0.00  0.00    +0.165 C 
BRANCH  14  15
ATOM     15  N   UNL     1       8.048  -5.535  27.137  0.00  0.00    -0.318 NA
ATOM     16  H1  UNL     1       7.763  -6.479  26.855  0.00  0.00    +0.119 HD
ATOM     17  H2  UNL     1       9.021  -5.661  27.440  0.00  0.00    +0.119 HD
ENDBRANCH  14  15
BRANCH  14  18
ATOM     18  C   UNL     1       8.957  -5.399  24.853  0.00  0.00    +0.322 C 
ATOM     19  OXT UNL     1       8.630  -5.646  23.704  0.00  0.00    -0.249 OA
BRANCH  18  20
ATOM     20  O   UNL     1      10.180  -5.703  25.363  0.00  0.00    -0.480 OA
ATOM     21  H   UNL     1      10.006  -6.230  26.183  0.00  0.00    +0.295 HD
ENDBRANCH  18  20
ENDBRANCH  14  18
ENDBRANCH  13  14
ENDBRANCH   4  13
TORSDOF 8
ENDMDL
MODEL 6
REMARK VINA RESULT:      -5.2      1.854      2.356
REMARK  Name = 
REMARK  10 active torsions:
REMARK  status: ('A' for Active; 'I' for Inactive)
REMARK    1  A    between atoms: C_1  and  C_2
REMARK    2  A    between atoms: C_2  and  C_3
REMARK    3  A    between atoms: C_2  and  N_4
REMARK    4  A    between atoms: N_4  and  C_5
REMARK    5  A    between atoms: C_5  and  C_6
REMARK    6  A    between atoms: C_9  and  C_10
REMARK    7  A    between atoms: C_10  and  CA_11
REMARK    8  A    between atoms: CA_11  and  N_13
REMARK    9  A    between atoms: CA_11  and  C_14
REMARK   10  A    between atoms: C_14  and  O_15
REMARK                            x       y       z     vdW  Elec       q    Type
REMARK                         _______ _______ _______ _____ _____    ______ ____
ROOT
ATOM      1  C   UNL     1      10.113   1.124  23.250  0.00  0.00    -0.034 A 
ATOM      2  C   UNL     1      10.022   1.018  24.644  0.00  0.00    +0.005 A 
ATOM      3  C   UNL     1       9.564  -0.160  25.244  0.00  0.00    +0.004 A 
ATOM      4  C   UNL     1       9.171  -1.248  24.459  0.00  0.00    -0.045 A 
ATOM      5  C   UNL     1       9.289  -1.159  23.066  0.00  0.00    +0.004 A 
ATOM      6  C   UNL     1       9.768   0.012  22.468  0.00  0.00    +0.005 A 
ENDROOT
BRANCH   1   7
ATOM      7  C   UNL     1      10.541   2.426  22.599  0.00  0.00    +0.116 C 
BRANCH   7   8
ATOM      8  N   UNL     1       9.764   3.550  23.122  0.00  0.00    -0.310 NA
ATOM      9  H   UNL     1       9.277   3.999  22.348  0.00  0.00    +0.122 HD
BRANCH   8  11
ATOM     10  C   UNL     1      11.996   4.489  23.283  0.00  0.00    +0.023 C 
ATOM     11  C   UNL     1      10.567   4.554  23.830  0.00  0.00    +0.048 C 
ATOM     12  C   UNL     1      10.016   5.969  23.648  0.00  0.00    +0.023 C 
ENDBRANCH   8  11
ENDBRANCH   7   8
ENDBRANCH   1   7
BRANCH   4  13
ATOM     13  C   UNL     1       8.575  -2.484  25.098  0.00  0.00    +0.065 C 
BRANCH  13  14
ATOM     14  CA  UNL     1       9.225  -3.807  24.662  0.00  0.00    +0.165 C 
BRANCH  14  15
ATOM     15  N   UNL     1       8.416  -4.567  23.651  0.00  0.00    -0.318 NA
ATOM     16  H1  UNL     1       7.517  -4.791  24.092  0.00  0.00    +0.119 HD
ATOM     17  H2  UNL     1       8.157  -3.907  22.908  0.00  0.00    +0.119 HD
ENDBRANCH  14  15
BRANCH  14  18
ATOM     18  C   UNL     1       9.384  -4.690  25.911  0.00  0.00    +0.322 C 
ATOM     19  OXT UNL     1       8.715  -4.599  26.927  0.00  0.00    -0.249 OA
BRANCH  18  20
ATOM     20  O   UNL     1      10.360  -5.621  25.741  0.00  0.00    -0.480 OA
ATOM     21  H   UNL     1      10.662  -5.527  24.802  0.00  0.00    +0.295 HD
ENDBRANCH  18  20
ENDBRANCH  14  18
ENDBRANCH  13  14
ENDBRANCH   4  13
TORSDOF 8
ENDMDL
MODEL 7
REMARK VINA RESULT:      -5.2      3.488      6.911
REMARK  Name = 
REMARK  10 active torsions:
REMARK  status: ('A' for Active; 'I' for Inactive)
REMARK    1  A    between atoms: C_1  and  C_2
REMARK    2  A    between atoms: C_2  and  C_3
REMARK    3  A    between atoms: C_2  and  N_4
REMARK    4  A    between atoms: N_4  and  C_5
REMARK    5  A    between atoms: C_5  and  C_6
REMARK    6  A    between atoms: C_9  and  C_10
REMARK    7  A    between atoms: C_10  and  CA_11
REMARK    8  A    between atoms: CA_11  and  N_13
REMARK    9  A    between atoms: CA_11  and  C_14
REMARK   10  A    between atoms: C_14  and  O_15
REMARK                            x       y       z     vdW  Elec       q    Type
REMARK                         _______ _______ _______ _____ _____    ______ ____
ROOT
ATOM      1  C   UNL     1       9.934  -0.491  22.852  0.00  0.00    -0.034 A 
ATOM      2  C   UNL     1       9.762   0.435  21.815  0.00  0.00    +0.005 A 
ATOM      3  C   UNL     1       9.972   1.801  22.034  0.00  0.00    +0.004 A 
ATOM      4  C   UNL     1      10.338   2.268  23.299  0.00  0.00    -0.045 A 
ATOM      5  C   UNL     1      10.542   1.343  24.332  0.00  0.00    +0.004 A 
ATOM      6  C   UNL     1      10.354  -0.025  24.106  0.00  0.00    +0.005 A 
ENDROOT
BRANCH   1   7
ATOM      7  C   UNL     1       9.637  -1.963  22.633  0.00  0.00    +0.116 C 
BRANCH   7   8
ATOM      8  N   UNL     1      10.081  -2.760  23.776  0.00  0.00    -0.310 NA
ATOM      9  H   UNL     1      10.883  -3.320  23.491  0.00  0.00    +0.122 HD
BRANCH   8  11
ATOM     10  C   UNL     1       8.630  -3.094  25.693  0.00  0.00    +0.023 C 
ATOM     11  C   UNL     1       9.048  -3.645  24.326  0.00  0.00    +0.048 C 
ATOM     12  C   UNL     1       7.821  -3.738  23.418  0.00  0.00    +0.023 C 
ENDBRANCH   8  11
ENDBRANCH   7   8
ENDBRANCH   1   7
BRANCH   4  13
ATOM     13  C   UNL     1      10.462   3.752  23.567  0.00  0.00    +0.065 C 
BRANCH  13  14
ATOM     14  CA  UNL     1       9.124   4.510  23.602  0.00  0.00    +0.165 C 
BRANCH  14  15
ATOM     15  N   UNL     1       9.203   5.891  23.017  0.00  0.00    -0.318 NA
ATOM     16  H1  UNL     1      10.088   6.303  23.335  0.00  0.00    +0.119 HD
ATOM     17  H2  UNL     1       9.341   5.786  22.005  0.00  0.00    +0.119 HD
ENDBRANCH  14  15
BRANCH  14  18
ATOM     18  C   UNL     1       8.691   4.636  25.073  0.00  0.00    +0.322 C 
ATOM     19  OXT UNL     1       8.018   3.820  25.680  0.00  0.00    -0.249 OA
BRANCH  18  20
ATOM     20  O   UNL     1       9.173   5.775  25.637  0.00  0.00    -0.480 OA
ATOM     21  H   UNL     1       9.945   6.046  25.079  0.00  0.00    +0.295 HD
ENDBRANCH  18  20
ENDBRANCH  14  18
ENDBRANCH  13  14
ENDBRANCH   4  13
TORSDOF 8
ENDMDL
MODEL 8
REMARK VINA RESULT:      -5.2      4.476      7.139
REMARK  Name = 
REMARK  10 active torsions:
REMARK  status: ('A' for Active; 'I' for Inactive)
REMARK    1  A    between atoms: C_1  and  C_2
REMARK    2  A    between atoms: C_2  and  C_3
REMARK    3  A    between atoms: C_2  and  N_4
REMARK    4  A    between atoms: N_4  and  C_5
REMARK    5  A    between atoms: C_5  and  C_6
REMARK    6  A    between atoms: C_9  and  C_10
REMARK    7  A    between atoms: C_10  and  CA_11
REMARK    8  A    between atoms: CA_11  and  N_13
REMARK    9  A    between atoms: CA_11  and  C_14
REMARK   10  A    between atoms: C_14  and  O_15
REMARK                            x       y       z     vdW  Elec       q    Type
REMARK                         _______ _______ _______ _____ _____    ______ ____
ROOT
ATOM      1  C   UNL     1       9.673  -0.964  23.434  0.00  0.00    -0.034 A 
ATOM      2  C   UNL     1       9.666  -0.262  22.221  0.00  0.00    +0.005 A 
ATOM      3  C   UNL     1      10.062   1.079  22.169  0.00  0.00    +0.004 A 
ATOM      4  C   UNL     1      10.454   1.748  23.332  0.00  0.00    -0.045 A 
ATOM      5  C   UNL     1      10.493   1.042  24.541  0.00  0.00    +0.004 A 
ATOM      6  C   UNL     1      10.119  -0.305  24.589  0.00  0.00    +0.005 A 
ENDROOT
BRANCH   1   7
ATOM      7  C   UNL     1       9.176  -2.396  23.502  0.00  0.00    +0.116 C 
BRANCH   7   8
ATOM      8  N   UNL     1       8.182  -2.652  22.460  0.00  0.00    -0.310 NA
ATOM      9  H   UNL     1       7.829  -1.759  22.119  0.00  0.00    +0.122 HD
BRANCH   8  11
ATOM     10  C   UNL     1       5.892  -3.252  21.926  0.00  0.00    +0.023 C 
ATOM     11  C   UNL     1       7.051  -3.477  22.901  0.00  0.00    +0.048 C 
ATOM     12  C   UNL     1       7.401  -4.966  22.941  0.00  0.00    +0.023 C 
ENDBRANCH   8  11
ENDBRANCH   7   8
ENDBRANCH   1   7
BRANCH   4  13
ATOM     13  C   UNL     1      10.780   3.225  23.298  0.00  0.00    +0.065 C 
BRANCH  13  14
ATOM     14  CA  UNL     1       9.640   4.144  23.768  0.00  0.00    +0.165 C 
BRANCH  14  15
ATOM     15  N   UNL     1       8.412   4.063  22.908  0.00  0.00    -0.318 NA
ATOM     16  H1  UNL     1       7.661   4.551  23.408  0.00  0.00    +0.119 HD
ATOM     17  H2  UNL     1       8.575   4.657  22.086  0.00  0.00    +0.119 HD
ENDBRANCH  14  15
BRANCH  14  18
ATOM     18  C   UNL     1      10.156   5.593  23.733  0.00  0.00    +0.322 C 
ATOM     19  OXT UNL     1      11.140   6.004  24.325  0.00  0.00    -0.249 OA
BRANCH  18  20
ATOM     20  O   UNL     1       9.387   6.375  22.929  0.00  0.00    -0.480 OA
ATOM     21  H   UNL     1       8.452   6.087  23.088  0.00  0.00    +0.295 HD
ENDBRANCH  18  20
ENDBRANCH  14  18
ENDBRANCH  13  14
ENDBRANCH   4  13
TORSDOF 8
ENDMDL
MODEL 9
REMARK VINA RESULT:      -5.1      2.305      3.224
REMARK  Name = 
REMARK  10 active torsions:
REMARK  status: ('A' for Active; 'I' for Inactive)
REMARK    1  A    between atoms: C_1  and  C_2
REMARK    2  A    between atoms: C_2  and  C_3
REMARK    3  A    between atoms: C_2  and  N_4
REMARK    4  A    between atoms: N_4  and  C_5
REMARK    5  A    between atoms: C_5  and  C_6
REMARK    6  A    between atoms: C_9  and  C_10
REMARK    7  A    between atoms: C_10  and  CA_11
REMARK    8  A    between atoms: CA_11  and  N_13
REMARK    9  A    between atoms: CA_11  and  C_14
REMARK   10  A    between atoms: C_14  and  O_15
REMARK                            x       y       z     vdW  Elec       q    Type
REMARK                         _______ _______ _______ _____ _____    ______ ____
ROOT
ATOM      1  C   UNL     1      10.131   2.421  23.360  0.00  0.00    -0.034 A 
ATOM      2  C   UNL     1      10.470   1.452  24.314  0.00  0.00    +0.005 A 
ATOM      3  C   UNL     1      10.441   0.090  23.991  0.00  0.00    +0.004 A 
ATOM      4  C   UNL     1      10.056  -0.327  22.715  0.00  0.00    -0.045 A 
ATOM      5  C   UNL     1       9.747   0.638  21.748  0.00  0.00    +0.004 A 
ATOM      6  C   UNL     1       9.797   2.000  22.065  0.00  0.00    +0.005 A 
ENDROOT
BRANCH   1   7
ATOM      7  C   UNL     1      10.093   3.891  23.731  0.00  0.00    +0.116 C 
BRANCH   7   8
ATOM      8  N   UNL     1       8.825   4.233  24.376  0.00  0.00    -0.310 NA
ATOM      9  H   UNL     1       8.240   3.399  24.408  0.00  0.00    +0.122 HD
BRANCH   8  11
ATOM     10  C   UNL     1       9.091   6.398  23.311  0.00  0.00    +0.023 C 
ATOM     11  C   UNL     1       8.086   5.312  23.710  0.00  0.00    +0.048 C 
ATOM     12  C   UNL     1       7.344   4.824  22.465  0.00  0.00    +0.023 C 
ENDBRANCH   8  11
ENDBRANCH   7   8
ENDBRANCH   1   7
BRANCH   4  13
ATOM     13  C   UNL     1       9.921  -1.800  22.394  0.00  0.00    +0.065 C 
BRANCH  13  14
ATOM     14  CA  UNL     1       8.592  -2.434  22.838  0.00  0.00    +0.165 C 
BRANCH  14  15
ATOM     15  N   UNL     1       7.554  -1.427  23.241  0.00  0.00    -0.318 NA
ATOM     16  H1  UNL     1       7.505  -1.438  24.266  0.00  0.00    +0.119 HD
ATOM     17  H2  UNL     1       7.935  -0.496  23.033  0.00  0.00    +0.119 HD
ENDBRANCH  14  15
BRANCH  14  18
ATOM     18  C   UNL     1       8.880  -3.337  24.049  0.00  0.00    +0.322 C 
ATOM     19  OXT UNL     1       9.978  -3.767  24.361  0.00  0.00    -0.249 OA
BRANCH  18  20
ATOM     20  O   UNL     1       7.750  -3.589  24.762  0.00  0.00    -0.480 OA
ATOM     21  H   UNL     1       7.874  -4.490  25.154  0.00  0.00    +0.295 HD
ENDBRANCH  18  20
ENDBRANCH  14  18
ENDBRANCH  13  14
ENDBRANCH   4  13
TORSDOF 8
ENDMDL
