MODEL 1
REMARK VINA RESULT:      -7.0      0.000      0.000
REMARK  Name = 
REMARK  9 active torsions:
REMARK  status: ('A' for Active; 'I' for Inactive)
REMARK    1  A    between atoms: C_2  and  C_3
REMARK    2  A    between atoms: C_2  and  C_10
REMARK    3  A    between atoms: C_2  and  C_13
REMARK    4  A    between atoms: C_3  and  C_4
REMARK    5  A    between atoms: C_10  and  O_11
REMARK    6  A    between atoms: C_13  and  C_15
REMARK    7  A    between atoms: C_13  and  C_25
REMARK    8  A    between atoms: C_15  and  C_16
REMARK    9  A    between atoms: C_25  and  O_26
REMARK                            x       y       z     vdW  Elec       q    Type
REMARK                         _______ _______ _______ _____ _____    ______ ____
ROOT
ATOM      1  C   UNL     1       9.750  -0.144  23.678  0.00  0.00    +0.116 C 
ENDROOT
BRANCH   1   2
ATOM      2  C   UNL     1      10.417   0.215  25.002  0.00  0.00    +0.309 C 
ATOM      3  O   UNL     1      11.579   0.583  25.101  0.00  0.00    -0.251 OA
BRANCH   2   4
ATOM      4  O   UNL     1       9.643   0.002  26.088  0.00  0.00    -0.480 OA
ATOM      5  H   UNL     1       8.678  -0.074  25.899  0.00  0.00    +0.295 HD
ENDBRANCH   2   4
ENDBRANCH   1   2
BRANCH   1   6
ATOM      6  C   UNL     1       9.730   1.127  22.782  0.00  0.00    +0.116 C 
BRANCH   6   7
ATOM      7  C   UNL     1       9.065   0.822  21.453  0.00  0.00    +0.309 C 
ATOM      8  O   UNL     1       9.305  -0.188  20.804  0.00  0.00    -0.251 OA
BRANCH   7   9
ATOM      9  O   UNL     1       8.223   1.779  21.016  0.00  0.00    -0.480 OA
ATOM     10  H   UNL     1       7.405   1.466  20.585  0.00  0.00    +0.295 HD
ENDBRANCH   7   9
ENDBRANCH   6   7
BRANCH   6  11
ATOM     11  C   UNL     1       9.084   2.387  23.397  0.00  0.00    +0.050 C 
BRANCH  11  12
ATOM     12  C   UNL     1       9.960   3.607  23.569  0.00  0.00    -0.047 A 
ATOM     13  C   UNL     1       9.412   4.822  24.010  0.00  0.00    +0.003 A 
ATOM     14  C   UNL     1      10.209   5.964  24.130  0.00  0.00    +0.000 A 
ATOM     15  C   UNL     1      11.564   5.906  23.821  0.00  0.00    +0.000 A 
ATOM     16  C   UNL     1      12.123   4.706  23.385  0.00  0.00    +0.000 A 
ATOM     17  C   UNL     1      11.325   3.568  23.256  0.00  0.00    +0.003 A 
ENDBRANCH  11  12
ENDBRANCH   6  11
ENDBRANCH   1   6
BRANCH   1  18
ATOM     18  C   UNL     1       8.317  -0.654  23.959  0.00  0.00    +0.050 C 
BRANCH  18  19
ATOM     19  C   UNL     1       8.020  -2.081  23.543  0.00  0.00    -0.043 A 
ATOM     20  C   UNL     1       8.616  -3.162  24.235  0.00  0.00    +0.007 A 
ATOM     21  C   UNL     1       8.280  -4.488  23.939  0.00  0.00    +0.050 A 
ATOM     22  C   UNL     1       7.353  -4.708  22.947  0.00  0.00    +0.166 A 
ATOM     23  O   UNL     1       6.887  -5.921  22.546  0.00  0.00    -0.453 OA
ATOM     24  C   UNL     1       5.987  -5.529  21.490  0.00  0.00    +0.466 C 
ATOM     25  O   UNL     1       5.891  -4.099  21.319  0.00  0.00    -0.453 OA
ATOM     26  C   UNL     1       6.785  -3.668  22.250  0.00  0.00    +0.166 A 
ATOM     27  C   UNL     1       7.098  -2.349  22.519  0.00  0.00    +0.053 A 
ENDBRANCH  18  19
ENDBRANCH   1  18
TORSDOF 9
ENDMDL
MODEL 2
REMARK VINA RESULT:      -6.9      2.462      3.439
REMARK  Name = 
REMARK  9 active torsions:
REMARK  status: ('A' for Active; 'I' for Inactive)
REMARK    1  A    between atoms: C_2  and  C_3
REMARK    2  A    between atoms: C_2  and  C_10
REMARK    3  A    between atoms: C_2  and  C_13
REMARK    4  A    between atoms: C_3  and  C_4
REMARK    5  A    between atoms: C_10  and  O_11
REMARK    6  A    between atoms: C_13  and  C_15
REMARK    7  A    between atoms: C_13  and  C_25
REMARK    8  A    between atoms: C_15  and  C_16
REMARK    9  A    between atoms: C_25  and  O_26
REMARK                            x       y       z     vdW  Elec       q    Type
REMARK                         _______ _______ _______ _____ _____    ______ ____
ROOT
ATOM      1  C   UNL     1       8.662  -1.126  23.134  0.00  0.00    +0.116 C 
ENDROOT
BRANCH   1   2
ATOM      2  C   UNL     1       9.589  -0.857  21.953  0.00  0.00    +0.309 C 
ATOM      3  O   UNL     1       9.397   0.023  21.125  0.00  0.00    -0.251 OA
BRANCH   2   4
ATOM      4  O   UNL     1      10.603  -1.739  21.831  0.00  0.00    -0.480 OA
ATOM      5  H   UNL     1      11.462  -1.344  21.549  0.00  0.00    +0.295 HD
ENDBRANCH   2   4
ENDBRANCH   1   2
BRANCH   1   6
ATOM      6  C   UNL     1       7.993   0.217  23.544  0.00  0.00    +0.116 C 
BRANCH   6   7
ATOM      7  C   UNL     1       6.525  -0.001  23.855  0.00  0.00    +0.309 C 
ATOM      8  O   UNL     1       5.880   0.743  24.584  0.00  0.00    -0.251 OA
BRANCH   7   9
ATOM      9  O   UNL     1       5.994  -1.111  23.304  0.00  0.00    -0.480 OA
ATOM     10  H   UNL     1       5.031  -1.093  23.148  0.00  0.00    +0.295 HD
ENDBRANCH   7   9
ENDBRANCH   6   7
BRANCH   6  11
ATOM     11  C   UNL     1       8.653   0.982  24.711  0.00  0.00    +0.050 C 
BRANCH  11  12
ATOM     12  C   UNL     1       9.293   2.315  24.398  0.00  0.00    -0.047 A 
ATOM     13  C   UNL     1       8.656   3.514  24.755  0.00  0.00    +0.003 A 
ATOM     14  C   UNL     1       9.223   4.750  24.430  0.00  0.00    +0.000 A 
ATOM     15  C   UNL     1      10.438   4.805  23.754  0.00  0.00    +0.000 A 
ATOM     16  C   UNL     1      11.084   3.624  23.396  0.00  0.00    +0.000 A 
ATOM     17  C   UNL     1      10.513   2.389  23.711  0.00  0.00    +0.003 A 
ENDBRANCH  11  12
ENDBRANCH   6  11
ENDBRANCH   1   6
BRANCH   1  18
ATOM     18  C   UNL     1       9.492  -1.716  24.299  0.00  0.00    +0.050 C 
BRANCH  18  19
ATOM     19  C   UNL     1       8.897  -2.920  25.002  0.00  0.00    -0.043 A 
ATOM     20  C   UNL     1       9.478  -4.199  24.834  0.00  0.00    +0.007 A 
ATOM     21  C   UNL     1       9.013  -5.308  25.551  0.00  0.00    +0.050 A 
ATOM     22  C   UNL     1       7.967  -5.115  26.422  0.00  0.00    +0.166 A 
ATOM     23  O   UNL     1       7.407  -6.065  27.219  0.00  0.00    -0.453 OA
ATOM     24  C   UNL     1       6.371  -5.298  27.865  0.00  0.00    +0.466 C 
ATOM     25  O   UNL     1       6.369  -3.904  27.489  0.00  0.00    -0.453 OA
ATOM     26  C   UNL     1       7.378  -3.883  26.577  0.00  0.00    +0.166 A 
ATOM     27  C   UNL     1       7.813  -2.771  25.882  0.00  0.00    +0.053 A 
ENDBRANCH  18  19
ENDBRANCH   1  18
TORSDOF 9
ENDMDL
MODEL 3
REMARK VINA RESULT:      -6.9      2.781      8.266
REMARK  Name = 
REMARK  9 active torsions:
REMARK  status: ('A' for Active; 'I' for Inactive)
REMARK    1  A    between atoms: C_2  and  C_3
REMARK    2  A    between atoms: C_2  and  C_10
REMARK    3  A    between atoms: C_2  and  C_13
REMARK    4  A    between atoms: C_3  and  C_4
REMARK    5  A    between atoms: C_10  and  O_11
REMARK    6  A    between atoms: C_13  and  C_15
REMARK    7  A    between atoms: C_13  and  C_25
REMARK    8  A    between atoms: C_15  and  C_16
REMARK    9  A    between atoms: C_25  and  O_26
REMARK                            x       y       z     vdW  Elec       q    Type
REMARK                         _______ _______ _______ _____ _____    ______ ____
ROOT
ATOM      1  C   UNL     1       7.646  -4.166  22.797  0.00  0.00    +0.116 C 
ENDROOT
BRANCH   1   2
ATOM      2  C   UNL     1       6.765  -5.098  21.972  0.00  0.00    +0.309 C 
ATOM      3  O   UNL     1       6.961  -6.300  21.863  0.00  0.00    -0.251 OA
BRANCH   2   4
ATOM      4  O   UNL     1       5.789  -4.471  21.281  0.00  0.00    -0.480 OA
ATOM      5  H   UNL     1       5.095  -4.046  21.840  0.00  0.00    +0.295 HD
ENDBRANCH   2   4
ENDBRANCH   1   2
BRANCH   1   6
ATOM      6  C   UNL     1       7.835  -4.794  24.207  0.00  0.00    +0.116 C 
BRANCH   6   7
ATOM      7  C   UNL     1       9.296  -4.755  24.609  0.00  0.00    +0.309 C 
ATOM      8  O   UNL     1      10.023  -3.794  24.390  0.00  0.00    -0.251 OA
BRANCH   7   9
ATOM      9  O   UNL     1       9.749  -5.886  25.186  0.00  0.00    -0.480 OA
ATOM     10  H   UNL     1      10.675  -6.125  24.994  0.00  0.00    +0.295 HD
ENDBRANCH   7   9
ENDBRANCH   6   7
BRANCH   6  11
ATOM     11  C   UNL     1       6.978  -4.193  25.342  0.00  0.00    +0.050 C 
BRANCH  11  12
ATOM     12  C   UNL     1       6.316  -5.157  26.301  0.00  0.00    -0.047 A 
ATOM     13  C   UNL     1       5.278  -5.996  25.864  0.00  0.00    +0.003 A 
ATOM     14  C   UNL     1       4.633  -6.858  26.756  0.00  0.00    +0.000 A 
ATOM     15  C   UNL     1       5.022  -6.902  28.091  0.00  0.00    +0.000 A 
ATOM     16  C   UNL     1       6.053  -6.079  28.538  0.00  0.00    +0.000 A 
ATOM     17  C   UNL     1       6.691  -5.209  27.650  0.00  0.00    +0.003 A 
ENDBRANCH  11  12
ENDBRANCH   6  11
ENDBRANCH   1   6
BRANCH   1  18
ATOM     18  C   UNL     1       6.965  -2.779  22.887  0.00  0.00    +0.050 C 
BRANCH  18  19
ATOM     19  C   UNL     1       7.870  -1.576  22.714  0.00  0.00    -0.043 A 
ATOM     20  C   UNL     1       8.968  -1.636  21.822  0.00  0.00    +0.007 A 
ATOM     21  C   UNL     1       9.757  -0.508  21.565  0.00  0.00    +0.050 A 
ATOM     22  C   UNL     1       9.434   0.661  22.212  0.00  0.00    +0.166 A 
ATOM     23  O   UNL     1      10.068   1.855  22.064  0.00  0.00    -0.453 OA
ATOM     24  C   UNL     1       9.322   2.673  22.989  0.00  0.00    +0.466 C 
ATOM     25  O   UNL     1       8.231   1.972  23.623  0.00  0.00    -0.453 OA
ATOM     26  C   UNL     1       8.386   0.726  23.099  0.00  0.00    +0.166 A 
ATOM     27  C   UNL     1       7.590  -0.369  23.374  0.00  0.00    +0.053 A 
ENDBRANCH  18  19
ENDBRANCH   1  18
TORSDOF 9
ENDMDL
MODEL 4
REMARK VINA RESULT:      -6.9      3.445      5.762
REMARK  Name = 
REMARK  9 active torsions:
REMARK  status: ('A' for Active; 'I' for Inactive)
REMARK    1  A    between atoms: C_2  and  C_3
REMARK    2  A    between atoms: C_2  and  C_10
REMARK    3  A    between atoms: C_2  and  C_13
REMARK    4  A    between atoms: C_3  and  C_4
REMARK    5  A    between atoms: C_10  and  O_11
REMARK    6  A    between atoms: C_13  and  C_15
REMARK    7  A    between atoms: C_13  and  C_25
REMARK    8  A    between atoms: C_15  and  C_16
REMARK    9  A    between atoms: C_25  and  O_26
REMARK                            x       y       z     vdW  Elec       q    Type
REMARK                         _______ _______ _______ _____ _____    ______ ____
ROOT
ATOM      1  C   UNL     1       7.385  -5.280  24.241  0.00  0.00    +0.116 C 
ENDROOT
BRANCH   1   2
ATOM      2  C   UNL     1       8.650  -5.263  25.093  0.00  0.00    +0.309 C 
ATOM      3  O   UNL     1       9.739  -4.884  24.685  0.00  0.00    -0.251 OA
BRANCH   2   4
ATOM      4  O   UNL     1       8.498  -5.796  26.323  0.00  0.00    -0.480 OA
ATOM      5  H   UNL     1       7.592  -5.705  26.703  0.00  0.00    +0.295 HD
ENDBRANCH   2   4
ENDBRANCH   1   2
BRANCH   1   6
ATOM      6  C   UNL     1       7.592  -4.312  23.041  0.00  0.00    +0.116 C 
BRANCH   6   7
ATOM      7  C   UNL     1       6.857  -4.827  21.818  0.00  0.00    +0.309 C 
ATOM      8  O   UNL     1       7.107  -5.905  21.295  0.00  0.00    -0.251 OA
BRANCH   7   9
ATOM      9  O   UNL     1       5.935  -3.978  21.320  0.00  0.00    -0.480 OA
ATOM     10  H   UNL     1       5.003  -4.228  21.459  0.00  0.00    +0.295 HD
ENDBRANCH   7   9
ENDBRANCH   6   7
BRANCH   6  11
ATOM     11  C   UNL     1       7.210  -2.836  23.281  0.00  0.00    +0.050 C 
BRANCH  11  12
ATOM     12  C   UNL     1       8.328  -1.817  23.275  0.00  0.00    -0.047 A 
ATOM     13  C   UNL     1       8.813  -1.297  22.064  0.00  0.00    +0.003 A 
ATOM     14  C   UNL     1       9.874  -0.388  22.051  0.00  0.00    +0.000 A 
ATOM     15  C   UNL     1      10.458   0.024  23.246  0.00  0.00    +0.000 A 
ATOM     16  C   UNL     1       9.984  -0.480  24.455  0.00  0.00    +0.000 A 
ATOM     17  C   UNL     1       8.931  -1.398  24.468  0.00  0.00    +0.003 A 
ENDBRANCH  11  12
ENDBRANCH   6  11
ENDBRANCH   1   6
BRANCH   1  18
ATOM     18  C   UNL     1       6.185  -4.841  25.115  0.00  0.00    +0.050 C 
BRANCH  18  19
ATOM     19  C   UNL     1       4.835  -5.413  24.734  0.00  0.00    -0.043 A 
ATOM     20  C   UNL     1       3.876  -4.598  24.085  0.00  0.00    +0.007 A 
ATOM     21  C   UNL     1       2.662  -5.127  23.630  0.00  0.00    +0.050 A 
ATOM     22  C   UNL     1       2.429  -6.466  23.838  0.00  0.00    +0.166 A 
ATOM     23  O   UNL     1       1.324  -7.154  23.442  0.00  0.00    -0.453 OA
ATOM     24  C   UNL     1       1.628  -8.468  23.950  0.00  0.00    +0.466 C 
ATOM     25  O   UNL     1       2.922  -8.553  24.585  0.00  0.00    -0.453 OA
ATOM     26  C   UNL     1       3.341  -7.263  24.488  0.00  0.00    +0.166 A 
ATOM     27  C   UNL     1       4.546  -6.769  24.950  0.00  0.00    +0.053 A 
ENDBRANCH  18  19
ENDBRANCH   1  18
TORSDOF 9
ENDMDL
MODEL 5
REMARK VINA RESULT:      -6.9      2.331      7.491
REMARK  Name = 
REMARK  9 active torsions:
REMARK  status: ('A' for Active; 'I' for Inactive)
REMARK    1  A    between atoms: C_2  and  C_3
REMARK    2  A    between atoms: C_2  and  C_10
REMARK    3  A    between atoms: C_2  and  C_13
REMARK    4  A    between atoms: C_3  and  C_4
REMARK    5  A    between atoms: C_10  and  O_11
REMARK    6  A    between atoms: C_13  and  C_15
REMARK    7  A    between atoms: C_13  and  C_25
REMARK    8  A    between atoms: C_15  and  C_16
REMARK    9  A    between atoms: C_25  and  O_26
REMARK                            x       y       z     vdW  Elec       q    Type
REMARK                         _______ _______ _______ _____ _____    ______ ____
ROOT
ATOM      1  C   UNL     1       8.837  -3.143  25.579  0.00  0.00    +0.116 C 
ENDROOT
BRANCH   1   2
ATOM      2  C   UNL     1       8.998  -4.527  26.200  0.00  0.00    +0.309 C 
ATOM      3  O   UNL     1       8.308  -4.943  27.120  0.00  0.00    -0.251 OA
BRANCH   2   4
ATOM      4  O   UNL     1      10.039  -5.236  25.714  0.00  0.00    -0.480 OA
ATOM      5  H   UNL     1       9.790  -5.960  25.092  0.00  0.00    +0.295 HD
ENDBRANCH   2   4
ENDBRANCH   1   2
BRANCH   1   6
ATOM      6  C   UNL     1       7.319  -2.812  25.511  0.00  0.00    +0.116 C 
BRANCH   6   7
ATOM      7  C   UNL     1       7.013  -1.575  26.332  0.00  0.00    +0.309 C 
ATOM      8  O   UNL     1       5.927  -1.009  26.307  0.00  0.00    -0.251 OA
BRANCH   7   9
ATOM      9  O   UNL     1       8.051  -1.114  27.059  0.00  0.00    -0.480 OA
ATOM     10  H   UNL     1       8.482  -0.305  26.726  0.00  0.00    +0.295 HD
ENDBRANCH   7   9
ENDBRANCH   6   7
BRANCH   6  11
ATOM     11  C   UNL     1       6.718  -2.648  24.099  0.00  0.00    +0.050 C 
BRANCH  11  12
ATOM     12  C   UNL     1       6.358  -3.907  23.343  0.00  0.00    -0.047 A 
ATOM     13  C   UNL     1       5.761  -4.990  24.006  0.00  0.00    +0.003 A 
ATOM     14  C   UNL     1       5.464  -6.172  23.321  0.00  0.00    +0.000 A 
ATOM     15  C   UNL     1       5.750  -6.284  21.964  0.00  0.00    +0.000 A 
ATOM     16  C   UNL     1       6.339  -5.215  21.291  0.00  0.00    +0.000 A 
ATOM     17  C   UNL     1       6.645  -4.038  21.977  0.00  0.00    +0.003 A 
ENDBRANCH  11  12
ENDBRANCH   6  11
ENDBRANCH   1   6
BRANCH   1  18
ATOM     18  C   UNL     1       9.473  -3.148  24.168  0.00  0.00    +0.050 C 
BRANCH  18  19
ATOM     19  C   UNL     1       9.738  -1.791  23.548  0.00  0.00    -0.043 A 
ATOM     20  C   UNL     1       9.548  -1.596  22.159  0.00  0.00    +0.007 A 
ATOM     21  C   UNL     1       9.686  -0.329  21.579  0.00  0.00    +0.050 A 
ATOM     22  C   UNL     1      10.017   0.720  22.403  0.00  0.00    +0.166 A 
ATOM     23  O   UNL     1      10.165   2.018  22.021  0.00  0.00    -0.453 OA
ATOM     24  C   UNL     1      10.530   2.628  23.275  0.00  0.00    +0.466 C 
ATOM     25  O   UNL     1      10.539   1.703  24.383  0.00  0.00    -0.453 OA
ATOM     26  C   UNL     1      10.229   0.540  23.749  0.00  0.00    +0.166 A 
ATOM     27  C   UNL     1      10.102  -0.698  24.350  0.00  0.00    +0.053 A 
ENDBRANCH  18  19
ENDBRANCH   1  18
TORSDOF 9
ENDMDL
MODEL 6
REMARK VINA RESULT:      -6.8      2.985      5.806
REMARK  Name = 
REMARK  9 active torsions:
REMARK  status: ('A' for Active; 'I' for Inactive)
REMARK    1  A    between atoms: C_2  and  C_3
REMARK    2  A    between atoms: C_2  and  C_10
REMARK    3  A    between atoms: C_2  and  C_13
REMARK    4  A    between atoms: C_3  and  C_4
REMARK    5  A    between atoms: C_10  and  O_11
REMARK    6  A    between atoms: C_13  and  C_15
REMARK    7  A    between atoms: C_13  and  C_25
REMARK    8  A    between atoms: C_15  and  C_16
REMARK    9  A    between atoms: C_25  and  O_26
REMARK                            x       y       z     vdW  Elec       q    Type
REMARK                         _______ _______ _______ _____ _____    ______ ____
ROOT
ATOM      1  C   UNL     1       9.453  -1.148  24.537  0.00  0.00    +0.116 C 
ENDROOT
BRANCH   1   2
ATOM      2  C   UNL     1      10.133   0.217  24.594  0.00  0.00    +0.309 C 
ATOM      3  O   UNL     1      11.262   0.431  24.177  0.00  0.00    -0.251 OA
BRANCH   2   4
ATOM      4  O   UNL     1       9.419   1.166  25.235  0.00  0.00    -0.480 OA
ATOM      5  H   UNL     1       9.956   1.786  25.784  0.00  0.00    +0.295 HD
ENDBRANCH   2   4
ENDBRANCH   1   2
BRANCH   1   6
ATOM      6  C   UNL     1       8.521  -1.177  23.293  0.00  0.00    +0.116 C 
BRANCH   6   7
ATOM      7  C   UNL     1       8.833  -0.011  22.375  0.00  0.00    +0.309 C 
ATOM      8  O   UNL     1       8.214   1.046  22.404  0.00  0.00    -0.251 OA
BRANCH   7   9
ATOM      9  O   UNL     1       9.818  -0.246  21.485  0.00  0.00    -0.480 OA
ATOM     10  H   UNL     1       9.718  -1.046  20.936  0.00  0.00    +0.295 HD
ENDBRANCH   7   9
ENDBRANCH   6   7
BRANCH   6  11
ATOM     11  C   UNL     1       8.516  -2.484  22.472  0.00  0.00    +0.050 C 
BRANCH  11  12
ATOM     12  C   UNL     1       7.341  -3.418  22.655  0.00  0.00    -0.047 A 
ATOM     13  C   UNL     1       6.038  -2.911  22.773  0.00  0.00    +0.003 A 
ATOM     14  C   UNL     1       4.953  -3.767  22.985  0.00  0.00    +0.000 A 
ATOM     15  C   UNL     1       5.155  -5.141  23.071  0.00  0.00    +0.000 A 
ATOM     16  C   UNL     1       6.442  -5.660  22.952  0.00  0.00    +0.000 A 
ATOM     17  C   UNL     1       7.527  -4.804  22.750  0.00  0.00    +0.003 A 
ENDBRANCH  11  12
ENDBRANCH   6  11
ENDBRANCH   1   6
BRANCH   1  18
ATOM     18  C   UNL     1       8.652  -1.364  25.843  0.00  0.00    +0.050 C 
BRANCH  18  19
ATOM     19  C   UNL     1       8.044  -2.739  26.035  0.00  0.00    -0.043 A 
ATOM     20  C   UNL     1       8.876  -3.885  26.069  0.00  0.00    +0.007 A 
ATOM     21  C   UNL     1       8.354  -5.153  26.348  0.00  0.00    +0.050 A 
ATOM     22  C   UNL     1       7.003  -5.252  26.584  0.00  0.00    +0.166 A 
ATOM     23  O   UNL     1       6.329  -6.392  26.897  0.00  0.00    -0.453 OA
ATOM     24  C   UNL     1       4.981  -5.890  26.997  0.00  0.00    +0.466 C 
ATOM     25  O   UNL     1       4.884  -4.464  26.800  0.00  0.00    -0.453 OA
ATOM     26  C   UNL     1       6.180  -4.152  26.530  0.00  0.00    +0.166 A 
ATOM     27  C   UNL     1       6.666  -2.888  26.256  0.00  0.00    +0.053 A 
ENDBRANCH  18  19
ENDBRANCH   1  18
TORSDOF 9
ENDMDL
MODEL 7
REMARK VINA RESULT:      -6.8      2.389      7.625
REMARK  Name = 
REMARK  9 active torsions:
REMARK  status: ('A' for Active; 'I' for Inactive)
REMARK    1  A    between atoms: C_2  and  C_3
REMARK    2  A    between atoms: C_2  and  C_10
REMARK    3  A    between atoms: C_2  and  C_13
REMARK    4  A    between atoms: C_3  and  C_4
REMARK    5  A    between atoms: C_10  and  O_11
REMARK    6  A    between atoms: C_13  and  C_15
REMARK    7  A    between atoms: C_13  and  C_25
REMARK    8  A    between atoms: C_15  and  C_16
REMARK    9  A    between atoms: C_25  and  O_26
REMARK                            x       y       z     vdW  Elec       q    Type
REMARK                         _______ _______ _______ _____ _____    ______ ____
ROOT
ATOM      1  C   UNL     1       7.879   0.172  23.480  0.00  0.00    +0.116 C 
ENDROOT
BRANCH   1   2
ATOM      2  C   UNL     1       6.467  -0.264  23.858  0.00  0.00    +0.309 C 
ATOM      3  O   UNL     1       5.792   0.289  24.715  0.00  0.00    -0.251 OA
BRANCH   2   4
ATOM      4  O   UNL     1       6.046  -1.383  23.232  0.00  0.00    -0.480 OA
ATOM      5  H   UNL     1       6.757  -1.892  22.774  0.00  0.00    +0.295 HD
ENDBRANCH   2   4
ENDBRANCH   1   2
BRANCH   1   6
ATOM      6  C   UNL     1       8.704  -1.100  23.129  0.00  0.00    +0.116 C 
BRANCH   6   7
ATOM      7  C   UNL     1       9.575  -0.842  21.915  0.00  0.00    +0.309 C 
ATOM      8  O   UNL     1       9.348   0.052  21.108  0.00  0.00    -0.251 OA
BRANCH   7   9
ATOM      9  O   UNL     1      10.597  -1.708  21.764  0.00  0.00    -0.480 OA
ATOM     10  H   UNL     1      10.645  -2.432  22.417  0.00  0.00    +0.295 HD
ENDBRANCH   7   9
ENDBRANCH   6   7
BRANCH   6  11
ATOM     11  C   UNL     1       9.571  -1.688  24.262  0.00  0.00    +0.050 C 
BRANCH  11  12
ATOM     12  C   UNL     1       9.032  -2.893  24.999  0.00  0.00    -0.047 A 
ATOM     13  C   UNL     1       8.067  -2.740  26.008  0.00  0.00    +0.003 A 
ATOM     14  C   UNL     1       7.597  -3.846  26.721  0.00  0.00    +0.000 A 
ATOM     15  C   UNL     1       8.075  -5.120  26.431  0.00  0.00    +0.000 A 
ATOM     16  C   UNL     1       9.030  -5.288  25.430  0.00  0.00    +0.000 A 
ATOM     17  C   UNL     1       9.507  -4.182  24.724  0.00  0.00    +0.003 A 
ENDBRANCH  11  12
ENDBRANCH   6  11
ENDBRANCH   1   6
BRANCH   1  18
ATOM     18  C   UNL     1       8.506   0.933  24.673  0.00  0.00    +0.050 C 
BRANCH  18  19
ATOM     19  C   UNL     1       9.042   2.319  24.374  0.00  0.00    -0.043 A 
ATOM     20  C   UNL     1       8.294   3.464  24.740  0.00  0.00    +0.007 A 
ATOM     21  C   UNL     1       8.811   4.754  24.570  0.00  0.00    +0.050 A 
ATOM     22  C   UNL     1      10.070   4.874  24.031  0.00  0.00    +0.166 A 
ATOM     23  O   UNL     1      10.740   6.039  23.821  0.00  0.00    -0.453 OA
ATOM     24  C   UNL     1      11.959   5.547  23.228  0.00  0.00    +0.466 C 
ATOM     25  O   UNL     1      12.017   4.106  23.148  0.00  0.00    -0.453 OA
ATOM     26  C   UNL     1      10.797   3.771  23.649  0.00  0.00    +0.166 A 
ATOM     27  C   UNL     1      10.314   2.486  23.803  0.00  0.00    +0.053 A 
ENDBRANCH  18  19
ENDBRANCH   1  18
TORSDOF 9
ENDMDL
MODEL 8
REMARK VINA RESULT:      -6.8      1.349      1.993
REMARK  Name = 
REMARK  9 active torsions:
REMARK  status: ('A' for Active; 'I' for Inactive)
REMARK    1  A    between atoms: C_2  and  C_3
REMARK    2  A    between atoms: C_2  and  C_10
REMARK    3  A    between atoms: C_2  and  C_13
REMARK    4  A    between atoms: C_3  and  C_4
REMARK    5  A    between atoms: C_10  and  O_11
REMARK    6  A    between atoms: C_13  and  C_15
REMARK    7  A    between atoms: C_13  and  C_25
REMARK    8  A    between atoms: C_15  and  C_16
REMARK    9  A    between atoms: C_25  and  O_26
REMARK                            x       y       z     vdW  Elec       q    Type
REMARK                         _______ _______ _______ _____ _____    ______ ____
ROOT
ATOM      1  C   UNL     1       9.260  -0.896  24.146  0.00  0.00    +0.116 C 
ENDROOT
BRANCH   1   2
ATOM      2  C   UNL     1       9.668  -0.252  25.467  0.00  0.00    +0.309 C 
ATOM      3  O   UNL     1       9.068  -0.419  26.519  0.00  0.00    -0.251 OA
BRANCH   2   4
ATOM      4  O   UNL     1      10.704   0.608  25.368  0.00  0.00    -0.480 OA
ATOM      5  H   UNL     1      10.448   1.560  25.317  0.00  0.00    +0.295 HD
ENDBRANCH   2   4
ENDBRANCH   1   2
BRANCH   1   6
ATOM      6  C   UNL     1       9.228   0.210  23.053  0.00  0.00    +0.116 C 
BRANCH   6   7
ATOM      7  C   UNL     1       9.581  -0.377  21.700  0.00  0.00    +0.309 C 
ATOM      8  O   UNL     1       9.154   0.075  20.645  0.00  0.00    -0.251 OA
BRANCH   7   9
ATOM      9  O   UNL     1      10.365  -1.473  21.752  0.00  0.00    -0.480 OA
ATOM     10  H   UNL     1      11.169  -1.399  22.299  0.00  0.00    +0.295 HD
ENDBRANCH   7   9
ENDBRANCH   6   7
BRANCH   6  11
ATOM     11  C   UNL     1       7.917   1.015  22.933  0.00  0.00    +0.050 C 
BRANCH  11  12
ATOM     12  C   UNL     1       8.013   2.522  23.017  0.00  0.00    -0.047 A 
ATOM     13  C   UNL     1       7.140   3.334  22.276  0.00  0.00    +0.003 A 
ATOM     14  C   UNL     1       7.251   4.727  22.317  0.00  0.00    +0.000 A 
ATOM     15  C   UNL     1       8.229   5.327  23.105  0.00  0.00    +0.000 A 
ATOM     16  C   UNL     1       9.100   4.534  23.848  0.00  0.00    +0.000 A 
ATOM     17  C   UNL     1       8.995   3.142  23.800  0.00  0.00    +0.003 A 
ENDBRANCH  11  12
ENDBRANCH   6  11
ENDBRANCH   1   6
BRANCH   1  18
ATOM     18  C   UNL     1       7.870  -1.555  24.317  0.00  0.00    +0.050 C 
BRANCH  18  19
ATOM     19  C   UNL     1       7.678  -2.897  23.640  0.00  0.00    -0.043 A 
ATOM     20  C   UNL     1       8.230  -4.067  24.213  0.00  0.00    +0.007 A 
ATOM     21  C   UNL     1       7.981  -5.331  23.666  0.00  0.00    +0.050 A 
ATOM     22  C   UNL     1       7.184  -5.399  22.547  0.00  0.00    +0.166 A 
ATOM     23  O   UNL     1       6.814  -6.537  21.900  0.00  0.00    -0.453 OA
ATOM     24  C   UNL     1       6.028  -5.991  20.821  0.00  0.00    +0.466 C 
ATOM     25  O   UNL     1       5.899  -4.554  20.876  0.00  0.00    -0.453 OA
ATOM     26  C   UNL     1       6.662  -4.268  21.966  0.00  0.00    +0.166 A 
ATOM     27  C   UNL     1       6.891  -3.007  22.482  0.00  0.00    +0.053 A 
ENDBRANCH  18  19
ENDBRANCH   1  18
TORSDOF 9
ENDMDL
MODEL 9
REMARK VINA RESULT:      -6.8      2.046      6.155
REMARK  Name = 
REMARK  9 active torsions:
REMARK  status: ('A' for Active; 'I' for Inactive)
REMARK    1  A    between atoms: C_2  and  C_3
REMARK    2  A    between atoms: C_2  and  C_10
REMARK    3  A    between atoms: C_2  and  C_13
REMARK    4  A    between atoms: C_3  and  C_4
REMARK    5  A    between atoms: C_10  and  O_11
REMARK    6  A    between atoms: C_13  and  C_15
REMARK    7  A    between atoms: C_13  and  C_25
REMARK    8  A    between atoms: C_15  and  C_16
REMARK    9  A    between atoms: C_25  and  O_26
REMARK                            x       y       z     vdW  Elec       q    Type
REMARK                         _______ _______ _______ _____ _____    ______ ____
ROOT
ATOM      1  C   UNL     1       8.666  -3.511  24.836  0.00  0.00    +0.116 C 
ENDROOT
BRANCH   1   2
ATOM      2  C   UNL     1       8.848  -4.908  25.420  0.00  0.00    +0.309 C 
ATOM      3  O   UNL     1       8.227  -5.327  26.387  0.00  0.00    -0.251 OA
BRANCH   2   4
ATOM      4  O   UNL     1       9.831  -5.629  24.839  0.00  0.00    -0.480 OA
ATOM      5  H   UNL     1       9.760  -6.604  24.970  0.00  0.00    +0.295 HD
ENDBRANCH   2   4
ENDBRANCH   1   2
BRANCH   1   6
ATOM      6  C   UNL     1       7.437  -3.536  23.884  0.00  0.00    +0.116 C 
BRANCH   6   7
ATOM      7  C   UNL     1       7.017  -4.967  23.605  0.00  0.00    +0.309 C 
ATOM      8  O   UNL     1       7.557  -5.667  22.757  0.00  0.00    -0.251 OA
BRANCH   7   9
ATOM      9  O   UNL     1       5.967  -5.395  24.333  0.00  0.00    -0.480 OA
ATOM     10  H   UNL     1       5.709  -4.832  25.086  0.00  0.00    +0.295 HD
ENDBRANCH   7   9
ENDBRANCH   6   7
BRANCH   6  11
ATOM     11  C   UNL     1       6.205  -2.724  24.337  0.00  0.00    +0.050 C 
BRANCH  11  12
ATOM     12  C   UNL     1       6.397  -1.245  24.586  0.00  0.00    -0.047 A 
ATOM     13  C   UNL     1       6.550  -0.756  25.893  0.00  0.00    +0.003 A 
ATOM     14  C   UNL     1       6.686   0.614  26.132  0.00  0.00    +0.000 A 
ATOM     15  C   UNL     1       6.681   1.513  25.070  0.00  0.00    +0.000 A 
ATOM     16  C   UNL     1       6.534   1.042  23.767  0.00  0.00    +0.000 A 
ATOM     17  C   UNL     1       6.388  -0.326  23.528  0.00  0.00    +0.003 A 
ENDBRANCH  11  12
ENDBRANCH   6  11
ENDBRANCH   1   6
BRANCH   1  18
ATOM     18  C   UNL     1       9.954  -3.112  24.076  0.00  0.00    +0.050 C 
BRANCH  18  19
ATOM     19  C   UNL     1       9.986  -1.711  23.501  0.00  0.00    -0.043 A 
ATOM     20  C   UNL     1       9.753  -1.504  22.121  0.00  0.00    +0.007 A 
ATOM     21  C   UNL     1       9.674  -0.214  21.583  0.00  0.00    +0.050 A 
ATOM     22  C   UNL     1       9.835   0.849  22.440  0.00  0.00    +0.166 A 
ATOM     23  O   UNL     1       9.762   2.164  22.102  0.00  0.00    -0.453 OA
ATOM     24  C   UNL     1      10.033   2.786  23.375  0.00  0.00    +0.466 C 
ATOM     25  O   UNL     1      10.205   1.839  24.451  0.00  0.00    -0.453 OA
ATOM     26  C   UNL     1      10.086   0.662  23.779  0.00  0.00    +0.166 A 
ATOM     27  C   UNL     1      10.171  -0.599  24.338  0.00  0.00    +0.053 A 
ENDBRANCH  18  19
ENDBRANCH   1  18
TORSDOF 9
ENDMDL
