MODEL 1
REMARK VINA RESULT:      -3.2      0.000      0.000
REMARK  Name = 
REMARK  5 active torsions:
REMARK  status: ('A' for Active; 'I' for Inactive)
REMARK    1  A    between atoms: O_1  and  C_2
REMARK    2  A    between atoms: C_2  and  C_3
REMARK    3  A    between atoms: C_3  and  C_4
REMARK    4  A    between atoms: C_4  and  C_5
REMARK    5  A    between atoms: C_5  and  O_6
REMARK                            x       y       z     vdW  Elec       q    Type
REMARK                         _______ _______ _______ _____ _____    ______ ____
ROOT
ATOM      1  C   UNL     1      11.152   5.967  23.982  0.00  0.00    +0.030 C 
ENDROOT
BRANCH   1   2
ATOM      2  C   UNL     1       9.672   5.619  23.908  0.00  0.00    +0.156 C 
BRANCH   2   3
ATOM      3  O   UNL     1       9.136   6.163  22.710  0.00  0.00    -0.395 OA
ATOM      4  H   UNL     1       8.837   5.414  22.164  0.00  0.00    +0.209 HD
ENDBRANCH   2   3
ENDBRANCH   1   2
BRANCH   1   5
ATOM      5  C   UNL     1      12.018   4.868  23.380  0.00  0.00    +0.030 C 
BRANCH   5   6
ATOM      6  C   UNL     1      13.150   5.444  22.539  0.00  0.00    +0.156 C 
BRANCH   6   7
ATOM      7  O   UNL     1      14.400   5.087  23.113  0.00  0.00    -0.395 OA
ATOM      8  H   UNL     1      14.619   5.758  23.781  0.00  0.00    +0.209 HD
ENDBRANCH   6   7
ENDBRANCH   5   6
ENDBRANCH   1   5
TORSDOF 5
ENDMDL
MODEL 2
REMARK VINA RESULT:      -3.2      1.025      3.825
REMARK  Name = 
REMARK  5 active torsions:
REMARK  status: ('A' for Active; 'I' for Inactive)
REMARK    1  A    between atoms: O_1  and  C_2
REMARK    2  A    between atoms: C_2  and  C_3
REMARK    3  A    between atoms: C_3  and  C_4
REMARK    4  A    between atoms: C_4  and  C_5
REMARK    5  A    between atoms: C_5  and  O_6
REMARK                            x       y       z     vdW  Elec       q    Type
REMARK                         _______ _______ _______ _____ _____    ______ ____
ROOT
ATOM      1  C   UNL     1      12.031   4.744  23.396  0.00  0.00    +0.030 C 
ENDROOT
BRANCH   1   2
ATOM      2  C   UNL     1      13.117   5.449  22.596  0.00  0.00    +0.156 C 
BRANCH   2   3
ATOM      3  O   UNL     1      14.383   5.084  23.127  0.00  0.00    -0.395 OA
ATOM      4  H   UNL     1      15.060   5.441  22.525  0.00  0.00    +0.209 HD
ENDBRANCH   2   3
ENDBRANCH   1   2
BRANCH   1   5
ATOM      5  C   UNL     1      10.879   5.684  23.730  0.00  0.00    +0.030 C 
BRANCH   5   6
ATOM      6  C   UNL     1       9.578   4.922  23.945  0.00  0.00    +0.156 C 
BRANCH   6   7
ATOM      7  O   UNL     1       9.494   3.850  23.013  0.00  0.00    -0.395 OA
ATOM      8  H   UNL     1       9.897   4.152  22.182  0.00  0.00    +0.209 HD
ENDBRANCH   6   7
ENDBRANCH   5   6
ENDBRANCH   1   5
TORSDOF 5
ENDMDL
MODEL 3
REMARK VINA RESULT:      -3.0      5.467      6.021
REMARK  Name = 
REMARK  5 active torsions:
REMARK  status: ('A' for Active; 'I' for Inactive)
REMARK    1  A    between atoms: O_1  and  C_2
REMARK    2  A    between atoms: C_2  and  C_3
REMARK    3  A    between atoms: C_3  and  C_4
REMARK    4  A    between atoms: C_4  and  C_5
REMARK    5  A    between atoms: C_5  and  O_6
REMARK                            x       y       z     vdW  Elec       q    Type
REMARK                         _______ _______ _______ _____ _____    ______ ____
ROOT
ATOM      1  C   UNL     1       9.634  -0.357  23.497  0.00  0.00    +0.030 C 
ENDROOT
BRANCH   1   2
ATOM      2  C   UNL     1      10.211  -1.376  22.526  0.00  0.00    +0.156 C 
BRANCH   2   3
ATOM      3  O   UNL     1       9.908  -0.964  21.201  0.00  0.00    -0.395 OA
ATOM      4  H   UNL     1       8.941  -0.864  21.145  0.00  0.00    +0.209 HD
ENDBRANCH   2   3
ENDBRANCH   1   2
BRANCH   1   5
ATOM      5  C   UNL     1      10.528   0.870  23.622  0.00  0.00    +0.030 C 
BRANCH   5   6
ATOM      6  C   UNL     1       9.891   2.095  22.980  0.00  0.00    +0.156 C 
BRANCH   6   7
ATOM      7  O   UNL     1      10.114   2.068  21.575  0.00  0.00    -0.395 OA
ATOM      8  H   UNL     1       9.250   2.159  21.139  0.00  0.00    +0.209 HD
ENDBRANCH   6   7
ENDBRANCH   5   6
ENDBRANCH   1   5
TORSDOF 5
ENDMDL
MODEL 4
REMARK VINA RESULT:      -3.0      5.467      5.876
REMARK  Name = 
REMARK  5 active torsions:
REMARK  status: ('A' for Active; 'I' for Inactive)
REMARK    1  A    between atoms: O_1  and  C_2
REMARK    2  A    between atoms: C_2  and  C_3
REMARK    3  A    between atoms: C_3  and  C_4
REMARK    4  A    between atoms: C_4  and  C_5
REMARK    5  A    between atoms: C_5  and  O_6
REMARK                            x       y       z     vdW  Elec       q    Type
REMARK                         _______ _______ _______ _____ _____    ______ ____
ROOT
ATOM      1  C   UNL     1      10.519   0.886  23.612  0.00  0.00    +0.030 C 
ENDROOT
BRANCH   1   2
ATOM      2  C   UNL     1       9.819   2.075  22.969  0.00  0.00    +0.156 C 
BRANCH   2   3
ATOM      3  O   UNL     1      10.100   2.070  21.577  0.00  0.00    -0.395 OA
ATOM      4  H   UNL     1       9.646   2.840  21.190  0.00  0.00    +0.209 HD
ENDBRANCH   2   3
ENDBRANCH   1   2
BRANCH   1   5
ATOM      5  C   UNL     1       9.667  -0.375  23.537  0.00  0.00    +0.030 C 
BRANCH   5   6
ATOM      6  C   UNL     1      10.228  -1.372  22.533  0.00  0.00    +0.156 C 
BRANCH   6   7
ATOM      7  O   UNL     1       9.899  -0.956  21.213  0.00  0.00    -0.395 OA
ATOM      8  H   UNL     1       9.365  -1.660  20.808  0.00  0.00    +0.209 HD
ENDBRANCH   6   7
ENDBRANCH   5   6
ENDBRANCH   1   5
TORSDOF 5
ENDMDL
MODEL 5
REMARK VINA RESULT:      -2.9      6.372      6.715
REMARK  Name = 
REMARK  5 active torsions:
REMARK  status: ('A' for Active; 'I' for Inactive)
REMARK    1  A    between atoms: O_1  and  C_2
REMARK    2  A    between atoms: C_2  and  C_3
REMARK    3  A    between atoms: C_3  and  C_4
REMARK    4  A    between atoms: C_4  and  C_5
REMARK    5  A    between atoms: C_5  and  O_6
REMARK                            x       y       z     vdW  Elec       q    Type
REMARK                         _______ _______ _______ _____ _____    ______ ____
ROOT
ATOM      1  C   UNL     1       9.292  -0.231  21.411  0.00  0.00    +0.030 C 
ENDROOT
BRANCH   1   2
ATOM      2  C   UNL     1       8.837   1.220  21.476  0.00  0.00    +0.156 C 
BRANCH   2   3
ATOM      3  O   UNL     1       9.983   2.053  21.577  0.00  0.00    -0.395 OA
ATOM      4  H   UNL     1      10.635   1.578  22.123  0.00  0.00    +0.209 HD
ENDBRANCH   2   3
ENDBRANCH   1   2
BRANCH   1   5
ATOM      5  C   UNL     1      10.165  -0.600  22.604  0.00  0.00    +0.030 C 
BRANCH   5   6
ATOM      6  C   UNL     1       9.472  -1.603  23.516  0.00  0.00    +0.156 C 
BRANCH   6   7
ATOM      7  O   UNL     1      10.270  -2.774  23.632  0.00  0.00    -0.395 OA
ATOM      8  H   UNL     1      11.198  -2.491  23.699  0.00  0.00    +0.209 HD
ENDBRANCH   6   7
ENDBRANCH   5   6
ENDBRANCH   1   5
TORSDOF 5
ENDMDL
MODEL 6
REMARK VINA RESULT:      -2.9      5.784      6.144
REMARK  Name = 
REMARK  5 active torsions:
REMARK  status: ('A' for Active; 'I' for Inactive)
REMARK    1  A    between atoms: O_1  and  C_2
REMARK    2  A    between atoms: C_2  and  C_3
REMARK    3  A    between atoms: C_3  and  C_4
REMARK    4  A    between atoms: C_4  and  C_5
REMARK    5  A    between atoms: C_5  and  O_6
REMARK                            x       y       z     vdW  Elec       q    Type
REMARK                         _______ _______ _______ _____ _____    ______ ____
ROOT
ATOM      1  C   UNL     1       9.941   0.833  21.961  0.00  0.00    +0.030 C 
ENDROOT
BRANCH   1   2
ATOM      2  C   UNL     1       9.270  -0.531  21.887  0.00  0.00    +0.156 C 
BRANCH   2   3
ATOM      3  O   UNL     1      10.235  -1.492  21.483  0.00  0.00    -0.395 OA
ATOM      4  H   UNL     1      10.093  -2.287  22.026  0.00  0.00    +0.209 HD
ENDBRANCH   2   3
ENDBRANCH   1   2
BRANCH   1   5
ATOM      5  C   UNL     1       9.893   1.406  23.371  0.00  0.00    +0.030 C 
BRANCH   5   6
ATOM      6  C   UNL     1      10.906   0.730  24.286  0.00  0.00    +0.156 C 
BRANCH   6   7
ATOM      7  O   UNL     1      10.296   0.433  25.535  0.00  0.00    -0.395 OA
ATOM      8  H   UNL     1       9.803   1.222  25.816  0.00  0.00    +0.209 HD
ENDBRANCH   6   7
ENDBRANCH   5   6
ENDBRANCH   1   5
TORSDOF 5
ENDMDL
MODEL 7
REMARK VINA RESULT:      -2.8      4.932      5.378
REMARK  Name = 
REMARK  5 active torsions:
REMARK  status: ('A' for Active; 'I' for Inactive)
REMARK    1  A    between atoms: O_1  and  C_2
REMARK    2  A    between atoms: C_2  and  C_3
REMARK    3  A    between atoms: C_3  and  C_4
REMARK    4  A    between atoms: C_4  and  C_5
REMARK    5  A    between atoms: C_5  and  O_6
REMARK                            x       y       z     vdW  Elec       q    Type
REMARK                         _______ _______ _______ _____ _____    ______ ____
ROOT
ATOM      1  C   UNL     1      10.124   2.104  23.948  0.00  0.00    +0.030 C 
ENDROOT
BRANCH   1   2
ATOM      2  C   UNL     1       9.385   1.932  22.629  0.00  0.00    +0.156 C 
BRANCH   2   3
ATOM      3  O   UNL     1      10.265   2.271  21.567  0.00  0.00    -0.395 OA
ATOM      4  H   UNL     1      10.804   3.024  21.869  0.00  0.00    +0.209 HD
ENDBRANCH   2   3
ENDBRANCH   1   2
BRANCH   1   5
ATOM      5  C   UNL     1      10.896   0.847  24.329  0.00  0.00    +0.030 C 
BRANCH   5   6
ATOM      6  C   UNL     1       9.966  -0.257  24.812  0.00  0.00    +0.156 C 
BRANCH   6   7
ATOM      7  O   UNL     1       9.615  -0.024  26.170  0.00  0.00    -0.395 OA
ATOM      8  H   UNL     1      10.078   0.781  26.459  0.00  0.00    +0.209 HD
ENDBRANCH   6   7
ENDBRANCH   5   6
ENDBRANCH   1   5
TORSDOF 5
ENDMDL
MODEL 8
REMARK VINA RESULT:      -2.7      4.636      5.439
REMARK  Name = 
REMARK  5 active torsions:
REMARK  status: ('A' for Active; 'I' for Inactive)
REMARK    1  A    between atoms: O_1  and  C_2
REMARK    2  A    between atoms: C_2  and  C_3
REMARK    3  A    between atoms: C_3  and  C_4
REMARK    4  A    between atoms: C_4  and  C_5
REMARK    5  A    between atoms: C_5  and  O_6
REMARK                            x       y       z     vdW  Elec       q    Type
REMARK                         _______ _______ _______ _____ _____    ______ ____
ROOT
ATOM      1  C   UNL     1      10.593   2.172  23.795  0.00  0.00    +0.030 C 
ENDROOT
BRANCH   1   2
ATOM      2  C   UNL     1      10.972   0.839  24.424  0.00  0.00    +0.156 C 
BRANCH   2   3
ATOM      3  O   UNL     1      10.027   0.530  25.438  0.00  0.00    -0.395 OA
ATOM      4  H   UNL     1       9.918   1.329  25.983  0.00  0.00    +0.209 HD
ENDBRANCH   2   3
ENDBRANCH   1   2
BRANCH   1   5
ATOM      5  C   UNL     1      10.291   2.027  22.309  0.00  0.00    +0.030 C 
BRANCH   5   6
ATOM      6  C   UNL     1       8.803   1.826  22.057  0.00  0.00    +0.156 C 
BRANCH   6   7
ATOM      7  O   UNL     1       8.608   1.290  20.754  0.00  0.00    -0.395 OA
ATOM      8  H   UNL     1       8.846   0.348  20.786  0.00  0.00    +0.209 HD
ENDBRANCH   6   7
ENDBRANCH   5   6
ENDBRANCH   1   5
TORSDOF 5
ENDMDL
MODEL 9
REMARK VINA RESULT:      -2.7      5.294      6.126
REMARK  Name = 
REMARK  5 active torsions:
REMARK  status: ('A' for Active; 'I' for Inactive)
REMARK    1  A    between atoms: O_1  and  C_2
REMARK    2  A    between atoms: C_2  and  C_3
REMARK    3  A    between atoms: C_3  and  C_4
REMARK    4  A    between atoms: C_4  and  C_5
REMARK    5  A    between atoms: C_5  and  O_6
REMARK                            x       y       z     vdW  Elec       q    Type
REMARK                         _______ _______ _______ _____ _____    ______ ____
ROOT
ATOM      1  C   UNL     1       9.841   0.844  21.822  0.00  0.00    +0.030 C 
ENDROOT
BRANCH   1   2
ATOM      2  C   UNL     1       9.722  -0.562  22.393  0.00  0.00    +0.156 C 
BRANCH   2   3
ATOM      3  O   UNL     1      10.193  -1.488  21.425  0.00  0.00    -0.395 OA
ATOM      4  H   UNL     1      11.069  -1.793  21.723  0.00  0.00    +0.209 HD
ENDBRANCH   2   3
ENDBRANCH   1   2
BRANCH   1   5
ATOM      5  C   UNL     1       8.484   1.403  21.415  0.00  0.00    +0.030 C 
BRANCH   5   6
ATOM      6  C   UNL     1       8.129   2.650  22.214  0.00  0.00    +0.156 C 
BRANCH   6   7
ATOM      7  O   UNL     1       9.320   3.294  22.646  0.00  0.00    -0.395 OA
ATOM      8  H   UNL     1       9.064   4.005  23.258  0.00  0.00    +0.209 HD
ENDBRANCH   6   7
ENDBRANCH   5   6
ENDBRANCH   1   5
TORSDOF 5
ENDMDL
