MODEL 1
REMARK VINA RESULT:      -6.6      0.000      0.000
REMARK  Name = 
REMARK  4 active torsions:
REMARK  status: ('A' for Active; 'I' for Inactive)
REMARK    1  A    between atoms: C_6  and  N_7
REMARK    2  A    between atoms: N_7  and  C_8
REMARK    3  A    between atoms: C_11  and  N_12
REMARK    4  A    between atoms: C_13  and  C_15
REMARK                            x       y       z     vdW  Elec       q    Type
REMARK                         _______ _______ _______ _____ _____    ______ ____
ROOT
ATOM      1  C   UNL     1       7.525  -4.537  23.492  0.00  0.00    +0.134 A 
ATOM      2  N   UNL     1       7.517  -4.786  22.171  0.00  0.00    -0.220 NA
ATOM      3  C   UNL     1       6.556  -5.574  21.691  0.00  0.00    +0.223 A 
ATOM      4  N   UNL     1       5.580  -6.148  22.402  0.00  0.00    -0.235 NA
ATOM      5  C   UNL     1       5.583  -5.904  23.711  0.00  0.00    +0.076 A 
ATOM      6  C   UNL     1       4.600  -6.508  24.486  0.00  0.00    +0.030 A 
ATOM      7  C   UNL     1       4.534  -6.337  25.874  0.00  0.00    +0.025 A 
ATOM      8  C   UNL     1       5.464  -5.529  26.520  0.00  0.00    +0.034 A 
ATOM      9  C   UNL     1       6.445  -4.906  25.747  0.00  0.00    +0.036 A 
ATOM     10  C   UNL     1       6.534  -5.089  24.340  0.00  0.00    +0.042 A 
ENDROOT
BRANCH   8  11
ATOM     11  N   UNL     1       5.373  -5.392  27.924  0.00  0.00    -0.282 N 
ATOM     12  H   UNL     1       5.063  -4.492  28.267  0.00  0.00    +0.155 HD
ATOM     13  C   UNL     1       5.654  -6.371  28.859  0.00  0.00    +0.241 C 
ATOM     14  O   UNL     1       6.038  -7.513  28.634  0.00  0.00    -0.271 OA
BRANCH  13  15
ATOM     15  C   UNL     1       5.443  -5.912  30.260  0.00  0.00    +0.060 C 
ATOM     16  C   UNL     1       4.682  -4.831  30.485  0.00  0.00    +0.013 C 
ENDBRANCH  13  15
ENDBRANCH   8  11
BRANCH   1  17
ATOM     17  N   UNL     1       8.595  -3.791  24.040  0.00  0.00    -0.299 N 
ATOM     18  H   UNL     1       9.426  -4.325  24.244  0.00  0.00    +0.154 HD
BRANCH  17  22
ATOM     19 BR   UNL     1       9.787   0.967  21.974  0.00  0.00    -0.050 Br
ATOM     20  C   UNL     1       9.363  -0.179  23.419  0.00  0.00    +0.020 A 
ATOM     21  C   UNL     1       9.037  -1.514  23.164  0.00  0.00    +0.038 A 
ATOM     22  C   UNL     1       8.773  -2.401  24.211  0.00  0.00    +0.033 A 
ATOM     23  C   UNL     1       8.778  -1.887  25.520  0.00  0.00    +0.023 A 
ATOM     24  C   UNL     1       9.093  -0.548  25.775  0.00  0.00    +0.003 A 
ATOM     25  C   UNL     1       9.405   0.306  24.720  0.00  0.00    +0.015 A 
ENDBRANCH  17  22
ENDBRANCH   1  17
TORSDOF 4
ENDMDL
MODEL 2
REMARK VINA RESULT:      -6.4      5.274      8.530
REMARK  Name = 
REMARK  4 active torsions:
REMARK  status: ('A' for Active; 'I' for Inactive)
REMARK    1  A    between atoms: C_6  and  N_7
REMARK    2  A    between atoms: N_7  and  C_8
REMARK    3  A    between atoms: C_11  and  N_12
REMARK    4  A    between atoms: C_13  and  C_15
REMARK                            x       y       z     vdW  Elec       q    Type
REMARK                         _______ _______ _______ _____ _____    ______ ____
ROOT
ATOM      1  C   UNL     1       9.206  -0.860  25.271  0.00  0.00    +0.134 A 
ATOM      2  N   UNL     1       9.216  -2.175  24.988  0.00  0.00    -0.220 NA
ATOM      3  C   UNL     1       9.488  -2.542  23.737  0.00  0.00    +0.223 A 
ATOM      4  N   UNL     1       9.762  -1.722  22.718  0.00  0.00    -0.235 NA
ATOM      5  C   UNL     1       9.754  -0.419  22.991  0.00  0.00    +0.076 A 
ATOM      6  C   UNL     1      10.005   0.465  21.948  0.00  0.00    +0.030 A 
ATOM      7  C   UNL     1       9.993   1.854  22.127  0.00  0.00    +0.025 A 
ATOM      8  C   UNL     1       9.736   2.391  23.385  0.00  0.00    +0.034 A 
ATOM      9  C   UNL     1       9.497   1.509  24.441  0.00  0.00    +0.036 A 
ATOM     10  C   UNL     1       9.488   0.099  24.266  0.00  0.00    +0.042 A 
ENDROOT
BRANCH   8  11
ATOM     11  N   UNL     1       9.717   3.798  23.523  0.00  0.00    -0.282 N 
ATOM     12  H   UNL     1       8.806   4.225  23.624  0.00  0.00    +0.155 HD
ATOM     13  C   UNL     1      10.821   4.629  23.545  0.00  0.00    +0.241 C 
ATOM     14  O   UNL     1      11.995   4.294  23.438  0.00  0.00    -0.271 OA
BRANCH  13  15
ATOM     15  C   UNL     1      10.462   6.064  23.721  0.00  0.00    +0.060 C 
ATOM     16  C   UNL     1       9.234   6.476  23.377  0.00  0.00    +0.013 C 
ENDBRANCH  13  15
ENDBRANCH   8  11
BRANCH   1  17
ATOM     17  N   UNL     1       8.816  -0.442  26.564  0.00  0.00    -0.299 N 
ATOM     18  H   UNL     1       9.573  -0.148  27.162  0.00  0.00    +0.154 HD
BRANCH  17  22
ATOM     19 BR   UNL     1       5.721   2.257  29.950  0.00  0.00    -0.050 Br
ATOM     20  C   UNL     1       6.026   0.892  28.675  0.00  0.00    +0.020 A 
ATOM     21  C   UNL     1       7.264   0.817  28.032  0.00  0.00    +0.038 A 
ATOM     22  C   UNL     1       7.543  -0.211  27.126  0.00  0.00    +0.033 A 
ATOM     23  C   UNL     1       6.511  -1.121  26.834  0.00  0.00    +0.023 A 
ATOM     24  C   UNL     1       5.267  -1.039  27.469  0.00  0.00    +0.003 A 
ATOM     25  C   UNL     1       5.030  -0.038  28.408  0.00  0.00    +0.015 A 
ENDBRANCH  17  22
ENDBRANCH   1  17
TORSDOF 4
ENDMDL
MODEL 3
REMARK VINA RESULT:      -6.2      3.661      6.230
REMARK  Name = 
REMARK  4 active torsions:
REMARK  status: ('A' for Active; 'I' for Inactive)
REMARK    1  A    between atoms: C_6  and  N_7
REMARK    2  A    between atoms: N_7  and  C_8
REMARK    3  A    between atoms: C_11  and  N_12
REMARK    4  A    between atoms: C_13  and  C_15
REMARK                            x       y       z     vdW  Elec       q    Type
REMARK                         _______ _______ _______ _____ _____    ______ ____
ROOT
ATOM      1  C   UNL     1       9.714  -1.842  23.522  0.00  0.00    +0.134 A 
ATOM      2  N   UNL     1      10.018  -1.892  22.213  0.00  0.00    -0.220 NA
ATOM      3  C   UNL     1       9.818  -0.795  21.485  0.00  0.00    +0.223 A 
ATOM      4  N   UNL     1       9.342   0.371  21.932  0.00  0.00    -0.235 NA
ATOM      5  C   UNL     1       9.039   0.427  23.227  0.00  0.00    +0.076 A 
ATOM      6  C   UNL     1       8.513   1.614  23.721  0.00  0.00    +0.030 A 
ATOM      7  C   UNL     1       8.137   1.764  25.062  0.00  0.00    +0.025 A 
ATOM      8  C   UNL     1       8.299   0.707  25.952  0.00  0.00    +0.034 A 
ATOM      9  C   UNL     1       8.841  -0.485  25.467  0.00  0.00    +0.036 A 
ATOM     10  C   UNL     1       9.207  -0.654  24.104  0.00  0.00    +0.042 A 
ENDROOT
BRANCH   8  11
ATOM     11  N   UNL     1       7.896   0.891  27.294  0.00  0.00    -0.282 N 
ATOM     12  H   UNL     1       8.633   1.073  27.962  0.00  0.00    +0.155 HD
ATOM     13  C   UNL     1       6.597   0.859  27.766  0.00  0.00    +0.241 C 
ATOM     14  O   UNL     1       5.582   0.656  27.111  0.00  0.00    -0.271 OA
BRANCH  13  15
ATOM     15  C   UNL     1       6.507   1.108  29.232  0.00  0.00    +0.060 C 
ATOM     16  C   UNL     1       7.192   2.131  29.764  0.00  0.00    +0.013 C 
ENDBRANCH  13  15
ENDBRANCH   8  11
BRANCH   1  17
ATOM     17  N   UNL     1       9.818  -3.024  24.293  0.00  0.00    -0.299 N 
ATOM     18  H   UNL     1      10.731  -3.198  24.685  0.00  0.00    +0.154 HD
BRANCH  17  22
ATOM     19 BR   UNL     1       5.273  -5.662  23.451  0.00  0.00    -0.050 Br
ATOM     20  C   UNL     1       6.742  -5.146  24.526  0.00  0.00    +0.020 A 
ATOM     21  C   UNL     1       7.766  -4.377  23.968  0.00  0.00    +0.038 A 
ATOM     22  C   UNL     1       8.838  -3.931  24.747  0.00  0.00    +0.033 A 
ATOM     23  C   UNL     1       8.883  -4.344  26.091  0.00  0.00    +0.023 A 
ATOM     24  C   UNL     1       7.864  -5.124  26.648  0.00  0.00    +0.003 A 
ATOM     25  C   UNL     1       6.779  -5.511  25.866  0.00  0.00    +0.015 A 
ENDBRANCH  17  22
ENDBRANCH   1  17
TORSDOF 4
ENDMDL
MODEL 4
REMARK VINA RESULT:      -6.1      4.601      7.830
REMARK  Name = 
REMARK  4 active torsions:
REMARK  status: ('A' for Active; 'I' for Inactive)
REMARK    1  A    between atoms: C_6  and  N_7
REMARK    2  A    between atoms: N_7  and  C_8
REMARK    3  A    between atoms: C_11  and  N_12
REMARK    4  A    between atoms: C_13  and  C_15
REMARK                            x       y       z     vdW  Elec       q    Type
REMARK                         _______ _______ _______ _____ _____    ______ ____
ROOT
ATOM      1  C   UNL     1       8.328  -1.726  23.467  0.00  0.00    +0.134 A 
ATOM      2  N   UNL     1       9.533  -2.305  23.322  0.00  0.00    -0.220 NA
ATOM      3  C   UNL     1      10.490  -1.609  22.712  0.00  0.00    +0.223 A 
ATOM      4  N   UNL     1      10.375  -0.369  22.226  0.00  0.00    -0.235 NA
ATOM      5  C   UNL     1       9.184   0.210  22.366  0.00  0.00    +0.076 A 
ATOM      6  C   UNL     1       9.018   1.488  21.846  0.00  0.00    +0.030 A 
ATOM      7  C   UNL     1       7.798   2.171  21.919  0.00  0.00    +0.025 A 
ATOM      8  C   UNL     1       6.704   1.577  22.540  0.00  0.00    +0.034 A 
ATOM      9  C   UNL     1       6.867   0.300  23.079  0.00  0.00    +0.036 A 
ATOM     10  C   UNL     1       8.095  -0.411  22.993  0.00  0.00    +0.042 A 
ENDROOT
BRANCH   8  11
ATOM     11  N   UNL     1       5.485   2.292  22.581  0.00  0.00    -0.282 N 
ATOM     12  H   UNL     1       4.837   2.116  21.824  0.00  0.00    +0.155 HD
ATOM     13  C   UNL     1       5.099   3.190  23.559  0.00  0.00    +0.241 C 
ATOM     14  O   UNL     1       5.746   3.526  24.544  0.00  0.00    -0.271 OA
BRANCH  13  15
ATOM     15  C   UNL     1       3.745   3.762  23.319  0.00  0.00    +0.060 C 
ATOM     16  C   UNL     1       3.054   3.370  22.239  0.00  0.00    +0.013 C 
ENDBRANCH  13  15
ENDBRANCH   8  11
BRANCH   1  17
ATOM     17  N   UNL     1       7.267  -2.483  24.016  0.00  0.00    -0.299 N 
ATOM     18  H   UNL     1       6.861  -2.101  24.856  0.00  0.00    +0.154 HD
BRANCH  17  22
ATOM     19 BR   UNL     1       4.414  -6.882  24.930  0.00  0.00    -0.050 Br
ATOM     20  C   UNL     1       5.309  -5.666  23.789  0.00  0.00    +0.020 A 
ATOM     21  C   UNL     1       5.847  -4.492  24.322  0.00  0.00    +0.038 A 
ATOM     22  C   UNL     1       6.563  -3.600  23.518  0.00  0.00    +0.033 A 
ATOM     23  C   UNL     1       6.659  -3.891  22.145  0.00  0.00    +0.023 A 
ATOM     24  C   UNL     1       6.110  -5.060  21.609  0.00  0.00    +0.003 A 
ATOM     25  C   UNL     1       5.447  -5.961  22.438  0.00  0.00    +0.015 A 
ENDBRANCH  17  22
ENDBRANCH   1  17
TORSDOF 4
ENDMDL
MODEL 5
REMARK VINA RESULT:      -6.1      4.621      6.118
REMARK  Name = 
REMARK  4 active torsions:
REMARK  status: ('A' for Active; 'I' for Inactive)
REMARK    1  A    between atoms: C_6  and  N_7
REMARK    2  A    between atoms: N_7  and  C_8
REMARK    3  A    between atoms: C_11  and  N_12
REMARK    4  A    between atoms: C_13  and  C_15
REMARK                            x       y       z     vdW  Elec       q    Type
REMARK                         _______ _______ _______ _____ _____    ______ ____
ROOT
ATOM      1  C   UNL     1       9.854   0.456  23.307  0.00  0.00    +0.134 A 
ATOM      2  N   UNL     1      10.188  -0.202  22.182  0.00  0.00    -0.220 NA
ATOM      3  C   UNL     1       9.991  -1.519  22.149  0.00  0.00    +0.223 A 
ATOM      4  N   UNL     1       9.483  -2.264  23.135  0.00  0.00    -0.235 NA
ATOM      5  C   UNL     1       9.150  -1.619  24.251  0.00  0.00    +0.076 A 
ATOM      6  C   UNL     1       8.646  -2.366  25.308  0.00  0.00    +0.030 A 
ATOM      7  C   UNL     1       8.293  -1.784  26.532  0.00  0.00    +0.025 A 
ATOM      8  C   UNL     1       8.430  -0.412  26.716  0.00  0.00    +0.034 A 
ATOM      9  C   UNL     1       8.921   0.348  25.653  0.00  0.00    +0.036 A 
ATOM     10  C   UNL     1       9.301  -0.235  24.413  0.00  0.00    +0.042 A 
ENDROOT
BRANCH   8  11
ATOM     11  N   UNL     1       8.076   0.136  27.970  0.00  0.00    -0.282 N 
ATOM     12  H   UNL     1       8.737  -0.006  28.723  0.00  0.00    +0.155 HD
ATOM     13  C   UNL     1       6.928   0.852  28.252  0.00  0.00    +0.241 C 
ATOM     14  O   UNL     1       6.021   1.123  27.474  0.00  0.00    -0.271 OA
BRANCH  13  15
ATOM     15  C   UNL     1       6.863   1.307  29.669  0.00  0.00    +0.060 C 
ATOM     16  C   UNL     1       8.003   1.470  30.355  0.00  0.00    +0.013 C 
ENDBRANCH  13  15
ENDBRANCH   8  11
BRANCH   1  17
ATOM     17  N   UNL     1      10.152   1.836  23.405  0.00  0.00    -0.299 N 
ATOM     18  H   UNL     1      11.125   2.051  23.556  0.00  0.00    +0.154 HD
BRANCH  17  22
ATOM     19 BR   UNL     1       9.050   6.935  24.458  0.00  0.00    -0.050 Br
ATOM     20  C   UNL     1       8.701   5.281  23.607  0.00  0.00    +0.020 A 
ATOM     21  C   UNL     1       9.613   4.232  23.744  0.00  0.00    +0.038 A 
ATOM     22  C   UNL     1       9.359   2.980  23.175  0.00  0.00    +0.033 A 
ATOM     23  C   UNL     1       8.191   2.838  22.403  0.00  0.00    +0.023 A 
ATOM     24  C   UNL     1       7.284   3.892  22.256  0.00  0.00    +0.003 A 
ATOM     25  C   UNL     1       7.531   5.114  22.876  0.00  0.00    +0.015 A 
ENDBRANCH  17  22
ENDBRANCH   1  17
TORSDOF 4
ENDMDL
MODEL 6
REMARK VINA RESULT:      -6.0      3.201      6.356
REMARK  Name = 
REMARK  4 active torsions:
REMARK  status: ('A' for Active; 'I' for Inactive)
REMARK    1  A    between atoms: C_6  and  N_7
REMARK    2  A    between atoms: N_7  and  C_8
REMARK    3  A    between atoms: C_11  and  N_12
REMARK    4  A    between atoms: C_13  and  C_15
REMARK                            x       y       z     vdW  Elec       q    Type
REMARK                         _______ _______ _______ _____ _____    ______ ____
ROOT
ATOM      1  C   UNL     1       5.673  -5.713  25.074  0.00  0.00    +0.134 A 
ATOM      2  N   UNL     1       4.743  -6.560  24.600  0.00  0.00    -0.220 NA
ATOM      3  C   UNL     1       4.153  -6.254  23.445  0.00  0.00    +0.223 A 
ATOM      4  N   UNL     1       4.401  -5.176  22.695  0.00  0.00    -0.235 NA
ATOM      5  C   UNL     1       5.322  -4.334  23.160  0.00  0.00    +0.076 A 
ATOM      6  C   UNL     1       5.583  -3.186  22.422  0.00  0.00    +0.030 A 
ATOM      7  C   UNL     1       6.514  -2.226  22.840  0.00  0.00    +0.025 A 
ATOM      8  C   UNL     1       7.221  -2.412  24.023  0.00  0.00    +0.034 A 
ATOM      9  C   UNL     1       6.975  -3.569  24.762  0.00  0.00    +0.036 A 
ATOM     10  C   UNL     1       6.019  -4.541  24.358  0.00  0.00    +0.042 A 
ENDROOT
BRANCH   8  11
ATOM     11  N   UNL     1       8.141  -1.414  24.418  0.00  0.00    -0.282 N 
ATOM     12  H   UNL     1       7.756  -0.621  24.916  0.00  0.00    +0.155 HD
ATOM     13  C   UNL     1       9.506  -1.430  24.199  0.00  0.00    +0.241 C 
ATOM     14  O   UNL     1      10.147  -2.299  23.620  0.00  0.00    -0.271 OA
BRANCH  13  15
ATOM     15  C   UNL     1      10.197  -0.233  24.756  0.00  0.00    +0.060 C 
ATOM     16  C   UNL     1      10.330   0.859  23.990  0.00  0.00    +0.013 C 
ENDBRANCH  13  15
ENDBRANCH   8  11
BRANCH   1  17
ATOM     17  N   UNL     1       6.236  -5.961  26.348  0.00  0.00    -0.299 N 
ATOM     18  H   UNL     1       7.197  -6.269  26.337  0.00  0.00    +0.154 HD
BRANCH  17  22
ATOM     19 BR   UNL     1       3.587  -2.807  29.718  0.00  0.00    -0.050 Br
ATOM     20  C   UNL     1       4.625  -4.335  29.312  0.00  0.00    +0.020 A 
ATOM     21  C   UNL     1       4.939  -4.619  27.980  0.00  0.00    +0.038 A 
ATOM     22  C   UNL     1       5.750  -5.708  27.649  0.00  0.00    +0.033 A 
ATOM     23  C   UNL     1       6.179  -6.545  28.695  0.00  0.00    +0.023 A 
ATOM     24  C   UNL     1       5.856  -6.268  30.027  0.00  0.00    +0.003 A 
ATOM     25  C   UNL     1       5.091  -5.147  30.339  0.00  0.00    +0.015 A 
ENDBRANCH  17  22
ENDBRANCH   1  17
TORSDOF 4
ENDMDL
MODEL 7
REMARK VINA RESULT:      -6.0      3.351      4.791
REMARK  Name = 
REMARK  4 active torsions:
REMARK  status: ('A' for Active; 'I' for Inactive)
REMARK    1  A    between atoms: C_6  and  N_7
REMARK    2  A    between atoms: N_7  and  C_8
REMARK    3  A    between atoms: C_11  and  N_12
REMARK    4  A    between atoms: C_13  and  C_15
REMARK                            x       y       z     vdW  Elec       q    Type
REMARK                         _______ _______ _______ _____ _____    ______ ____
ROOT
ATOM      1  C   UNL     1       8.088  -1.416  23.217  0.00  0.00    +0.134 A 
ATOM      2  N   UNL     1       9.425  -1.271  23.211  0.00  0.00    -0.220 NA
ATOM      3  C   UNL     1      10.164  -2.281  23.666  0.00  0.00    +0.223 A 
ATOM      4  N   UNL     1       9.704  -3.446  24.133  0.00  0.00    -0.235 NA
ATOM      5  C   UNL     1       8.380  -3.595  24.142  0.00  0.00    +0.076 A 
ATOM      6  C   UNL     1       7.865  -4.782  24.649  0.00  0.00    +0.030 A 
ATOM      7  C   UNL     1       6.487  -5.024  24.727  0.00  0.00    +0.025 A 
ATOM      8  C   UNL     1       5.586  -4.065  24.276  0.00  0.00    +0.034 A 
ATOM      9  C   UNL     1       6.096  -2.877  23.752  0.00  0.00    +0.036 A 
ATOM     10  C   UNL     1       7.492  -2.612  23.686  0.00  0.00    +0.042 A 
ENDROOT
BRANCH   8  11
ATOM     11  N   UNL     1       4.203  -4.340  24.384  0.00  0.00    -0.282 N 
ATOM     12  H   UNL     1       3.737  -3.972  25.203  0.00  0.00    +0.155 HD
ATOM     13  C   UNL     1       3.440  -5.049  23.476  0.00  0.00    +0.241 C 
ATOM     14  O   UNL     1       3.828  -5.566  22.435  0.00  0.00    -0.271 OA
BRANCH  13  15
ATOM     15  C   UNL     1       2.008  -5.148  23.876  0.00  0.00    +0.060 C 
ATOM     16  C   UNL     1       1.156  -5.820  23.088  0.00  0.00    +0.013 C 
ENDBRANCH  13  15
ENDBRANCH   8  11
BRANCH   1  17
ATOM     17  N   UNL     1       7.280  -0.318  22.839  0.00  0.00    -0.299 N 
ATOM     18  H   UNL     1       6.379  -0.565  22.460  0.00  0.00    +0.154 HD
BRANCH  17  22
ATOM     19 BR   UNL     1       7.440   3.852  26.142  0.00  0.00    -0.050 Br
ATOM     20  C   UNL     1       7.469   3.071  24.418  0.00  0.00    +0.020 A 
ATOM     21  C   UNL     1       7.473   1.680  24.294  0.00  0.00    +0.038 A 
ATOM     22  C   UNL     1       7.438   1.070  23.036  0.00  0.00    +0.033 A 
ATOM     23  C   UNL     1       7.471   1.905  21.905  0.00  0.00    +0.023 A 
ATOM     24  C   UNL     1       7.478   3.298  22.029  0.00  0.00    +0.003 A 
ATOM     25  C   UNL     1       7.459   3.884  23.291  0.00  0.00    +0.015 A 
ENDBRANCH  17  22
ENDBRANCH   1  17
TORSDOF 4
ENDMDL
MODEL 8
REMARK VINA RESULT:      -6.0      5.044      8.328
REMARK  Name = 
REMARK  4 active torsions:
REMARK  status: ('A' for Active; 'I' for Inactive)
REMARK    1  A    between atoms: C_6  and  N_7
REMARK    2  A    between atoms: N_7  and  C_8
REMARK    3  A    between atoms: C_11  and  N_12
REMARK    4  A    between atoms: C_13  and  C_15
REMARK                            x       y       z     vdW  Elec       q    Type
REMARK                         _______ _______ _______ _____ _____    ______ ____
ROOT
ATOM      1  C   UNL     1       8.985   0.005  22.979  0.00  0.00    +0.134 A 
ATOM      2  N   UNL     1      10.203  -0.257  23.486  0.00  0.00    -0.220 NA
ATOM      3  C   UNL     1      10.872   0.746  24.051  0.00  0.00    +0.223 A 
ATOM      4  N   UNL     1      10.447   2.007  24.172  0.00  0.00    -0.235 NA
ATOM      5  C   UNL     1       9.242   2.274  23.671  0.00  0.00    +0.076 A 
ATOM      6  C   UNL     1       8.780   3.582  23.752  0.00  0.00    +0.030 A 
ATOM      7  C   UNL     1       7.539   3.968  23.231  0.00  0.00    +0.025 A 
ATOM      8  C   UNL     1       6.717   3.027  22.620  0.00  0.00    +0.034 A 
ATOM      9  C   UNL     1       7.167   1.707  22.549  0.00  0.00    +0.036 A 
ATOM     10  C   UNL     1       8.434   1.308  23.056  0.00  0.00    +0.042 A 
ENDROOT
BRANCH   8  11
ATOM     11  N   UNL     1       5.478   3.458  22.095  0.00  0.00    -0.282 N 
ATOM     12  H   UNL     1       5.515   3.961  21.218  0.00  0.00    +0.155 HD
ATOM     13  C   UNL     1       4.234   3.244  22.659  0.00  0.00    +0.241 C 
ATOM     14  O   UNL     1       3.994   2.659  23.709  0.00  0.00    -0.271 OA
BRANCH  13  15
ATOM     15  C   UNL     1       3.123   3.813  21.845  0.00  0.00    +0.060 C 
ATOM     16  C   UNL     1       1.997   4.203  22.461  0.00  0.00    +0.013 C 
ENDBRANCH  13  15
ENDBRANCH   8  11
BRANCH   1  17
ATOM     17  N   UNL     1       8.301  -1.017  22.281  0.00  0.00    -0.299 N 
ATOM     18  H   UNL     1       8.550  -1.108  21.308  0.00  0.00    +0.154 HD
BRANCH  17  22
ATOM     19 BR   UNL     1       6.551  -6.029  21.901  0.00  0.00    -0.050 Br
ATOM     20  C   UNL     1       6.501  -4.282  22.626  0.00  0.00    +0.020 A 
ATOM     21  C   UNL     1       7.481  -3.357  22.259  0.00  0.00    +0.038 A 
ATOM     22  C   UNL     1       7.442  -2.042  22.732  0.00  0.00    +0.033 A 
ATOM     23  C   UNL     1       6.424  -1.706  23.642  0.00  0.00    +0.023 A 
ATOM     24  C   UNL     1       5.449  -2.635  24.019  0.00  0.00    +0.003 A 
ATOM     25  C   UNL     1       5.476  -3.924  23.494  0.00  0.00    +0.015 A 
ENDBRANCH  17  22
ENDBRANCH   1  17
TORSDOF 4
ENDMDL
MODEL 9
REMARK VINA RESULT:      -5.9      4.838      8.083
REMARK  Name = 
REMARK  4 active torsions:
REMARK  status: ('A' for Active; 'I' for Inactive)
REMARK    1  A    between atoms: C_6  and  N_7
REMARK    2  A    between atoms: N_7  and  C_8
REMARK    3  A    between atoms: C_11  and  N_12
REMARK    4  A    between atoms: C_13  and  C_15
REMARK                            x       y       z     vdW  Elec       q    Type
REMARK                         _______ _______ _______ _____ _____    ______ ____
ROOT
ATOM      1  C   UNL     1       8.708  -1.413  24.716  0.00  0.00    +0.134 A 
ATOM      2  N   UNL     1       8.346  -2.608  24.218  0.00  0.00    -0.220 NA
ATOM      3  C   UNL     1       8.411  -2.779  22.898  0.00  0.00    +0.223 A 
ATOM      4  N   UNL     1       8.810  -1.869  22.005  0.00  0.00    -0.235 NA
ATOM      5  C   UNL     1       9.170  -0.683  22.492  0.00  0.00    +0.076 A 
ATOM      6  C   UNL     1       9.562   0.298  21.590  0.00  0.00    +0.030 A 
ATOM      7  C   UNL     1       9.932   1.585  22.000  0.00  0.00    +0.025 A 
ATOM      8  C   UNL     1       9.927   1.912  23.352  0.00  0.00    +0.034 A 
ATOM      9  C   UNL     1       9.549   0.928  24.266  0.00  0.00    +0.036 A 
ATOM     10  C   UNL     1       9.153  -0.376  23.860  0.00  0.00    +0.042 A 
ENDROOT
BRANCH   8  11
ATOM     11  N   UNL     1      10.293   3.226  23.726  0.00  0.00    -0.282 N 
ATOM     12  H   UNL     1      11.245   3.351  24.046  0.00  0.00    +0.155 HD
ATOM     13  C   UNL     1       9.480   4.342  23.682  0.00  0.00    +0.241 C 
ATOM     14  O   UNL     1       8.308   4.384  23.325  0.00  0.00    -0.271 OA
BRANCH  13  15
ATOM     15  C   UNL     1      10.173   5.583  24.129  0.00  0.00    +0.060 C 
ATOM     16  C   UNL     1       9.466   6.713  24.263  0.00  0.00    +0.013 C 
ENDBRANCH  13  15
ENDBRANCH   8  11
BRANCH   1  17
ATOM     17  N   UNL     1       8.547  -1.173  26.101  0.00  0.00    -0.299 N 
ATOM     18  H   UNL     1       9.406  -1.120  26.626  0.00  0.00    +0.154 HD
BRANCH  17  22
ATOM     19 BR   UNL     1       3.470  -2.091  27.406  0.00  0.00    -0.050 Br
ATOM     20  C   UNL     1       5.078  -1.098  27.507  0.00  0.00    +0.020 A 
ATOM     21  C   UNL     1       6.220  -1.572  26.857  0.00  0.00    +0.038 A 
ATOM     22  C   UNL     1       7.409  -0.837  26.864  0.00  0.00    +0.033 A 
ATOM     23  C   UNL     1       7.433   0.357  27.607  0.00  0.00    +0.023 A 
ATOM     24  C   UNL     1       6.293   0.827  28.267  0.00  0.00    +0.003 A 
ATOM     25  C   UNL     1       5.104   0.104  28.202  0.00  0.00    +0.015 A 
ENDBRANCH  17  22
ENDBRANCH   1  17
TORSDOF 4
ENDMDL
