MODEL 1
REMARK VINA RESULT:      -7.7      0.000      0.000
REMARK  Name = 
REMARK  8 active torsions:
REMARK  status: ('A' for Active; 'I' for Inactive)
REMARK    1  A    between atoms: CA_2  and  N_3
REMARK    2  A    between atoms: CA_2  and  C_12
REMARK    3  A    between atoms: CA_2  and  C_31
REMARK    4  A    between atoms: N_14  and  CA_15
REMARK    5  A    between atoms: CA_20  and  C_22
REMARK    6  A    between atoms: C_22  and  O_23
REMARK    7  A    between atoms: C_25  and  C_26
REMARK    8  A    between atoms: C_25  and  C_27
REMARK                            x       y       z     vdW  Elec       q    Type
REMARK                         _______ _______ _______ _____ _____    ______ ____
ROOT
ATOM      1  CA  UNL     1       7.549   0.775  24.580  0.00  0.00    +0.191 C 
ENDROOT
BRANCH   1   2
ATOM      2  N   UNL     1       7.318   2.031  23.888  0.00  0.00    -0.284 N 
ATOM      3  H   UNL     1       6.470   2.165  23.347  0.00  0.00    +0.151 HD
ATOM      4  C   UNL     1       8.082   3.154  24.059  0.00  0.00    +0.311 C 
ATOM      5  N   UNL     1       7.661   4.245  23.318  0.00  0.00    -0.208 N 
ATOM      6  C   UNL     1       6.574   4.329  22.427  0.00  0.00    +0.310 C 
ATOM      7  O   UNL     1       5.804   3.433  22.118  0.00  0.00    -0.252 OA
ATOM      8  N   UNL     1       6.478   5.644  21.987  0.00  0.00    -0.297 N 
ATOM      9  H   UNL     1       5.635   5.939  21.508  0.00  0.00    +0.150 HD
ATOM     10  C   UNL     1       7.311   6.485  22.801  0.00  0.00    +0.125 C 
ATOM     11  C   UNL     1       8.350   5.519  23.345  0.00  0.00    +0.138 C 
ATOM     12  O   UNL     1       9.057   3.191  24.803  0.00  0.00    -0.252 OA
ENDBRANCH   1   2
BRANCH   1  13
ATOM     13  C   UNL     1       8.454  -0.160  23.780  0.00  0.00    -0.018 A 
ATOM     14  C   UNL     1       8.335  -0.181  22.382  0.00  0.00    +0.006 A 
ATOM     15  C   UNL     1       9.250  -0.884  21.596  0.00  0.00    +0.000 A 
ATOM     16  C   UNL     1      10.299  -1.578  22.195  0.00  0.00    +0.000 A 
ATOM     17  C   UNL     1      10.407  -1.608  23.581  0.00  0.00    +0.000 A 
ATOM     18  C   UNL     1       9.487  -0.916  24.369  0.00  0.00    +0.006 A 
ENDBRANCH   1  13
BRANCH   1  19
ATOM     19  C   UNL     1       6.186   0.067  24.866  0.00  0.00    +0.239 C 
ATOM     20  N   UNL     1       6.284  -1.287  25.123  0.00  0.00    -0.300 N 
ATOM     21  H   UNL     1       7.211  -1.699  25.078  0.00  0.00    +0.150 HD
ATOM     22  O   UNL     1       5.112   0.661  24.912  0.00  0.00    -0.273 OA
BRANCH  20  23
ATOM     23  CA  UNL     1       5.126  -2.174  25.416  0.00  0.00    +0.190 C 
ATOM     24  C   UNL     1       4.638  -3.001  24.194  0.00  0.00    +0.165 C 
ATOM     25  N   UNL     1       4.839  -4.234  24.982  0.00  0.00    -0.271 N 
ATOM     26  CA  UNL     1       5.548  -5.334  24.289  0.00  0.00    +0.201 C 
ATOM     27  C   UNL     1       6.605  -4.684  23.365  0.00  0.00    +0.042 C 
ATOM     28  C   UNL     1       7.890  -4.324  24.140  0.00  0.00    +0.025 C 
ATOM     29  C   UNL     1       7.056  -5.509  22.155  0.00  0.00    +0.025 C 
ATOM     30  S   UNL     1       5.822  -3.113  22.778  0.00  0.00    -0.127 S 
ATOM     31  C   UNL     1       5.428  -3.577  26.037  0.00  0.00    +0.240 C 
ATOM     32  O   UNL     1       6.054  -4.040  26.959  0.00  0.00    -0.273 OA
BRANCH  26  33
ATOM     33  C   UNL     1       4.477  -6.205  23.599  0.00  0.00    +0.327 C 
ATOM     34  OXT UNL     1       3.706  -5.832  22.730  0.00  0.00    -0.249 OA
BRANCH  33  35
ATOM     35  O   UNL     1       4.550  -7.515  23.959  0.00  0.00    -0.479 OA
ATOM     36  H   UNL     1       5.386  -7.911  23.635  0.00  0.00    +0.295 HD
ENDBRANCH  33  35
ENDBRANCH  26  33
ENDBRANCH  20  23
ENDBRANCH   1  19
TORSDOF 6
ENDMDL
MODEL 2
REMARK VINA RESULT:      -7.7      3.249      4.854
REMARK  Name = 
REMARK  8 active torsions:
REMARK  status: ('A' for Active; 'I' for Inactive)
REMARK    1  A    between atoms: CA_2  and  N_3
REMARK    2  A    between atoms: CA_2  and  C_12
REMARK    3  A    between atoms: CA_2  and  C_31
REMARK    4  A    between atoms: N_14  and  CA_15
REMARK    5  A    between atoms: CA_20  and  C_22
REMARK    6  A    between atoms: C_22  and  O_23
REMARK    7  A    between atoms: C_25  and  C_26
REMARK    8  A    between atoms: C_25  and  C_27
REMARK                            x       y       z     vdW  Elec       q    Type
REMARK                         _______ _______ _______ _____ _____    ______ ____
ROOT
ATOM      1  CA  UNL     1       8.405  -4.055  24.804  0.00  0.00    +0.191 C 
ENDROOT
BRANCH   1   2
ATOM      2  N   UNL     1       8.661  -2.625  24.787  0.00  0.00    -0.284 N 
ATOM      3  H   UNL     1       8.218  -2.022  25.471  0.00  0.00    +0.151 HD
ATOM      4  C   UNL     1       9.626  -2.027  24.021  0.00  0.00    +0.311 C 
ATOM      5  N   UNL     1       9.711  -0.655  24.187  0.00  0.00    -0.208 N 
ATOM      6  C   UNL     1       8.937   0.175  25.022  0.00  0.00    +0.310 C 
ATOM      7  O   UNL     1       8.015  -0.166  25.746  0.00  0.00    -0.252 OA
ATOM      8  N   UNL     1       9.440   1.467  24.932  0.00  0.00    -0.297 N 
ATOM      9  H   UNL     1       9.147   2.154  25.616  0.00  0.00    +0.150 HD
ATOM     10  C   UNL     1      10.715   1.441  24.271  0.00  0.00    +0.125 C 
ATOM     11  C   UNL     1      10.653   0.162  23.451  0.00  0.00    +0.138 C 
ATOM     12  O   UNL     1      10.351  -2.650  23.254  0.00  0.00    -0.252 OA
ENDBRANCH   1   2
BRANCH   1  13
ATOM     13  C   UNL     1       7.545  -4.495  23.621  0.00  0.00    -0.018 A 
ATOM     14  C   UNL     1       6.661  -3.567  23.047  0.00  0.00    +0.006 A 
ATOM     15  C   UNL     1       5.982  -3.862  21.863  0.00  0.00    +0.000 A 
ATOM     16  C   UNL     1       6.176  -5.089  21.233  0.00  0.00    +0.000 A 
ATOM     17  C   UNL     1       7.010  -6.040  21.810  0.00  0.00    +0.000 A 
ATOM     18  C   UNL     1       7.681  -5.752  22.999  0.00  0.00    +0.006 A 
ENDBRANCH   1  13
BRANCH   1  19
ATOM     19  C   UNL     1       7.702  -4.454  26.140  0.00  0.00    +0.239 C 
ATOM     20  N   UNL     1       6.329  -4.296  26.138  0.00  0.00    -0.300 N 
ATOM     21  H   UNL     1       5.911  -3.918  25.294  0.00  0.00    +0.150 HD
ATOM     22  O   UNL     1       8.300  -4.918  27.107  0.00  0.00    -0.273 OA
BRANCH  20  23
ATOM     23  CA  UNL     1       5.445  -4.604  27.294  0.00  0.00    +0.190 C 
ATOM     24  C   UNL     1       3.929  -4.443  26.990  0.00  0.00    +0.165 C 
ATOM     25  N   UNL     1       3.724  -5.846  27.405  0.00  0.00    -0.271 N 
ATOM     26  CA  UNL     1       2.887  -6.669  26.504  0.00  0.00    +0.201 C 
ATOM     27  C   UNL     1       3.177  -6.201  25.058  0.00  0.00    +0.042 C 
ATOM     28  C   UNL     1       4.455  -6.858  24.495  0.00  0.00    +0.025 C 
ATOM     29  C   UNL     1       2.076  -6.457  24.023  0.00  0.00    +0.025 C 
ATOM     30  S   UNL     1       3.473  -4.380  25.199  0.00  0.00    -0.127 S 
ATOM     31  C   UNL     1       5.069  -6.101  27.541  0.00  0.00    +0.240 C 
ATOM     32  O   UNL     1       5.628  -7.166  27.646  0.00  0.00    -0.273 OA
BRANCH  26  33
ATOM     33  C   UNL     1       1.427  -6.537  26.988  0.00  0.00    +0.327 C 
ATOM     34  OXT UNL     1       0.823  -5.490  27.154  0.00  0.00    -0.249 OA
BRANCH  33  35
ATOM     35  O   UNL     1       0.797  -7.738  27.096  0.00  0.00    -0.479 OA
ATOM     36  H   UNL     1       1.364  -8.453  26.737  0.00  0.00    +0.295 HD
ENDBRANCH  33  35
ENDBRANCH  26  33
ENDBRANCH  20  23
ENDBRANCH   1  19
TORSDOF 6
ENDMDL
MODEL 3
REMARK VINA RESULT:      -7.5      2.830      8.453
REMARK  Name = 
REMARK  8 active torsions:
REMARK  status: ('A' for Active; 'I' for Inactive)
REMARK    1  A    between atoms: CA_2  and  N_3
REMARK    2  A    between atoms: CA_2  and  C_12
REMARK    3  A    between atoms: CA_2  and  C_31
REMARK    4  A    between atoms: N_14  and  CA_15
REMARK    5  A    between atoms: CA_20  and  C_22
REMARK    6  A    between atoms: C_22  and  O_23
REMARK    7  A    between atoms: C_25  and  C_26
REMARK    8  A    between atoms: C_25  and  C_27
REMARK                            x       y       z     vdW  Elec       q    Type
REMARK                         _______ _______ _______ _____ _____    ______ ____
ROOT
ATOM      1  CA  UNL     1       6.676  -3.511  24.875  0.00  0.00    +0.191 C 
ENDROOT
BRANCH   1   2
ATOM      2  N   UNL     1       6.339  -4.454  25.927  0.00  0.00    -0.284 N 
ATOM      3  H   UNL     1       7.032  -4.706  26.624  0.00  0.00    +0.151 HD
ATOM      4  C   UNL     1       5.071  -4.904  26.178  0.00  0.00    +0.311 C 
ATOM      5  N   UNL     1       4.980  -5.777  27.249  0.00  0.00    -0.208 N 
ATOM      6  C   UNL     1       6.014  -6.250  28.081  0.00  0.00    +0.310 C 
ATOM      7  O   UNL     1       7.204  -5.992  27.994  0.00  0.00    -0.252 OA
ATOM      8  N   UNL     1       5.441  -7.029  29.079  0.00  0.00    -0.297 N 
ATOM      9  H   UNL     1       6.001  -7.279  29.885  0.00  0.00    +0.150 HD
ATOM     10  C   UNL     1       4.017  -6.839  29.080  0.00  0.00    +0.125 C 
ATOM     11  C   UNL     1       3.729  -6.380  27.660  0.00  0.00    +0.138 C 
ATOM     12  O   UNL     1       4.098  -4.566  25.511  0.00  0.00    -0.252 OA
ENDBRANCH   1   2
BRANCH   1  13
ATOM     13  C   UNL     1       6.678  -4.170  23.496  0.00  0.00    -0.018 A 
ATOM     14  C   UNL     1       7.392  -5.367  23.322  0.00  0.00    +0.006 A 
ATOM     15  C   UNL     1       7.286  -6.097  22.137  0.00  0.00    +0.000 A 
ATOM     16  C   UNL     1       6.466  -5.643  21.106  0.00  0.00    +0.000 A 
ATOM     17  C   UNL     1       5.788  -4.437  21.241  0.00  0.00    +0.000 A 
ATOM     18  C   UNL     1       5.901  -3.699  22.420  0.00  0.00    +0.006 A 
ENDBRANCH   1  13
BRANCH   1  19
ATOM     19  C   UNL     1       8.076  -2.878  25.156  0.00  0.00    +0.239 C 
ATOM     20  N   UNL     1       8.565  -2.088  24.133  0.00  0.00    -0.300 N 
ATOM     21  H   UNL     1       7.996  -2.012  23.296  0.00  0.00    +0.150 HD
ATOM     22  O   UNL     1       8.682  -3.020  26.214  0.00  0.00    -0.273 OA
BRANCH  20  23
ATOM     23  CA  UNL     1       9.877  -1.386  24.166  0.00  0.00    +0.190 C 
ATOM     24  C   UNL     1      10.067  -0.350  23.023  0.00  0.00    +0.165 C 
ATOM     25  N   UNL     1      10.319   0.689  24.043  0.00  0.00    -0.271 N 
ATOM     26  CA  UNL     1       9.601   1.969  23.850  0.00  0.00    +0.201 C 
ATOM     27  C   UNL     1       8.218   1.630  23.244  0.00  0.00    +0.042 C 
ATOM     28  C   UNL     1       7.209   1.212  24.335  0.00  0.00    +0.025 C 
ATOM     29  C   UNL     1       7.535   2.737  22.435  0.00  0.00    +0.025 C 
ATOM     30  S   UNL     1       8.525   0.171  22.148  0.00  0.00    -0.127 S 
ATOM     31  C   UNL     1      10.006  -0.137  25.098  0.00  0.00    +0.240 C 
ATOM     32  O   UNL     1       9.785   0.158  26.247  0.00  0.00    -0.273 OA
BRANCH  26  33
ATOM     33  C   UNL     1      10.514   2.882  23.004  0.00  0.00    +0.327 C 
ATOM     34  OXT UNL     1      11.227   3.774  23.435  0.00  0.00    -0.249 OA
BRANCH  33  35
ATOM     35  O   UNL     1      10.562   2.513  21.696  0.00  0.00    -0.479 OA
ATOM     36  H   UNL     1      10.295   3.262  21.121  0.00  0.00    +0.295 HD
ENDBRANCH  33  35
ENDBRANCH  26  33
ENDBRANCH  20  23
ENDBRANCH   1  19
TORSDOF 6
ENDMDL
MODEL 4
REMARK VINA RESULT:      -7.4      2.048      8.147
REMARK  Name = 
REMARK  8 active torsions:
REMARK  status: ('A' for Active; 'I' for Inactive)
REMARK    1  A    between atoms: CA_2  and  N_3
REMARK    2  A    between atoms: CA_2  and  C_12
REMARK    3  A    between atoms: CA_2  and  C_31
REMARK    4  A    between atoms: N_14  and  CA_15
REMARK    5  A    between atoms: CA_20  and  C_22
REMARK    6  A    between atoms: C_22  and  O_23
REMARK    7  A    between atoms: C_25  and  C_26
REMARK    8  A    between atoms: C_25  and  C_27
REMARK                            x       y       z     vdW  Elec       q    Type
REMARK                         _______ _______ _______ _____ _____    ______ ____
ROOT
ATOM      1  CA  UNL     1       6.353  -2.171  23.436  0.00  0.00    +0.191 C 
ENDROOT
BRANCH   1   2
ATOM      2  N   UNL     1       6.058  -3.408  24.139  0.00  0.00    -0.284 N 
ATOM      3  H   UNL     1       6.364  -3.531  25.099  0.00  0.00    +0.151 HD
ATOM      4  C   UNL     1       5.215  -4.377  23.668  0.00  0.00    +0.311 C 
ATOM      5  N   UNL     1       5.060  -5.458  24.520  0.00  0.00    -0.208 N 
ATOM      6  C   UNL     1       5.660  -5.673  25.776  0.00  0.00    +0.310 C 
ATOM      7  O   UNL     1       6.460  -4.946  26.344  0.00  0.00    -0.252 OA
ATOM      8  N   UNL     1       5.138  -6.846  26.308  0.00  0.00    -0.297 N 
ATOM      9  H   UNL     1       5.293  -7.050  27.288  0.00  0.00    +0.150 HD
ATOM     10  C   UNL     1       3.991  -7.251  25.543  0.00  0.00    +0.125 C 
ATOM     11  C   UNL     1       4.227  -6.596  24.192  0.00  0.00    +0.138 C 
ATOM     12  O   UNL     1       4.646  -4.299  22.584  0.00  0.00    -0.252 OA
ENDBRANCH   1   2
BRANCH   1  13
ATOM     13  C   UNL     1       7.848  -2.010  23.167  0.00  0.00    -0.018 A 
ATOM     14  C   UNL     1       8.262  -1.590  21.893  0.00  0.00    +0.006 A 
ATOM     15  C   UNL     1       9.597  -1.262  21.646  0.00  0.00    +0.000 A 
ATOM     16  C   UNL     1      10.539  -1.348  22.669  0.00  0.00    +0.000 A 
ATOM     17  C   UNL     1      10.158  -1.806  23.925  0.00  0.00    +0.000 A 
ATOM     18  C   UNL     1       8.827  -2.146  24.171  0.00  0.00    +0.006 A 
ENDBRANCH   1  13
BRANCH   1  19
ATOM     19  C   UNL     1       5.834  -0.951  24.262  0.00  0.00    +0.239 C 
ATOM     20  N   UNL     1       6.130   0.282  23.715  0.00  0.00    -0.300 N 
ATOM     21  H   UNL     1       6.670   0.287  22.856  0.00  0.00    +0.150 HD
ATOM     22  O   UNL     1       5.173  -1.064  25.291  0.00  0.00    -0.273 OA
BRANCH  20  23
ATOM     23  CA  UNL     1       5.748   1.586  24.321  0.00  0.00    +0.190 C 
ATOM     24  C   UNL     1       6.891   2.269  25.123  0.00  0.00    +0.165 C 
ATOM     25  N   UNL     1       6.742   3.463  24.265  0.00  0.00    -0.271 N 
ATOM     26  CA  UNL     1       8.000   4.039  23.739  0.00  0.00    +0.201 C 
ATOM     27  C   UNL     1       8.964   2.859  23.467  0.00  0.00    +0.042 C 
ATOM     28  C   UNL     1       8.678   2.199  22.101  0.00  0.00    +0.025 C 
ATOM     29  C   UNL     1      10.461   3.183  23.478  0.00  0.00    +0.025 C 
ATOM     30  S   UNL     1       8.594   1.627  24.797  0.00  0.00    -0.127 S 
ATOM     31  C   UNL     1       5.841   2.859  23.419  0.00  0.00    +0.240 C 
ATOM     32  O   UNL     1       5.469   3.222  22.329  0.00  0.00    -0.273 OA
BRANCH  26  33
ATOM     33  C   UNL     1       8.480   5.095  24.757  0.00  0.00    +0.327 C 
ATOM     34  OXT UNL     1       8.589   4.927  25.961  0.00  0.00    -0.249 OA
BRANCH  33  35
ATOM     35  O   UNL     1       8.915   6.240  24.165  0.00  0.00    -0.479 OA
ATOM     36  H   UNL     1       8.194   6.904  24.138  0.00  0.00    +0.295 HD
ENDBRANCH  33  35
ENDBRANCH  26  33
ENDBRANCH  20  23
ENDBRANCH   1  19
TORSDOF 6
ENDMDL
MODEL 5
REMARK VINA RESULT:      -7.4      2.731      8.082
REMARK  Name = 
REMARK  8 active torsions:
REMARK  status: ('A' for Active; 'I' for Inactive)
REMARK    1  A    between atoms: CA_2  and  N_3
REMARK    2  A    between atoms: CA_2  and  C_12
REMARK    3  A    between atoms: CA_2  and  C_31
REMARK    4  A    between atoms: N_14  and  CA_15
REMARK    5  A    between atoms: CA_20  and  C_22
REMARK    6  A    between atoms: C_22  and  O_23
REMARK    7  A    between atoms: C_25  and  C_26
REMARK    8  A    between atoms: C_25  and  C_27
REMARK                            x       y       z     vdW  Elec       q    Type
REMARK                         _______ _______ _______ _____ _____    ______ ____
ROOT
ATOM      1  CA  UNL     1       4.906  -3.812  25.168  0.00  0.00    +0.191 C 
ENDROOT
BRANCH   1   2
ATOM      2  N   UNL     1       5.226  -4.607  26.341  0.00  0.00    -0.284 N 
ATOM      3  H   UNL     1       6.194  -4.756  26.604  0.00  0.00    +0.151 HD
ATOM      4  C   UNL     1       4.301  -5.030  27.257  0.00  0.00    +0.311 C 
ATOM      5  N   UNL     1       4.837  -5.751  28.312  0.00  0.00    -0.208 N 
ATOM      6  C   UNL     1       6.183  -6.097  28.539  0.00  0.00    +0.310 C 
ATOM      7  O   UNL     1       7.140  -5.843  27.824  0.00  0.00    -0.252 OA
ATOM      8  N   UNL     1       6.262  -6.739  29.769  0.00  0.00    -0.297 N 
ATOM      9  H   UNL     1       7.171  -6.873  30.194  0.00  0.00    +0.150 HD
ATOM     10  C   UNL     1       5.027  -6.563  30.482  0.00  0.00    +0.125 C 
ATOM     11  C   UNL     1       4.021  -6.303  29.373  0.00  0.00    +0.138 C 
ATOM     12  O   UNL     1       3.103  -4.794  27.154  0.00  0.00    -0.252 OA
ENDBRANCH   1   2
BRANCH   1  13
ATOM     13  C   UNL     1       5.735  -4.226  23.954  0.00  0.00    -0.018 A 
ATOM     14  C   UNL     1       6.899  -4.984  24.159  0.00  0.00    +0.006 A 
ATOM     15  C   UNL     1       7.595  -5.532  23.080  0.00  0.00    +0.000 A 
ATOM     16  C   UNL     1       7.140  -5.332  21.778  0.00  0.00    +0.000 A 
ATOM     17  C   UNL     1       6.017  -4.545  21.551  0.00  0.00    +0.000 A 
ATOM     18  C   UNL     1       5.325  -3.986  22.627  0.00  0.00    +0.006 A 
ENDBRANCH   1  13
BRANCH   1  19
ATOM     19  C   UNL     1       5.140  -2.298  25.471  0.00  0.00    +0.239 C 
ATOM     20  N   UNL     1       6.466  -1.912  25.486  0.00  0.00    -0.300 N 
ATOM     21  H   UNL     1       7.159  -2.637  25.328  0.00  0.00    +0.150 HD
ATOM     22  O   UNL     1       4.227  -1.492  25.636  0.00  0.00    -0.273 OA
BRANCH  20  23
ATOM     23  CA  UNL     1       6.937  -0.527  25.756  0.00  0.00    +0.190 C 
ATOM     24  C   UNL     1       8.470  -0.336  25.583  0.00  0.00    +0.165 C 
ATOM     25  N   UNL     1       8.198   0.737  24.604  0.00  0.00    -0.271 N 
ATOM     26  CA  UNL     1       8.983   0.680  23.351  0.00  0.00    +0.201 C 
ATOM     27  C   UNL     1       9.181  -0.816  23.004  0.00  0.00    +0.042 C 
ATOM     28  C   UNL     1       7.949  -1.395  22.276  0.00  0.00    +0.025 C 
ATOM     29  C   UNL     1      10.392  -1.161  22.131  0.00  0.00    +0.025 C 
ATOM     30  S   UNL     1       9.342  -1.665  24.640  0.00  0.00    -0.127 S 
ATOM     31  C   UNL     1       6.841   0.511  24.591  0.00  0.00    +0.240 C 
ATOM     32  O   UNL     1       6.017   0.913  23.806  0.00  0.00    -0.273 OA
BRANCH  26  33
ATOM     33  C   UNL     1      10.267   1.506  23.578  0.00  0.00    +0.327 C 
ATOM     34  OXT UNL     1      11.161   1.234  24.362  0.00  0.00    -0.249 OA
BRANCH  33  35
ATOM     35  O   UNL     1      10.391   2.539  22.702  0.00  0.00    -0.479 OA
ATOM     36  H   UNL     1      10.575   3.374  23.183  0.00  0.00    +0.295 HD
ENDBRANCH  33  35
ENDBRANCH  26  33
ENDBRANCH  20  23
ENDBRANCH   1  19
TORSDOF 6
ENDMDL
MODEL 6
REMARK VINA RESULT:      -7.3      2.500      7.872
REMARK  Name = 
REMARK  8 active torsions:
REMARK  status: ('A' for Active; 'I' for Inactive)
REMARK    1  A    between atoms: CA_2  and  N_3
REMARK    2  A    between atoms: CA_2  and  C_12
REMARK    3  A    between atoms: CA_2  and  C_31
REMARK    4  A    between atoms: N_14  and  CA_15
REMARK    5  A    between atoms: CA_20  and  C_22
REMARK    6  A    between atoms: C_22  and  O_23
REMARK    7  A    between atoms: C_25  and  C_26
REMARK    8  A    between atoms: C_25  and  C_27
REMARK                            x       y       z     vdW  Elec       q    Type
REMARK                         _______ _______ _______ _____ _____    ______ ____
ROOT
ATOM      1  CA  UNL     1       6.466  -4.516  26.798  0.00  0.00    +0.191 C 
ENDROOT
BRANCH   1   2
ATOM      2  N   UNL     1       6.193  -4.997  25.454  0.00  0.00    -0.284 N 
ATOM      3  H   UNL     1       5.235  -5.113  25.142  0.00  0.00    +0.151 HD
ATOM      4  C   UNL     1       7.145  -5.134  24.480  0.00  0.00    +0.311 C 
ATOM      5  N   UNL     1       6.652  -5.583  23.266  0.00  0.00    -0.208 N 
ATOM      6  C   UNL     1       5.325  -5.913  22.930  0.00  0.00    +0.310 C 
ATOM      7  O   UNL     1       4.351  -5.889  23.666  0.00  0.00    -0.252 OA
ATOM      8  N   UNL     1       5.288  -6.223  21.575  0.00  0.00    -0.297 N 
ATOM      9  H   UNL     1       4.389  -6.280  21.111  0.00  0.00    +0.150 HD
ATOM     10  C   UNL     1       6.520  -5.820  20.957  0.00  0.00    +0.125 C 
ATOM     11  C   UNL     1       7.502  -5.812  22.117  0.00  0.00    +0.138 C 
ATOM     12  O   UNL     1       8.331  -4.884  24.665  0.00  0.00    -0.252 OA
ENDBRANCH   1   2
BRANCH   1  13
ATOM     13  C   UNL     1       5.551  -5.166  27.834  0.00  0.00    -0.018 A 
ATOM     14  C   UNL     1       4.320  -5.693  27.411  0.00  0.00    +0.006 A 
ATOM     15  C   UNL     1       3.528  -6.446  28.279  0.00  0.00    +0.000 A 
ATOM     16  C   UNL     1       3.952  -6.685  29.585  0.00  0.00    +0.000 A 
ATOM     17  C   UNL     1       5.145  -6.132  30.037  0.00  0.00    +0.000 A 
ATOM     18  C   UNL     1       5.933  -5.369  29.175  0.00  0.00    +0.006 A 
ENDBRANCH   1  13
BRANCH   1  19
ATOM     19  C   UNL     1       6.300  -2.964  26.852  0.00  0.00    +0.239 C 
ATOM     20  N   UNL     1       7.349  -2.254  26.300  0.00  0.00    -0.300 N 
ATOM     21  H   UNL     1       8.131  -2.792  25.939  0.00  0.00    +0.150 HD
ATOM     22  O   UNL     1       5.302  -2.405  27.300  0.00  0.00    -0.273 OA
BRANCH  20  23
ATOM     23  CA  UNL     1       7.421  -0.768  26.240  0.00  0.00    +0.190 C 
ATOM     24  C   UNL     1       8.662  -0.227  25.478  0.00  0.00    +0.165 C 
ATOM     25  N   UNL     1       7.754   0.517  24.581  0.00  0.00    -0.271 N 
ATOM     26  CA  UNL     1       8.047   0.412  23.134  0.00  0.00    +0.201 C 
ATOM     27  C   UNL     1       8.577  -1.020  22.879  0.00  0.00    +0.042 C 
ATOM     28  C   UNL     1       7.422  -2.033  22.734  0.00  0.00    +0.025 C 
ATOM     29  C   UNL     1       9.468  -1.209  21.647  0.00  0.00    +0.025 C 
ATOM     30  S   UNL     1       9.539  -1.448  24.401  0.00  0.00    -0.127 S 
ATOM     31  C   UNL     1       6.616  -0.050  25.108  0.00  0.00    +0.240 C 
ATOM     32  O   UNL     1       5.494  -0.044  24.663  0.00  0.00    -0.273 OA
BRANCH  26  33
ATOM     33  C   UNL     1       9.002   1.571  22.776  0.00  0.00    +0.327 C 
ATOM     34  OXT UNL     1       9.990   1.902  23.410  0.00  0.00    -0.249 OA
BRANCH  33  35
ATOM     35  O   UNL     1       8.716   2.137  21.572  0.00  0.00    -0.479 OA
ATOM     36  H   UNL     1       7.917   1.722  21.183  0.00  0.00    +0.295 HD
ENDBRANCH  33  35
ENDBRANCH  26  33
ENDBRANCH  20  23
ENDBRANCH   1  19
TORSDOF 6
ENDMDL
MODEL 7
REMARK VINA RESULT:      -7.0      2.977      4.237
REMARK  Name = 
REMARK  8 active torsions:
REMARK  status: ('A' for Active; 'I' for Inactive)
REMARK    1  A    between atoms: CA_2  and  N_3
REMARK    2  A    between atoms: CA_2  and  C_12
REMARK    3  A    between atoms: CA_2  and  C_31
REMARK    4  A    between atoms: N_14  and  CA_15
REMARK    5  A    between atoms: CA_20  and  C_22
REMARK    6  A    between atoms: C_22  and  O_23
REMARK    7  A    between atoms: C_25  and  C_26
REMARK    8  A    between atoms: C_25  and  C_27
REMARK                            x       y       z     vdW  Elec       q    Type
REMARK                         _______ _______ _______ _____ _____    ______ ____
ROOT
ATOM      1  CA  UNL     1       8.900  -0.486  25.412  0.00  0.00    +0.191 C 
ENDROOT
BRANCH   1   2
ATOM      2  N   UNL     1       7.549  -0.213  25.872  0.00  0.00    -0.284 N 
ATOM      3  H   UNL     1       6.761  -0.370  25.253  0.00  0.00    +0.151 HD
ATOM      4  C   UNL     1       7.222   0.069  27.171  0.00  0.00    +0.311 C 
ATOM      5  N   UNL     1       5.868   0.267  27.384  0.00  0.00    -0.208 N 
ATOM      6  C   UNL     1       4.819   0.223  26.446  0.00  0.00    +0.310 C 
ATOM      7  O   UNL     1       4.915   0.022  25.245  0.00  0.00    -0.252 OA
ATOM      8  N   UNL     1       3.621   0.389  27.130  0.00  0.00    -0.297 N 
ATOM      9  H   UNL     1       2.753   0.176  26.653  0.00  0.00    +0.150 HD
ATOM     10  C   UNL     1       3.851   0.254  28.541  0.00  0.00    +0.125 C 
ATOM     11  C   UNL     1       5.325   0.598  28.685  0.00  0.00    +0.138 C 
ATOM     12  O   UNL     1       8.055   0.142  28.068  0.00  0.00    -0.252 OA
ENDBRANCH   1   2
BRANCH   1  13
ATOM     13  C   UNL     1       9.229   0.269  24.126  0.00  0.00    -0.018 A 
ATOM     14  C   UNL     1       8.339   0.177  23.044  0.00  0.00    +0.006 A 
ATOM     15  C   UNL     1       8.503   0.980  21.913  0.00  0.00    +0.000 A 
ATOM     16  C   UNL     1       9.558   1.887  21.845  0.00  0.00    +0.000 A 
ATOM     17  C   UNL     1      10.476   1.960  22.886  0.00  0.00    +0.000 A 
ATOM     18  C   UNL     1      10.322   1.150  24.013  0.00  0.00    +0.006 A 
ENDBRANCH   1  13
BRANCH   1  19
ATOM     19  C   UNL     1       9.084  -2.020  25.182  0.00  0.00    +0.239 C 
ATOM     20  N   UNL     1       8.239  -2.819  25.927  0.00  0.00    -0.300 N 
ATOM     21  H   UNL     1       7.604  -2.350  26.565  0.00  0.00    +0.150 HD
ATOM     22  O   UNL     1       9.876  -2.492  24.371  0.00  0.00    -0.273 OA
BRANCH  20  23
ATOM     23  CA  UNL     1       8.231  -4.307  25.883  0.00  0.00    +0.190 C 
ATOM     24  C   UNL     1       6.912  -4.947  26.400  0.00  0.00    +0.165 C 
ATOM     25  N   UNL     1       6.773  -5.642  25.104  0.00  0.00    -0.271 N 
ATOM     26  CA  UNL     1       5.432  -5.584  24.481  0.00  0.00    +0.201 C 
ATOM     27  C   UNL     1       4.832  -4.197  24.818  0.00  0.00    +0.042 C 
ATOM     28  C   UNL     1       5.345  -3.110  23.850  0.00  0.00    +0.025 C 
ATOM     29  C   UNL     1       3.304  -4.092  24.805  0.00  0.00    +0.025 C 
ATOM     30  S   UNL     1       5.459  -3.809  26.515  0.00  0.00    -0.127 S 
ATOM     31  C   UNL     1       7.840  -4.989  24.531  0.00  0.00    +0.240 C 
ATOM     32  O   UNL     1       8.149  -4.926  23.366  0.00  0.00    -0.273 OA
BRANCH  26  33
ATOM     33  C   UNL     1       4.641  -6.812  24.982  0.00  0.00    +0.327 C 
ATOM     34  OXT UNL     1       4.383  -7.068  26.147  0.00  0.00    -0.249 OA
BRANCH  33  35
ATOM     35  O   UNL     1       4.120  -7.553  23.967  0.00  0.00    -0.479 OA
ATOM     36  H   UNL     1       4.268  -8.509  24.133  0.00  0.00    +0.295 HD
ENDBRANCH  33  35
ENDBRANCH  26  33
ENDBRANCH  20  23
ENDBRANCH   1  19
TORSDOF 6
ENDMDL
MODEL 8
REMARK VINA RESULT:      -6.9      2.886      3.993
REMARK  Name = 
REMARK  8 active torsions:
REMARK  status: ('A' for Active; 'I' for Inactive)
REMARK    1  A    between atoms: CA_2  and  N_3
REMARK    2  A    between atoms: CA_2  and  C_12
REMARK    3  A    between atoms: CA_2  and  C_31
REMARK    4  A    between atoms: N_14  and  CA_15
REMARK    5  A    between atoms: CA_20  and  C_22
REMARK    6  A    between atoms: C_22  and  O_23
REMARK    7  A    between atoms: C_25  and  C_26
REMARK    8  A    between atoms: C_25  and  C_27
REMARK                            x       y       z     vdW  Elec       q    Type
REMARK                         _______ _______ _______ _____ _____    ______ ____
ROOT
ATOM      1  CA  UNL     1       7.997  -2.398  24.290  0.00  0.00    +0.191 C 
ENDROOT
BRANCH   1   2
ATOM      2  N   UNL     1       8.600  -1.238  23.658  0.00  0.00    -0.284 N 
ATOM      3  H   UNL     1       8.314  -0.962  22.724  0.00  0.00    +0.151 HD
ATOM      4  C   UNL     1       9.412  -0.346  24.305  0.00  0.00    +0.311 C 
ATOM      5  N   UNL     1       9.850   0.701  23.511  0.00  0.00    -0.208 N 
ATOM      6  C   UNL     1       9.573   0.943  22.152  0.00  0.00    +0.310 C 
ATOM      7  O   UNL     1       8.904   0.248  21.402  0.00  0.00    -0.252 OA
ATOM      8  N   UNL     1      10.148   2.160  21.804  0.00  0.00    -0.297 N 
ATOM      9  H   UNL     1       9.878   2.596  20.931  0.00  0.00    +0.150 HD
ATOM     10  C   UNL     1      10.553   2.856  22.994  0.00  0.00    +0.125 C 
ATOM     11  C   UNL     1      10.734   1.737  24.005  0.00  0.00    +0.138 C 
ATOM     12  O   UNL     1       9.726  -0.463  25.485  0.00  0.00    -0.252 OA
ENDBRANCH   1   2
BRANCH   1  13
ATOM     13  C   UNL     1       7.553  -3.441  23.265  0.00  0.00    -0.018 A 
ATOM     14  C   UNL     1       7.937  -4.778  23.453  0.00  0.00    +0.006 A 
ATOM     15  C   UNL     1       7.417  -5.792  22.646  0.00  0.00    +0.000 A 
ATOM     16  C   UNL     1       6.505  -5.486  21.639  0.00  0.00    +0.000 A 
ATOM     17  C   UNL     1       6.147  -4.163  21.407  0.00  0.00    +0.000 A 
ATOM     18  C   UNL     1       6.674  -3.146  22.204  0.00  0.00    +0.006 A 
ENDBRANCH   1  13
BRANCH   1  19
ATOM     19  C   UNL     1       6.773  -1.958  25.155  0.00  0.00    +0.239 C 
ATOM     20  N   UNL     1       6.265  -2.945  25.977  0.00  0.00    -0.300 N 
ATOM     21  H   UNL     1       6.706  -3.857  25.929  0.00  0.00    +0.150 HD
ATOM     22  O   UNL     1       6.319  -0.817  25.152  0.00  0.00    -0.273 OA
BRANCH  20  23
ATOM     23  CA  UNL     1       5.101  -2.766  26.886  0.00  0.00    +0.190 C 
ATOM     24  C   UNL     1       3.733  -3.121  26.238  0.00  0.00    +0.165 C 
ATOM     25  N   UNL     1       3.498  -4.089  27.329  0.00  0.00    -0.271 N 
ATOM     26  CA  UNL     1       3.010  -5.423  26.914  0.00  0.00    +0.201 C 
ATOM     27  C   UNL     1       3.681  -5.752  25.558  0.00  0.00    +0.042 C 
ATOM     28  C   UNL     1       5.104  -6.317  25.754  0.00  0.00    +0.025 C 
ATOM     29  C   UNL     1       2.947  -6.750  24.656  0.00  0.00    +0.025 C 
ATOM     30  S   UNL     1       3.817  -4.125  24.688  0.00  0.00    -0.127 S 
ATOM     31  C   UNL     1       4.757  -3.938  27.862  0.00  0.00    +0.240 C 
ATOM     32  O   UNL     1       5.322  -4.633  28.672  0.00  0.00    -0.273 OA
BRANCH  26  33
ATOM     33  C   UNL     1       1.467  -5.367  26.919  0.00  0.00    +0.327 C 
ATOM     34  OXT UNL     1       0.720  -6.326  27.028  0.00  0.00    -0.249 OA
BRANCH  33  35
ATOM     35  O   UNL     1       0.985  -4.096  26.923  0.00  0.00    -0.479 OA
ATOM     36  H   UNL     1       0.051  -4.085  26.623  0.00  0.00    +0.295 HD
ENDBRANCH  33  35
ENDBRANCH  26  33
ENDBRANCH  20  23
ENDBRANCH   1  19
TORSDOF 6
ENDMDL
MODEL 9
REMARK VINA RESULT:      -6.8      2.837      7.503
REMARK  Name = 
REMARK  8 active torsions:
REMARK  status: ('A' for Active; 'I' for Inactive)
REMARK    1  A    between atoms: CA_2  and  N_3
REMARK    2  A    between atoms: CA_2  and  C_12
REMARK    3  A    between atoms: CA_2  and  C_31
REMARK    4  A    between atoms: N_14  and  CA_15
REMARK    5  A    between atoms: CA_20  and  C_22
REMARK    6  A    between atoms: C_22  and  O_23
REMARK    7  A    between atoms: C_25  and  C_26
REMARK    8  A    between atoms: C_25  and  C_27
REMARK                            x       y       z     vdW  Elec       q    Type
REMARK                         _______ _______ _______ _____ _____    ______ ____
ROOT
ATOM      1  CA  UNL     1       6.786  -1.938  23.294  0.00  0.00    +0.191 C 
ENDROOT
BRANCH   1   2
ATOM      2  N   UNL     1       6.265  -1.588  24.604  0.00  0.00    -0.284 N 
ATOM      3  H   UNL     1       6.436  -2.197  25.397  0.00  0.00    +0.151 HD
ATOM      4  C   UNL     1       5.706  -0.376  24.910  0.00  0.00    +0.311 C 
ATOM      5  N   UNL     1       5.304  -0.255  26.229  0.00  0.00    -0.208 N 
ATOM      6  C   UNL     1       5.393  -1.208  27.262  0.00  0.00    +0.310 C 
ATOM      7  O   UNL     1       5.825  -2.347  27.177  0.00  0.00    -0.252 OA
ATOM      8  N   UNL     1       4.953  -0.613  28.438  0.00  0.00    -0.297 N 
ATOM      9  H   UNL     1       5.141  -1.074  29.320  0.00  0.00    +0.150 HD
ATOM     10  C   UNL     1       4.849   0.807  28.247  0.00  0.00    +0.125 C 
ATOM     11  C   UNL     1       4.671   0.942  26.744  0.00  0.00    +0.138 C 
ATOM     12  O   UNL     1       5.571   0.523  24.088  0.00  0.00    -0.252 OA
ENDBRANCH   1   2
BRANCH   1  13
ATOM     13  C   UNL     1       6.657  -3.433  23.009  0.00  0.00    -0.018 A 
ATOM     14  C   UNL     1       6.339  -4.297  24.069  0.00  0.00    +0.006 A 
ATOM     15  C   UNL     1       6.041  -5.640  23.832  0.00  0.00    +0.000 A 
ATOM     16  C   UNL     1       6.057  -6.143  22.533  0.00  0.00    +0.000 A 
ATOM     17  C   UNL     1       6.415  -5.315  21.475  0.00  0.00    +0.000 A 
ATOM     18  C   UNL     1       6.725  -3.974  21.710  0.00  0.00    +0.006 A 
ENDBRANCH   1  13
BRANCH   1  19
ATOM     19  C   UNL     1       8.285  -1.510  23.185  0.00  0.00    +0.239 C 
ATOM     20  N   UNL     1       8.484  -0.223  22.725  0.00  0.00    -0.300 N 
ATOM     21  H   UNL     1       7.656   0.311  22.479  0.00  0.00    +0.150 HD
ATOM     22  O   UNL     1       9.220  -2.231  23.523  0.00  0.00    -0.273 OA
BRANCH  20  23
ATOM     23  CA  UNL     1       9.819   0.405  22.532  0.00  0.00    +0.190 C 
ATOM     24  C   UNL     1       9.758   1.894  22.089  0.00  0.00    +0.165 C 
ATOM     25  N   UNL     1      10.580   2.249  23.264  0.00  0.00    -0.271 N 
ATOM     26  CA  UNL     1      10.111   3.411  24.051  0.00  0.00    +0.201 C 
ATOM     27  C   UNL     1       8.563   3.390  24.018  0.00  0.00    +0.042 C 
ATOM     28  C   UNL     1       7.988   2.424  25.074  0.00  0.00    +0.025 C 
ATOM     29  C   UNL     1       7.856   4.732  24.238  0.00  0.00    +0.025 C 
ATOM     30  S   UNL     1       8.134   2.740  22.340  0.00  0.00    -0.127 S 
ATOM     31  C   UNL     1      10.538   0.980  23.795  0.00  0.00    +0.240 C 
ATOM     32  O   UNL     1      10.835   0.618  24.907  0.00  0.00    -0.273 OA
BRANCH  26  33
ATOM     33  C   UNL     1      10.792   4.666  23.464  0.00  0.00    +0.327 C 
ATOM     34  OXT UNL     1      10.398   5.814  23.587  0.00  0.00    -0.249 OA
BRANCH  33  35
ATOM     35  O   UNL     1      11.990   4.392  22.882  0.00  0.00    -0.479 OA
ATOM     36  H   UNL     1      12.070   4.868  22.028  0.00  0.00    +0.295 HD
ENDBRANCH  33  35
ENDBRANCH  26  33
ENDBRANCH  20  23
ENDBRANCH   1  19
TORSDOF 6
ENDMDL
