MODEL 1
REMARK VINA RESULT:      -7.4      0.000      0.000
REMARK  Name = 
REMARK  6 active torsions:
REMARK  status: ('A' for Active; 'I' for Inactive)
REMARK    1  A    between atoms: C_1  and  C_2
REMARK    2  A    between atoms: C_1  and  N_9
REMARK    3  A    between atoms: C_2  and  N_3
REMARK    4  A    between atoms: N_9  and  C_10
REMARK    5  A    between atoms: C_14  and  C_22
REMARK    6  A    between atoms: C_15  and  C_16
REMARK                            x       y       z     vdW  Elec       q    Type
REMARK                         _______ _______ _______ _____ _____    ______ ____
ROOT
ATOM      1  C   UNL     1       7.663  -4.225  26.231  0.00  0.00    +0.134 A 
ATOM      2  N   UNL     1       8.220  -5.464  26.197  0.00  0.00    -0.220 NA
ATOM      3  C   UNL     1       9.317  -5.682  25.453  0.00  0.00    +0.227 A 
ATOM      4  N   UNL     1       9.974  -4.805  24.708  0.00  0.00    -0.200 NA
ATOM      5  C   UNL     1       9.421  -3.591  24.773  0.00  0.00    +0.233 A 
ATOM      6  O   UNL     1       9.949  -2.540  24.096  0.00  0.00    -0.436 OA
ATOM      7  C   UNL     1       9.212  -1.433  24.388  0.00  0.00    +0.146 A 
ATOM      8  C   UNL     1       8.154  -1.776  25.240  0.00  0.00    +0.041 A 
ATOM      9  C   UNL     1       8.302  -3.196  25.499  0.00  0.00    +0.088 A 
ENDROOT
BRANCH   7  10
ATOM     10  C   UNL     1       9.707  -0.205  23.744  0.00  0.00    +0.018 A 
ATOM     11  C   UNL     1      10.344   0.800  24.484  0.00  0.00    +0.011 A 
ATOM     12  C   UNL     1      10.627   2.046  23.920  0.00  0.00    +0.001 A 
ATOM     13  C   UNL     1      10.359   2.277  22.576  0.00  0.00    +0.000 A 
ATOM     14  C   UNL     1       9.829   1.253  21.793  0.00  0.00    +0.001 A 
ATOM     15  C   UNL     1       9.498   0.023  22.374  0.00  0.00    +0.011 A 
ENDBRANCH   7  10
BRANCH   8  16
ATOM     16  C   UNL     1       7.183  -0.812  25.764  0.00  0.00    -0.014 A 
ATOM     17  C   UNL     1       7.298  -0.345  27.077  0.00  0.00    +0.008 A 
ATOM     18  C   UNL     1       6.454   0.658  27.567  0.00  0.00    +0.001 A 
ATOM     19  C   UNL     1       5.530   1.266  26.727  0.00  0.00    +0.000 A 
ATOM     20  C   UNL     1       5.393   0.812  25.419  0.00  0.00    +0.001 A 
ATOM     21  C   UNL     1       6.172  -0.257  24.963  0.00  0.00    +0.008 A 
ENDBRANCH   8  16
BRANCH   1  22
ATOM     22  N   UNL     1       6.525  -4.037  27.034  0.00  0.00    -0.327 N 
ATOM     23  H   UNL     1       6.425  -4.867  27.613  0.00  0.00    +0.148 HD
BRANCH  22  24
ATOM     24  C   UNL     1       5.284  -3.857  26.263  0.00  0.00    +0.118 C 
BRANCH  24  25
ATOM     25  C   UNL     1       5.117  -4.906  25.131  0.00  0.00    +0.103 C 
BRANCH  25  26
ATOM     26  N   UNL     1       4.453  -4.484  23.883  0.00  0.00    -0.298 NA
ATOM     27  C   UNL     1       4.349  -5.611  22.926  0.00  0.00    +0.099 C 
ATOM     28  C   UNL     1       5.686  -6.018  22.261  0.00  0.00    +0.096 C 
ATOM     29  N   UNL     1       6.360  -4.897  21.596  0.00  0.00    -0.314 NA
ATOM     30  H   UNL     1       7.288  -5.179  21.291  0.00  0.00    +0.122 HD
ATOM     31  C   UNL     1       6.463  -3.737  22.496  0.00  0.00    +0.096 C 
ATOM     32  C   UNL     1       5.133  -3.366  23.197  0.00  0.00    +0.099 C 
ENDBRANCH  25  26
ENDBRANCH  24  25
ENDBRANCH  22  24
ENDBRANCH   1  22
TORSDOF 6
ENDMDL
MODEL 2
REMARK VINA RESULT:      -7.4      2.830      7.344
REMARK  Name = 
REMARK  6 active torsions:
REMARK  status: ('A' for Active; 'I' for Inactive)
REMARK    1  A    between atoms: C_1  and  C_2
REMARK    2  A    between atoms: C_1  and  N_9
REMARK    3  A    between atoms: C_2  and  N_3
REMARK    4  A    between atoms: N_9  and  C_10
REMARK    5  A    between atoms: C_14  and  C_22
REMARK    6  A    between atoms: C_15  and  C_16
REMARK                            x       y       z     vdW  Elec       q    Type
REMARK                         _______ _______ _______ _____ _____    ______ ____
ROOT
ATOM      1  C   UNL     1       6.961  -5.626  26.925  0.00  0.00    +0.134 A 
ATOM      2  N   UNL     1       7.159  -6.011  28.213  0.00  0.00    -0.220 NA
ATOM      3  C   UNL     1       6.197  -6.690  28.861  0.00  0.00    +0.227 A 
ATOM      4  N   UNL     1       5.017  -7.064  28.391  0.00  0.00    -0.200 NA
ATOM      5  C   UNL     1       4.854  -6.693  27.117  0.00  0.00    +0.233 A 
ATOM      6  O   UNL     1       3.718  -6.992  26.438  0.00  0.00    -0.436 OA
ATOM      7  C   UNL     1       3.853  -6.535  25.162  0.00  0.00    +0.146 A 
ATOM      8  C   UNL     1       5.087  -5.887  25.017  0.00  0.00    +0.041 A 
ATOM      9  C   UNL     1       5.746  -6.002  26.304  0.00  0.00    +0.088 A 
ENDROOT
BRANCH   7  10
ATOM     10  C   UNL     1       2.698  -6.834  24.300  0.00  0.00    +0.018 A 
ATOM     11  C   UNL     1       2.198  -8.138  24.177  0.00  0.00    +0.011 A 
ATOM     12  C   UNL     1       1.244  -8.459  23.210  0.00  0.00    +0.001 A 
ATOM     13  C   UNL     1       0.705  -7.459  22.407  0.00  0.00    +0.000 A 
ATOM     14  C   UNL     1       1.106  -6.138  22.588  0.00  0.00    +0.001 A 
ATOM     15  C   UNL     1       2.101  -5.827  23.523  0.00  0.00    +0.011 A 
ENDBRANCH   7  10
BRANCH   8  16
ATOM     16  C   UNL     1       5.557  -5.299  23.760  0.00  0.00    -0.014 A 
ATOM     17  C   UNL     1       6.077  -6.118  22.754  0.00  0.00    +0.008 A 
ATOM     18  C   UNL     1       6.428  -5.599  21.503  0.00  0.00    +0.001 A 
ATOM     19  C   UNL     1       6.192  -4.262  21.210  0.00  0.00    +0.000 A 
ATOM     20  C   UNL     1       5.682  -3.426  22.198  0.00  0.00    +0.001 A 
ATOM     21  C   UNL     1       5.424  -3.929  23.479  0.00  0.00    +0.008 A 
ENDBRANCH   8  16
BRANCH   1  22
ATOM     22  N   UNL     1       7.999  -4.930  26.279  0.00  0.00    -0.327 N 
ATOM     23  H   UNL     1       8.861  -5.153  26.771  0.00  0.00    +0.148 HD
BRANCH  22  24
ATOM     24  C   UNL     1       7.822  -3.469  26.289  0.00  0.00    +0.118 C 
BRANCH  24  25
ATOM     25  C   UNL     1       8.772  -2.738  25.302  0.00  0.00    +0.103 C 
BRANCH  25  26
ATOM     26  N   UNL     1       8.254  -1.559  24.583  0.00  0.00    -0.298 NA
ATOM     27  C   UNL     1       8.679  -1.570  23.163  0.00  0.00    +0.099 C 
ATOM     28  C   UNL     1      10.175  -1.249  22.934  0.00  0.00    +0.096 C 
ATOM     29  N   UNL     1      10.587   0.024  23.536  0.00  0.00    -0.314 NA
ATOM     30  H   UNL     1      11.596   0.128  23.476  0.00  0.00    +0.122 HD
ATOM     31  C   UNL     1      10.163   0.100  24.944  0.00  0.00    +0.096 C 
ATOM     32  C   UNL     1       8.677  -0.271  25.172  0.00  0.00    +0.099 C 
ENDBRANCH  25  26
ENDBRANCH  24  25
ENDBRANCH  22  24
ENDBRANCH   1  22
TORSDOF 6
ENDMDL
MODEL 3
REMARK VINA RESULT:      -7.0      2.815      5.070
REMARK  Name = 
REMARK  6 active torsions:
REMARK  status: ('A' for Active; 'I' for Inactive)
REMARK    1  A    between atoms: C_1  and  C_2
REMARK    2  A    between atoms: C_1  and  N_9
REMARK    3  A    between atoms: C_2  and  N_3
REMARK    4  A    between atoms: N_9  and  C_10
REMARK    5  A    between atoms: C_14  and  C_22
REMARK    6  A    between atoms: C_15  and  C_16
REMARK                            x       y       z     vdW  Elec       q    Type
REMARK                         _______ _______ _______ _____ _____    ______ ____
ROOT
ATOM      1  C   UNL     1       5.719   0.361  25.209  0.00  0.00    +0.134 A 
ATOM      2  N   UNL     1       4.579   0.711  25.861  0.00  0.00    -0.220 NA
ATOM      3  C   UNL     1       4.398   1.984  26.251  0.00  0.00    +0.227 A 
ATOM      4  N   UNL     1       5.222   3.007  26.074  0.00  0.00    -0.200 NA
ATOM      5  C   UNL     1       6.325   2.643  25.413  0.00  0.00    +0.233 A 
ATOM      6  O   UNL     1       7.293   3.544  25.113  0.00  0.00    -0.436 OA
ATOM      7  C   UNL     1       8.263   2.904  24.402  0.00  0.00    +0.146 A 
ATOM      8  C   UNL     1       7.941   1.547  24.273  0.00  0.00    +0.041 A 
ATOM      9  C   UNL     1       6.659   1.382  24.931  0.00  0.00    +0.088 A 
ENDROOT
BRANCH   7  10
ATOM     10  C   UNL     1       9.362   3.784  23.974  0.00  0.00    +0.018 A 
ATOM     11  C   UNL     1      10.599   3.264  23.568  0.00  0.00    +0.011 A 
ATOM     12  C   UNL     1      11.702   4.094  23.363  0.00  0.00    +0.001 A 
ATOM     13  C   UNL     1      11.563   5.473  23.472  0.00  0.00    +0.000 A 
ATOM     14  C   UNL     1      10.316   6.020  23.765  0.00  0.00    +0.001 A 
ATOM     15  C   UNL     1       9.224   5.182  24.022  0.00  0.00    +0.011 A 
ENDBRANCH   7  10
BRANCH   8  16
ATOM     16  C   UNL     1       8.764   0.578  23.544  0.00  0.00    -0.014 A 
ATOM     17  C   UNL     1       9.436  -0.433  24.236  0.00  0.00    +0.008 A 
ATOM     18  C   UNL     1      10.136  -1.437  23.558  0.00  0.00    +0.001 A 
ATOM     19  C   UNL     1      10.111  -1.490  22.170  0.00  0.00    +0.000 A 
ATOM     20  C   UNL     1       9.455  -0.490  21.460  0.00  0.00    +0.001 A 
ATOM     21  C   UNL     1       8.839   0.566  22.141  0.00  0.00    +0.008 A 
ENDBRANCH   8  16
BRANCH   1  22
ATOM     22  N   UNL     1       5.861  -0.979  24.805  0.00  0.00    -0.327 N 
ATOM     23  H   UNL     1       5.174  -1.146  24.074  0.00  0.00    +0.148 HD
BRANCH  22  24
ATOM     24  C   UNL     1       5.632  -1.948  25.889  0.00  0.00    +0.118 C 
BRANCH  24  25
ATOM     25  C   UNL     1       6.891  -2.791  26.223  0.00  0.00    +0.103 C 
BRANCH  25  26
ATOM     26  N   UNL     1       6.813  -4.255  26.059  0.00  0.00    -0.298 NA
ATOM     27  C   UNL     1       7.972  -4.926  26.694  0.00  0.00    +0.099 C 
ATOM     28  C   UNL     1       9.310  -4.756  25.937  0.00  0.00    +0.096 C 
ATOM     29  N   UNL     1       9.234  -5.178  24.534  0.00  0.00    -0.314 NA
ATOM     30  H   UNL     1      10.089  -4.927  24.046  0.00  0.00    +0.122 HD
ATOM     31  C   UNL     1       8.079  -4.561  23.862  0.00  0.00    +0.096 C 
ATOM     32  C   UNL     1       6.752  -4.692  24.649  0.00  0.00    +0.099 C 
ENDBRANCH  25  26
ENDBRANCH  24  25
ENDBRANCH  22  24
ENDBRANCH   1  22
TORSDOF 6
ENDMDL
MODEL 4
REMARK VINA RESULT:      -7.0      2.527      4.044
REMARK  Name = 
REMARK  6 active torsions:
REMARK  status: ('A' for Active; 'I' for Inactive)
REMARK    1  A    between atoms: C_1  and  C_2
REMARK    2  A    between atoms: C_1  and  N_9
REMARK    3  A    between atoms: C_2  and  N_3
REMARK    4  A    between atoms: N_9  and  C_10
REMARK    5  A    between atoms: C_14  and  C_22
REMARK    6  A    between atoms: C_15  and  C_16
REMARK                            x       y       z     vdW  Elec       q    Type
REMARK                         _______ _______ _______ _____ _____    ______ ____
ROOT
ATOM      1  C   UNL     1       7.450  -0.905  23.111  0.00  0.00    +0.134 A 
ATOM      2  N   UNL     1       7.941  -1.970  22.426  0.00  0.00    -0.220 NA
ATOM      3  C   UNL     1       9.138  -1.880  21.822  0.00  0.00    +0.227 A 
ATOM      4  N   UNL     1       9.956  -0.838  21.803  0.00  0.00    -0.200 NA
ATOM      5  C   UNL     1       9.461   0.190  22.499  0.00  0.00    +0.233 A 
ATOM      6  O   UNL     1      10.149   1.352  22.620  0.00  0.00    -0.436 OA
ATOM      7  C   UNL     1       9.429   2.191  23.416  0.00  0.00    +0.146 A 
ATOM      8  C   UNL     1       8.226   1.578  23.787  0.00  0.00    +0.041 A 
ATOM      9  C   UNL     1       8.256   0.257  23.189  0.00  0.00    +0.088 A 
ENDROOT
BRANCH   7  10
ATOM     10  C   UNL     1      10.089   3.483  23.665  0.00  0.00    +0.018 A 
ATOM     11  C   UNL     1       9.372   4.587  24.146  0.00  0.00    +0.011 A 
ATOM     12  C   UNL     1       9.944   5.861  24.185  0.00  0.00    +0.001 A 
ATOM     13  C   UNL     1      11.276   6.035  23.826  0.00  0.00    +0.000 A 
ATOM     14  C   UNL     1      12.039   4.932  23.451  0.00  0.00    +0.001 A 
ATOM     15  C   UNL     1      11.449   3.666  23.363  0.00  0.00    +0.011 A 
ENDBRANCH   7  10
BRANCH   8  16
ATOM     16  C   UNL     1       7.228   2.201  24.661  0.00  0.00    -0.014 A 
ATOM     17  C   UNL     1       6.080   2.781  24.114  0.00  0.00    +0.008 A 
ATOM     18  C   UNL     1       5.059   3.281  24.929  0.00  0.00    +0.001 A 
ATOM     19  C   UNL     1       5.134   3.140  26.309  0.00  0.00    +0.000 A 
ATOM     20  C   UNL     1       6.271   2.573  26.877  0.00  0.00    +0.001 A 
ATOM     21  C   UNL     1       7.332   2.162  26.061  0.00  0.00    +0.008 A 
ENDBRANCH   8  16
BRANCH   1  22
ATOM     22  N   UNL     1       6.201  -1.046  23.741  0.00  0.00    -0.327 N 
ATOM     23  H   UNL     1       6.308  -0.713  24.697  0.00  0.00    +0.148 HD
BRANCH  22  24
ATOM     24  C   UNL     1       5.718  -2.435  23.785  0.00  0.00    +0.118 C 
BRANCH  24  25
ATOM     25  C   UNL     1       6.246  -3.222  25.015  0.00  0.00    +0.103 C 
BRANCH  25  26
ATOM     26  N   UNL     1       6.597  -4.643  24.834  0.00  0.00    -0.298 NA
ATOM     27  C   UNL     1       5.951  -5.489  25.865  0.00  0.00    +0.099 C 
ATOM     28  C   UNL     1       6.558  -5.357  27.282  0.00  0.00    +0.096 C 
ATOM     29  N   UNL     1       8.004  -5.603  27.312  0.00  0.00    -0.314 NA
ATOM     30  H   UNL     1       8.378  -5.378  28.229  0.00  0.00    +0.122 HD
ATOM     31  C   UNL     1       8.694  -4.807  26.284  0.00  0.00    +0.096 C 
ATOM     32  C   UNL     1       8.051  -4.905  24.878  0.00  0.00    +0.099 C 
ENDBRANCH  25  26
ENDBRANCH  24  25
ENDBRANCH  22  24
ENDBRANCH   1  22
TORSDOF 6
ENDMDL
MODEL 5
REMARK VINA RESULT:      -6.8      4.033      6.303
REMARK  Name = 
REMARK  6 active torsions:
REMARK  status: ('A' for Active; 'I' for Inactive)
REMARK    1  A    between atoms: C_1  and  C_2
REMARK    2  A    between atoms: C_1  and  N_9
REMARK    3  A    between atoms: C_2  and  N_3
REMARK    4  A    between atoms: N_9  and  C_10
REMARK    5  A    between atoms: C_14  and  C_22
REMARK    6  A    between atoms: C_15  and  C_16
REMARK                            x       y       z     vdW  Elec       q    Type
REMARK                         _______ _______ _______ _____ _____    ______ ____
ROOT
ATOM      1  C   UNL     1       5.893   2.604  22.804  0.00  0.00    +0.134 A 
ATOM      2  N   UNL     1       4.688   3.182  22.559  0.00  0.00    -0.220 NA
ATOM      3  C   UNL     1       4.531   4.503  22.749  0.00  0.00    +0.227 A 
ATOM      4  N   UNL     1       5.442   5.372  23.162  0.00  0.00    -0.200 NA
ATOM      5  C   UNL     1       6.623   4.785  23.376  0.00  0.00    +0.233 A 
ATOM      6  O   UNL     1       7.699   5.501  23.788  0.00  0.00    -0.436 OA
ATOM      7  C   UNL     1       8.763   4.655  23.875  0.00  0.00    +0.146 A 
ATOM      8  C   UNL     1       8.363   3.352  23.555  0.00  0.00    +0.041 A 
ATOM      9  C   UNL     1       6.955   3.444  23.216  0.00  0.00    +0.088 A 
ENDROOT
BRANCH   7  10
ATOM     10  C   UNL     1      10.015   5.318  24.276  0.00  0.00    +0.018 A 
ATOM     11  C   UNL     1      10.026   6.332  25.243  0.00  0.00    +0.011 A 
ATOM     12  C   UNL     1      11.169   7.101  25.473  0.00  0.00    +0.001 A 
ATOM     13  C   UNL     1      12.350   6.807  24.801  0.00  0.00    +0.000 A 
ATOM     14  C   UNL     1      12.392   5.731  23.917  0.00  0.00    +0.001 A 
ATOM     15  C   UNL     1      11.231   4.996  23.650  0.00  0.00    +0.011 A 
ENDBRANCH   7  10
BRANCH   8  16
ATOM     16  C   UNL     1       9.271   2.201  23.529  0.00  0.00    -0.014 A 
ATOM     17  C   UNL     1       9.724   1.639  24.726  0.00  0.00    +0.008 A 
ATOM     18  C   UNL     1      10.499   0.474  24.733  0.00  0.00    +0.001 A 
ATOM     19  C   UNL     1      10.770  -0.193  23.546  0.00  0.00    +0.000 A 
ATOM     20  C   UNL     1      10.335   0.352  22.342  0.00  0.00    +0.001 A 
ATOM     21  C   UNL     1       9.643   1.569  22.331  0.00  0.00    +0.008 A 
ENDBRANCH   8  16
BRANCH   1  22
ATOM     22  N   UNL     1       6.019   1.221  22.578  0.00  0.00    -0.327 N 
ATOM     23  H   UNL     1       5.149   0.907  22.153  0.00  0.00    +0.148 HD
BRANCH  22  24
ATOM     24  C   UNL     1       6.244   0.442  23.806  0.00  0.00    +0.118 C 
BRANCH  24  25
ATOM     25  C   UNL     1       6.997  -0.890  23.548  0.00  0.00    +0.103 C 
BRANCH  25  26
ATOM     26  N   UNL     1       6.553  -2.093  24.277  0.00  0.00    -0.298 NA
ATOM     27  C   UNL     1       7.568  -2.521  25.270  0.00  0.00    +0.099 C 
ATOM     28  C   UNL     1       8.835  -3.166  24.660  0.00  0.00    +0.096 C 
ATOM     29  N   UNL     1       8.534  -4.300  23.779  0.00  0.00    -0.314 NA
ATOM     30  H   UNL     1       9.377  -4.605  23.302  0.00  0.00    +0.122 HD
ATOM     31  C   UNL     1       7.506  -3.937  22.789  0.00  0.00    +0.096 C 
ATOM     32  C   UNL     1       6.262  -3.247  23.400  0.00  0.00    +0.099 C 
ENDBRANCH  25  26
ENDBRANCH  24  25
ENDBRANCH  22  24
ENDBRANCH   1  22
TORSDOF 6
ENDMDL
MODEL 6
REMARK VINA RESULT:      -6.8      2.707      4.183
REMARK  Name = 
REMARK  6 active torsions:
REMARK  status: ('A' for Active; 'I' for Inactive)
REMARK    1  A    between atoms: C_1  and  C_2
REMARK    2  A    between atoms: C_1  and  N_9
REMARK    3  A    between atoms: C_2  and  N_3
REMARK    4  A    between atoms: N_9  and  C_10
REMARK    5  A    between atoms: C_14  and  C_22
REMARK    6  A    between atoms: C_15  and  C_16
REMARK                            x       y       z     vdW  Elec       q    Type
REMARK                         _______ _______ _______ _____ _____    ______ ____
ROOT
ATOM      1  C   UNL     1       7.848  -0.981  22.997  0.00  0.00    +0.134 A 
ATOM      2  N   UNL     1       8.664  -2.059  22.855  0.00  0.00    -0.220 NA
ATOM      3  C   UNL     1       9.997  -1.892  22.868  0.00  0.00    +0.227 A 
ATOM      4  N   UNL     1      10.667  -0.758  23.013  0.00  0.00    -0.200 NA
ATOM      5  C   UNL     1       9.845   0.283  23.171  0.00  0.00    +0.233 A 
ATOM      6  O   UNL     1      10.327   1.539  23.353  0.00  0.00    -0.436 OA
ATOM      7  C   UNL     1       9.270   2.378  23.533  0.00  0.00    +0.146 A 
ATOM      8  C   UNL     1       8.071   1.663  23.423  0.00  0.00    +0.041 A 
ATOM      9  C   UNL     1       8.454   0.282  23.196  0.00  0.00    +0.088 A 
ENDROOT
BRANCH   7  10
ATOM     10  C   UNL     1       9.659   3.775  23.784  0.00  0.00    +0.018 A 
ATOM     11  C   UNL     1      10.897   4.275  23.357  0.00  0.00    +0.011 A 
ATOM     12  C   UNL     1      11.353   5.528  23.771  0.00  0.00    +0.001 A 
ATOM     13  C   UNL     1      10.538   6.343  24.549  0.00  0.00    +0.000 A 
ATOM     14  C   UNL     1       9.259   5.911  24.892  0.00  0.00    +0.001 A 
ATOM     15  C   UNL     1       8.824   4.633  24.519  0.00  0.00    +0.011 A 
ENDBRANCH   7  10
BRANCH   8  16
ATOM     16  C   UNL     1       6.744   2.264  23.587  0.00  0.00    -0.014 A 
ATOM     17  C   UNL     1       6.134   2.921  22.515  0.00  0.00    +0.008 A 
ATOM     18  C   UNL     1       4.825   3.404  22.608  0.00  0.00    +0.001 A 
ATOM     19  C   UNL     1       4.074   3.170  23.753  0.00  0.00    +0.000 A 
ATOM     20  C   UNL     1       4.662   2.524  24.836  0.00  0.00    +0.001 A 
ATOM     21  C   UNL     1       6.003   2.128  24.773  0.00  0.00    +0.008 A 
ENDBRANCH   8  16
BRANCH   1  22
ATOM     22  N   UNL     1       6.459  -1.202  22.993  0.00  0.00    -0.327 N 
ATOM     23  H   UNL     1       6.096  -0.839  23.871  0.00  0.00    +0.148 HD
BRANCH  22  24
ATOM     24  C   UNL     1       6.090  -2.623  22.890  0.00  0.00    +0.118 C 
BRANCH  24  25
ATOM     25  C   UNL     1       6.248  -3.389  24.230  0.00  0.00    +0.103 C 
BRANCH  25  26
ATOM     26  N   UNL     1       6.446  -4.850  24.178  0.00  0.00    -0.298 NA
ATOM     27  C   UNL     1       5.998  -5.495  25.435  0.00  0.00    +0.099 C 
ATOM     28  C   UNL     1       6.926  -5.255  26.650  0.00  0.00    +0.096 C 
ATOM     29  N   UNL     1       8.318  -5.642  26.394  0.00  0.00    -0.314 NA
ATOM     30  H   UNL     1       8.910  -5.346  27.165  0.00  0.00    +0.122 HD
ATOM     31  C   UNL     1       8.805  -5.050  25.137  0.00  0.00    +0.096 C 
ATOM     32  C   UNL     1       7.848  -5.251  23.937  0.00  0.00    +0.099 C 
ENDBRANCH  25  26
ENDBRANCH  24  25
ENDBRANCH  22  24
ENDBRANCH   1  22
TORSDOF 6
ENDMDL
MODEL 7
REMARK VINA RESULT:      -6.6      3.532      6.991
REMARK  Name = 
REMARK  6 active torsions:
REMARK  status: ('A' for Active; 'I' for Inactive)
REMARK    1  A    between atoms: C_1  and  C_2
REMARK    2  A    between atoms: C_1  and  N_9
REMARK    3  A    between atoms: C_2  and  N_3
REMARK    4  A    between atoms: N_9  and  C_10
REMARK    5  A    between atoms: C_14  and  C_22
REMARK    6  A    between atoms: C_15  and  C_16
REMARK                            x       y       z     vdW  Elec       q    Type
REMARK                         _______ _______ _______ _____ _____    ______ ____
ROOT
ATOM      1  C   UNL     1       6.693   0.394  26.778  0.00  0.00    +0.134 A 
ATOM      2  N   UNL     1       5.909   0.382  27.888  0.00  0.00    -0.220 NA
ATOM      3  C   UNL     1       5.075  -0.649  28.104  0.00  0.00    +0.227 A 
ATOM      4  N   UNL     1       4.902  -1.720  27.344  0.00  0.00    -0.200 NA
ATOM      5  C   UNL     1       5.698  -1.696  26.270  0.00  0.00    +0.233 A 
ATOM      6  O   UNL     1       5.691  -2.709  25.368  0.00  0.00    -0.436 OA
ATOM      7  C   UNL     1       6.628  -2.437  24.417  0.00  0.00    +0.146 A 
ATOM      8  C   UNL     1       7.228  -1.200  24.681  0.00  0.00    +0.041 A 
ATOM      9  C   UNL     1       6.620  -0.720  25.908  0.00  0.00    +0.088 A 
ENDROOT
BRANCH   7  10
ATOM     10  C   UNL     1       6.753  -3.486  23.392  0.00  0.00    +0.018 A 
ATOM     11  C   UNL     1       6.051  -3.410  22.181  0.00  0.00    +0.011 A 
ATOM     12  C   UNL     1       6.004  -4.494  21.302  0.00  0.00    +0.001 A 
ATOM     13  C   UNL     1       6.735  -5.644  21.577  0.00  0.00    +0.000 A 
ATOM     14  C   UNL     1       7.529  -5.699  22.721  0.00  0.00    +0.001 A 
ATOM     15  C   UNL     1       7.533  -4.631  23.626  0.00  0.00    +0.011 A 
ENDBRANCH   7  10
BRANCH   8  16
ATOM     16  C   UNL     1       8.296  -0.619  23.862  0.00  0.00    -0.014 A 
ATOM     17  C   UNL     1       8.017  -0.156  22.572  0.00  0.00    +0.008 A 
ATOM     18  C   UNL     1       8.988   0.504  21.812  0.00  0.00    +0.001 A 
ATOM     19  C   UNL     1      10.234   0.782  22.359  0.00  0.00    +0.000 A 
ATOM     20  C   UNL     1      10.536   0.325  23.638  0.00  0.00    +0.001 A 
ATOM     21  C   UNL     1       9.595  -0.420  24.357  0.00  0.00    +0.008 A 
ENDBRANCH   8  16
BRANCH   1  22
ATOM     22  N   UNL     1       7.563   1.484  26.598  0.00  0.00    -0.327 N 
ATOM     23  H   UNL     1       7.631   1.964  27.492  0.00  0.00    +0.148 HD
BRANCH  22  24
ATOM     24  C   UNL     1       7.098   2.447  25.587  0.00  0.00    +0.118 C 
BRANCH  24  25
ATOM     25  C   UNL     1       8.178   3.496  25.208  0.00  0.00    +0.103 C 
BRANCH  25  26
ATOM     26  N   UNL     1       8.704   3.487  23.830  0.00  0.00    -0.298 NA
ATOM     27  C   UNL     1      10.004   4.194  23.750  0.00  0.00    +0.099 C 
ATOM     28  C   UNL     1       9.911   5.733  23.872  0.00  0.00    +0.096 C 
ATOM     29  N   UNL     1       8.991   6.331  22.898  0.00  0.00    -0.314 NA
ATOM     30  H   UNL     1       8.862   7.319  23.100  0.00  0.00    +0.122 HD
ATOM     31  C   UNL     1       7.688   5.645  22.915  0.00  0.00    +0.096 C 
ATOM     32  C   UNL     1       7.792   4.102  22.843  0.00  0.00    +0.099 C 
ENDBRANCH  25  26
ENDBRANCH  24  25
ENDBRANCH  22  24
ENDBRANCH   1  22
TORSDOF 6
ENDMDL
MODEL 8
REMARK VINA RESULT:      -6.6      2.193      4.541
REMARK  Name = 
REMARK  6 active torsions:
REMARK  status: ('A' for Active; 'I' for Inactive)
REMARK    1  A    between atoms: C_1  and  C_2
REMARK    2  A    between atoms: C_1  and  N_9
REMARK    3  A    between atoms: C_2  and  N_3
REMARK    4  A    between atoms: N_9  and  C_10
REMARK    5  A    between atoms: C_14  and  C_22
REMARK    6  A    between atoms: C_15  and  C_16
REMARK                            x       y       z     vdW  Elec       q    Type
REMARK                         _______ _______ _______ _____ _____    ______ ____
ROOT
ATOM      1  C   UNL     1       7.574  -2.258  25.633  0.00  0.00    +0.134 A 
ATOM      2  N   UNL     1       6.941  -3.221  26.353  0.00  0.00    -0.220 NA
ATOM      3  C   UNL     1       5.676  -3.026  26.761  0.00  0.00    +0.227 A 
ATOM      4  N   UNL     1       4.912  -1.966  26.543  0.00  0.00    -0.200 NA
ATOM      5  C   UNL     1       5.548  -1.041  25.818  0.00  0.00    +0.233 A 
ATOM      6  O   UNL     1       4.938   0.119  25.467  0.00  0.00    -0.436 OA
ATOM      7  C   UNL     1       5.802   0.837  24.697  0.00  0.00    +0.146 A 
ATOM      8  C   UNL     1       7.016   0.151  24.578  0.00  0.00    +0.041 A 
ATOM      9  C   UNL     1       6.841  -1.091  25.308  0.00  0.00    +0.088 A 
ENDROOT
BRANCH   7  10
ATOM     10  C   UNL     1       5.244   2.110  24.212  0.00  0.00    +0.018 A 
ATOM     11  C   UNL     1       4.268   2.804  24.941  0.00  0.00    +0.011 A 
ATOM     12  C   UNL     1       3.592   3.894  24.390  0.00  0.00    +0.001 A 
ATOM     13  C   UNL     1       3.944   4.366  23.131  0.00  0.00    +0.000 A 
ATOM     14  C   UNL     1       4.987   3.760  22.434  0.00  0.00    +0.001 A 
ATOM     15  C   UNL     1       5.628   2.635  22.967  0.00  0.00    +0.011 A 
ENDBRANCH   7  10
BRANCH   8  16
ATOM     16  C   UNL     1       8.156   0.638  23.795  0.00  0.00    -0.014 A 
ATOM     17  C   UNL     1       8.282   0.288  22.448  0.00  0.00    +0.008 A 
ATOM     18  C   UNL     1       9.296   0.828  21.649  0.00  0.00    +0.001 A 
ATOM     19  C   UNL     1      10.155   1.789  22.166  0.00  0.00    +0.000 A 
ATOM     20  C   UNL     1      10.053   2.147  23.506  0.00  0.00    +0.001 A 
ATOM     21  C   UNL     1       9.100   1.532  24.326  0.00  0.00    +0.008 A 
ENDBRANCH   8  16
BRANCH   1  22
ATOM     22  N   UNL     1       8.892  -2.508  25.212  0.00  0.00    -0.327 N 
ATOM     23  H   UNL     1       9.411  -1.640  25.321  0.00  0.00    +0.148 HD
BRANCH  22  24
ATOM     24  C   UNL     1       8.990  -2.935  23.807  0.00  0.00    +0.118 C 
BRANCH  24  25
ATOM     25  C   UNL     1       7.994  -4.071  23.449  0.00  0.00    +0.103 C 
BRANCH  25  26
ATOM     26  N   UNL     1       7.261  -3.978  22.172  0.00  0.00    -0.298 NA
ATOM     27  C   UNL     1       6.102  -3.062  22.288  0.00  0.00    +0.099 C 
ATOM     28  C   UNL     1       4.916  -3.623  23.108  0.00  0.00    +0.096 C 
ATOM     29  N   UNL     1       4.441  -4.921  22.617  0.00  0.00    -0.314 NA
ATOM     30  H   UNL     1       3.756  -5.309  23.260  0.00  0.00    +0.122 HD
ATOM     31  C   UNL     1       5.561  -5.863  22.456  0.00  0.00    +0.096 C 
ATOM     32  C   UNL     1       6.765  -5.279  21.676  0.00  0.00    +0.099 C 
ENDBRANCH  25  26
ENDBRANCH  24  25
ENDBRANCH  22  24
ENDBRANCH   1  22
TORSDOF 6
ENDMDL
MODEL 9
REMARK VINA RESULT:      -6.6      2.587      3.693
REMARK  Name = 
REMARK  6 active torsions:
REMARK  status: ('A' for Active; 'I' for Inactive)
REMARK    1  A    between atoms: C_1  and  C_2
REMARK    2  A    between atoms: C_1  and  N_9
REMARK    3  A    between atoms: C_2  and  N_3
REMARK    4  A    between atoms: N_9  and  C_10
REMARK    5  A    between atoms: C_14  and  C_22
REMARK    6  A    between atoms: C_15  and  C_16
REMARK                            x       y       z     vdW  Elec       q    Type
REMARK                         _______ _______ _______ _____ _____    ______ ____
ROOT
ATOM      1  C   UNL     1       8.547  -1.284  24.139  0.00  0.00    +0.134 A 
ATOM      2  N   UNL     1       9.441  -2.092  23.511  0.00  0.00    -0.220 NA
ATOM      3  C   UNL     1      10.264  -1.580  22.581  0.00  0.00    +0.227 A 
ATOM      4  N   UNL     1      10.334  -0.323  22.170  0.00  0.00    -0.200 NA
ATOM      5  C   UNL     1       9.460   0.456  22.815  0.00  0.00    +0.233 A 
ATOM      6  O   UNL     1       9.379   1.786  22.556  0.00  0.00    -0.436 OA
ATOM      7  C   UNL     1       8.446   2.325  23.390  0.00  0.00    +0.146 A 
ATOM      8  C   UNL     1       7.876   1.318  24.180  0.00  0.00    +0.041 A 
ATOM      9  C   UNL     1       8.554   0.092  23.806  0.00  0.00    +0.088 A 
ENDROOT
BRANCH   7  10
ATOM     10  C   UNL     1       8.288   3.780  23.239  0.00  0.00    +0.018 A 
ATOM     11  C   UNL     1       7.279   4.325  22.434  0.00  0.00    +0.011 A 
ATOM     12  C   UNL     1       7.255   5.686  22.125  0.00  0.00    +0.001 A 
ATOM     13  C   UNL     1       8.191   6.544  22.691  0.00  0.00    +0.000 A 
ATOM     14  C   UNL     1       9.135   6.041  23.583  0.00  0.00    +0.001 A 
ATOM     15  C   UNL     1       9.189   4.668  23.850  0.00  0.00    +0.011 A 
ENDBRANCH   7  10
BRANCH   8  16
ATOM     16  C   UNL     1       6.853   1.562  25.200  0.00  0.00    -0.014 A 
ATOM     17  C   UNL     1       5.520   1.757  24.824  0.00  0.00    +0.008 A 
ATOM     18  C   UNL     1       4.507   1.880  25.781  0.00  0.00    +0.001 A 
ATOM     19  C   UNL     1       4.798   1.732  27.131  0.00  0.00    +0.000 A 
ATOM     20  C   UNL     1       6.118   1.545  27.528  0.00  0.00    +0.001 A 
ATOM     21  C   UNL     1       7.141   1.520  26.574  0.00  0.00    +0.008 A 
ENDBRANCH   8  16
BRANCH   1  22
ATOM     22  N   UNL     1       7.714  -1.857  25.117  0.00  0.00    -0.327 N 
ATOM     23  H   UNL     1       8.077  -2.788  25.312  0.00  0.00    +0.148 HD
BRANCH  22  24
ATOM     24  C   UNL     1       6.310  -1.986  24.692  0.00  0.00    +0.118 C 
BRANCH  24  25
ATOM     25  C   UNL     1       6.094  -3.117  23.652  0.00  0.00    +0.103 C 
BRANCH  25  26
ATOM     26  N   UNL     1       6.518  -4.483  24.010  0.00  0.00    -0.298 NA
ATOM     27  C   UNL     1       7.434  -5.044  22.989  0.00  0.00    +0.099 C 
ATOM     28  C   UNL     1       6.752  -5.437  21.657  0.00  0.00    +0.096 C 
ATOM     29  N   UNL     1       5.629  -6.362  21.838  0.00  0.00    -0.314 NA
ATOM     30  H   UNL     1       5.133  -6.487  20.960  0.00  0.00    +0.122 HD
ATOM     31  C   UNL     1       4.700  -5.866  22.867  0.00  0.00    +0.096 C 
ATOM     32  C   UNL     1       5.394  -5.429  24.180  0.00  0.00    +0.099 C 
ENDBRANCH  25  26
ENDBRANCH  24  25
ENDBRANCH  22  24
ENDBRANCH   1  22
TORSDOF 6
ENDMDL
