MODEL 1
REMARK VINA RESULT:      -6.9      0.000      0.000
REMARK  Name = 
REMARK  4 active torsions:
REMARK  status: ('A' for Active; 'I' for Inactive)
REMARK    1  A    between atoms: C_2  and  C_3
REMARK    2  A    between atoms: N_7  and  C_8
REMARK    3  A    between atoms: C_8  and  C_9
REMARK    4  A    between atoms: N_17  and  C_18
REMARK                            x       y       z     vdW  Elec       q    Type
REMARK                         _______ _______ _______ _____ _____    ______ ____
ROOT
ATOM      1  C   UNL     1       8.193  -4.835  26.335  0.00  0.00    +0.116 A 
ATOM      2  C   UNL     1       9.393  -5.115  25.660  0.00  0.00    +0.156 A 
ATOM      3  N   UNL     1       9.741  -4.150  24.792  0.00  0.00    -0.169 NA
ATOM      4  N   UNL     1       8.719  -3.263  24.917  0.00  0.00    -0.182 N 
ATOM      5  C   UNL     1       8.595  -2.064  24.198  0.00  0.00    +0.225 A 
ATOM      6  N   UNL     1       9.612  -1.661  23.352  0.00  0.00    -0.283 N 
ATOM      7  H   UNL     1      10.328  -2.337  23.111  0.00  0.00    +0.155 HD
ATOM      8  N   UNL     1       7.497  -1.380  24.358  0.00  0.00    -0.181 NA
ATOM      9  C   UNL     1       6.554  -1.792  25.261  0.00  0.00    +0.220 A 
ATOM     10  N   UNL     1       5.458  -0.999  25.312  0.00  0.00    -0.313 N 
ATOM     11  H   UNL     1       5.306  -0.412  24.505  0.00  0.00    +0.149 HD
ATOM     12  N   UNL     1       6.679  -2.842  26.027  0.00  0.00    -0.194 NA
ATOM     13  C   UNL     1       7.767  -3.632  25.833  0.00  0.00    +0.180 A 
ENDROOT
BRANCH   6  14
ATOM     14  C   UNL     1       9.950  -0.305  23.149  0.00  0.00    +0.034 A 
ATOM     15  C   UNL     1       9.656   0.310  21.928  0.00  0.00    +0.023 A 
ATOM     16  C   UNL     1       9.880   1.681  21.742  0.00  0.00    +0.002 A 
ATOM     17  C   UNL     1      10.428   2.451  22.767  0.00  0.00    +0.000 A 
ATOM     18  C   UNL     1      10.755   1.850  23.978  0.00  0.00    +0.002 A 
ATOM     19  C   UNL     1      10.508   0.487  24.168  0.00  0.00    +0.023 A 
ENDBRANCH   6  14
BRANCH   1  21
ATOM     20  N   UNL     1       7.006  -6.245  28.135  0.00  0.00    -0.191 NA
ATOM     21  C   UNL     1       7.539  -5.627  27.311  0.00  0.00    +0.104 C 
ENDBRANCH   1  21
BRANCH  10  22
ATOM     22  C   UNL     1       4.601  -0.851  26.455  0.00  0.00    +0.108 C 
BRANCH  22  23
ATOM     23  C   UNL     1       4.532   0.611  26.951  0.00  0.00    +0.006 C 
ATOM     24  C   UNL     1       4.868   1.722  25.922  0.00  0.00    +0.005 C 
ATOM     25  C   UNL     1       6.317   2.221  25.852  0.00  0.00    +0.000 C 
ATOM     26  C   UNL     1       7.024   2.266  27.199  0.00  0.00    +0.000 C 
ATOM     27  C   UNL     1       6.855   0.943  27.924  0.00  0.00    +0.000 C 
ATOM     28  C   UNL     1       5.377   0.731  28.230  0.00  0.00    +0.005 C 
ENDBRANCH  22  23
ENDBRANCH  10  22
TORSDOF 4
ENDMDL
MODEL 2
REMARK VINA RESULT:      -6.8      2.375      6.149
REMARK  Name = 
REMARK  4 active torsions:
REMARK  status: ('A' for Active; 'I' for Inactive)
REMARK    1  A    between atoms: C_2  and  C_3
REMARK    2  A    between atoms: N_7  and  C_8
REMARK    3  A    between atoms: C_8  and  C_9
REMARK    4  A    between atoms: N_17  and  C_18
REMARK                            x       y       z     vdW  Elec       q    Type
REMARK                         _______ _______ _______ _____ _____    ______ ____
ROOT
ATOM      1  C   UNL     1       6.465   1.252  26.993  0.00  0.00    +0.116 A 
ATOM      2  C   UNL     1       5.875   0.187  27.692  0.00  0.00    +0.156 A 
ATOM      3  N   UNL     1       5.637  -0.882  26.913  0.00  0.00    -0.169 NA
ATOM      4  N   UNL     1       6.070  -0.457  25.697  0.00  0.00    -0.182 N 
ATOM      5  C   UNL     1       6.025  -1.210  24.513  0.00  0.00    +0.225 A 
ATOM      6  N   UNL     1       5.603  -2.526  24.550  0.00  0.00    -0.283 N 
ATOM      7  H   UNL     1       5.140  -2.855  25.390  0.00  0.00    +0.155 HD
ATOM      8  N   UNL     1       6.382  -0.614  23.410  0.00  0.00    -0.181 NA
ATOM      9  C   UNL     1       6.856   0.669  23.442  0.00  0.00    +0.220 A 
ATOM     10  N   UNL     1       7.171   1.171  22.225  0.00  0.00    -0.313 N 
ATOM     11  H   UNL     1       6.747   0.703  21.437  0.00  0.00    +0.149 HD
ATOM     12  N   UNL     1       7.015   1.367  24.534  0.00  0.00    -0.194 NA
ATOM     13  C   UNL     1       6.577   0.817  25.697  0.00  0.00    +0.180 A 
ENDROOT
BRANCH   6  14
ATOM     14  C   UNL     1       6.131  -3.526  23.706  0.00  0.00    +0.034 A 
ATOM     15  C   UNL     1       7.341  -4.148  24.033  0.00  0.00    +0.023 A 
ATOM     16  C   UNL     1       7.828  -5.218  23.271  0.00  0.00    +0.002 A 
ATOM     17  C   UNL     1       7.125  -5.665  22.153  0.00  0.00    +0.000 A 
ATOM     18  C   UNL     1       5.936  -5.040  21.794  0.00  0.00    +0.002 A 
ATOM     19  C   UNL     1       5.441  -3.987  22.570  0.00  0.00    +0.023 A 
ENDBRANCH   6  14
BRANCH   1  21
ATOM     20  N   UNL     1       7.195   3.554  27.892  0.00  0.00    -0.191 NA
ATOM     21  C   UNL     1       6.847   2.520  27.499  0.00  0.00    +0.104 C 
ENDBRANCH   1  21
BRANCH  10  22
ATOM     22  C   UNL     1       8.139   2.204  21.984  0.00  0.00    +0.108 C 
BRANCH  22  23
ATOM     23  C   UNL     1       9.567   1.642  21.807  0.00  0.00    +0.006 C 
ATOM     24  C   UNL     1       9.721   0.099  21.786  0.00  0.00    +0.005 C 
ATOM     25  C   UNL     1      10.022  -0.611  23.112  0.00  0.00    +0.000 C 
ATOM     26  C   UNL     1      10.928   0.178  24.047  0.00  0.00    +0.000 C 
ATOM     27  C   UNL     1      10.411   1.597  24.203  0.00  0.00    +0.000 C 
ATOM     28  C   UNL     1      10.482   2.301  22.853  0.00  0.00    +0.005 C 
ENDBRANCH  22  23
ENDBRANCH  10  22
TORSDOF 4
ENDMDL
MODEL 3
REMARK VINA RESULT:      -6.5      2.091      6.371
REMARK  Name = 
REMARK  4 active torsions:
REMARK  status: ('A' for Active; 'I' for Inactive)
REMARK    1  A    between atoms: C_2  and  C_3
REMARK    2  A    between atoms: N_7  and  C_8
REMARK    3  A    between atoms: C_8  and  C_9
REMARK    4  A    between atoms: N_17  and  C_18
REMARK                            x       y       z     vdW  Elec       q    Type
REMARK                         _______ _______ _______ _____ _____    ______ ____
ROOT
ATOM      1  C   UNL     1       4.595   2.081  25.830  0.00  0.00    +0.116 A 
ATOM      2  C   UNL     1       3.986   1.202  26.740  0.00  0.00    +0.156 A 
ATOM      3  N   UNL     1       4.354  -0.078  26.555  0.00  0.00    -0.169 NA
ATOM      4  N   UNL     1       5.191   0.011  25.489  0.00  0.00    -0.182 N 
ATOM      5  C   UNL     1       5.844  -1.072  24.879  0.00  0.00    +0.225 A 
ATOM      6  N   UNL     1       5.733  -2.337  25.425  0.00  0.00    -0.283 N 
ATOM      7  H   UNL     1       5.019  -2.493  26.128  0.00  0.00    +0.155 HD
ATOM      8  N   UNL     1       6.529  -0.827  23.798  0.00  0.00    -0.181 NA
ATOM      9  C   UNL     1       6.661   0.457  23.342  0.00  0.00    +0.220 A 
ATOM     10  N   UNL     1       7.381   0.564  22.201  0.00  0.00    -0.313 N 
ATOM     11  H   UNL     1       7.466  -0.282  21.657  0.00  0.00    +0.149 HD
ATOM     12  N   UNL     1       6.160   1.504  23.939  0.00  0.00    -0.194 NA
ATOM     13  C   UNL     1       5.368   1.288  25.021  0.00  0.00    +0.180 A 
ENDROOT
BRANCH   6  14
ATOM     14  C   UNL     1       6.780  -3.284  25.389  0.00  0.00    +0.034 A 
ATOM     15  C   UNL     1       6.891  -4.158  24.304  0.00  0.00    +0.023 A 
ATOM     16  C   UNL     1       7.983  -5.029  24.192  0.00  0.00    +0.002 A 
ATOM     17  C   UNL     1       8.966  -5.058  25.181  0.00  0.00    +0.000 A 
ATOM     18  C   UNL     1       8.856  -4.217  26.283  0.00  0.00    +0.002 A 
ATOM     19  C   UNL     1       7.777  -3.333  26.380  0.00  0.00    +0.023 A 
ENDBRANCH   6  14
BRANCH   1  21
ATOM     20  N   UNL     1       4.326   4.636  25.630  0.00  0.00    -0.191 NA
ATOM     21  C   UNL     1       4.435   3.487  25.740  0.00  0.00    +0.104 C 
ENDBRANCH   1  21
BRANCH  10  22
ATOM     22  C   UNL     1       8.116   1.730  21.797  0.00  0.00    +0.108 C 
BRANCH  22  23
ATOM     23  C   UNL     1       9.643   1.539  21.935  0.00  0.00    +0.006 C 
ATOM     24  C   UNL     1      10.160   0.087  22.111  0.00  0.00    +0.005 C 
ATOM     25  C   UNL     1      10.355  -0.436  23.539  0.00  0.00    +0.000 C 
ATOM     26  C   UNL     1      10.846   0.614  24.525  0.00  0.00    +0.000 C 
ATOM     27  C   UNL     1       9.986   1.862  24.431  0.00  0.00    +0.000 C 
ATOM     28  C   UNL     1      10.151   2.474  23.044  0.00  0.00    +0.005 C 
ENDBRANCH  22  23
ENDBRANCH  10  22
TORSDOF 4
ENDMDL
MODEL 4
REMARK VINA RESULT:      -6.4      2.379      6.106
REMARK  Name = 
REMARK  4 active torsions:
REMARK  status: ('A' for Active; 'I' for Inactive)
REMARK    1  A    between atoms: C_2  and  C_3
REMARK    2  A    between atoms: N_7  and  C_8
REMARK    3  A    between atoms: C_8  and  C_9
REMARK    4  A    between atoms: N_17  and  C_18
REMARK                            x       y       z     vdW  Elec       q    Type
REMARK                         _______ _______ _______ _____ _____    ______ ____
ROOT
ATOM      1  C   UNL     1       6.058   0.904  27.268  0.00  0.00    +0.116 A 
ATOM      2  C   UNL     1       5.471  -0.167  27.960  0.00  0.00    +0.156 A 
ATOM      3  N   UNL     1       5.273  -1.245  27.182  0.00  0.00    -0.169 NA
ATOM      4  N   UNL     1       5.727  -0.820  25.974  0.00  0.00    -0.182 N 
ATOM      5  C   UNL     1       5.725  -1.581  24.795  0.00  0.00    +0.225 A 
ATOM      6  N   UNL     1       5.327  -2.904  24.831  0.00  0.00    -0.283 N 
ATOM      7  H   UNL     1       4.849  -3.237  25.662  0.00  0.00    +0.155 HD
ATOM      8  N   UNL     1       6.096  -0.986  23.697  0.00  0.00    -0.181 NA
ATOM      9  C   UNL     1       6.546   0.307  23.732  0.00  0.00    +0.220 A 
ATOM     10  N   UNL     1       6.881   0.807  22.519  0.00  0.00    -0.313 N 
ATOM     11  H   UNL     1       6.484   0.326  21.725  0.00  0.00    +0.149 HD
ATOM     12  N   UNL     1       6.665   1.014  24.823  0.00  0.00    -0.194 NA
ATOM     13  C   UNL     1       6.209   0.464  25.978  0.00  0.00    +0.180 A 
ENDROOT
BRANCH   6  14
ATOM     14  C   UNL     1       5.894  -3.900  24.006  0.00  0.00    +0.034 A 
ATOM     15  C   UNL     1       5.154  -4.427  22.942  0.00  0.00    +0.023 A 
ATOM     16  C   UNL     1       5.734  -5.333  22.044  0.00  0.00    +0.002 A 
ATOM     17  C   UNL     1       7.054  -5.747  22.214  0.00  0.00    +0.000 A 
ATOM     18  C   UNL     1       7.795  -5.257  23.283  0.00  0.00    +0.002 A 
ATOM     19  C   UNL     1       7.222  -4.335  24.164  0.00  0.00    +0.023 A 
ENDBRANCH   6  14
BRANCH   1  21
ATOM     20  N   UNL     1       6.654   3.226  28.214  0.00  0.00    -0.191 NA
ATOM     21  C   UNL     1       6.404   2.182  27.775  0.00  0.00    +0.104 C 
ENDBRANCH   1  21
BRANCH  10  22
ATOM     22  C   UNL     1       7.834   1.856  22.295  0.00  0.00    +0.108 C 
BRANCH  22  23
ATOM     23  C   UNL     1       9.200   1.317  21.815  0.00  0.00    +0.006 C 
ATOM     24  C   UNL     1       9.224  -0.114  21.217  0.00  0.00    +0.005 C 
ATOM     25  C   UNL     1       9.529  -1.282  22.162  0.00  0.00    +0.000 C 
ATOM     26  C   UNL     1      10.543  -0.953  23.249  0.00  0.00    +0.000 C 
ATOM     27  C   UNL     1      10.154   0.334  23.954  0.00  0.00    +0.000 C 
ATOM     28  C   UNL     1      10.217   1.484  22.957  0.00  0.00    +0.005 C 
ENDBRANCH  22  23
ENDBRANCH  10  22
TORSDOF 4
ENDMDL
MODEL 5
REMARK VINA RESULT:      -6.3      4.258      7.463
REMARK  Name = 
REMARK  4 active torsions:
REMARK  status: ('A' for Active; 'I' for Inactive)
REMARK    1  A    between atoms: C_2  and  C_3
REMARK    2  A    between atoms: N_7  and  C_8
REMARK    3  A    between atoms: C_8  and  C_9
REMARK    4  A    between atoms: N_17  and  C_18
REMARK                            x       y       z     vdW  Elec       q    Type
REMARK                         _______ _______ _______ _____ _____    ______ ____
ROOT
ATOM      1  C   UNL     1       4.477   4.524  23.486  0.00  0.00    +0.116 A 
ATOM      2  C   UNL     1       4.561   5.916  23.319  0.00  0.00    +0.156 A 
ATOM      3  N   UNL     1       5.736   6.421  23.733  0.00  0.00    -0.169 NA
ATOM      4  N   UNL     1       6.384   5.317  24.188  0.00  0.00    -0.182 N 
ATOM      5  C   UNL     1       7.669   5.306  24.751  0.00  0.00    +0.225 A 
ATOM      6  N   UNL     1       8.415   6.470  24.783  0.00  0.00    -0.283 N 
ATOM      7  H   UNL     1       7.942   7.347  24.590  0.00  0.00    +0.155 HD
ATOM      8  N   UNL     1       8.102   4.177  25.237  0.00  0.00    -0.181 NA
ATOM      9  C   UNL     1       7.349   3.041  25.116  0.00  0.00    +0.220 A 
ATOM     10  N   UNL     1       7.909   1.946  25.680  0.00  0.00    -0.313 N 
ATOM     11  H   UNL     1       8.621   2.128  26.372  0.00  0.00    +0.149 HD
ATOM     12  N   UNL     1       6.196   2.985  24.504  0.00  0.00    -0.194 NA
ATOM     13  C   UNL     1       5.667   4.154  24.058  0.00  0.00    +0.180 A 
ENDROOT
BRANCH   6  14
ATOM     14  C   UNL     1       9.820   6.486  24.647  0.00  0.00    +0.034 A 
ATOM     15  C   UNL     1      10.608   7.108  25.621  0.00  0.00    +0.023 A 
ATOM     16  C   UNL     1      12.006   7.040  25.566  0.00  0.00    +0.002 A 
ATOM     17  C   UNL     1      12.638   6.373  24.518  0.00  0.00    +0.000 A 
ATOM     18  C   UNL     1      11.873   5.775  23.523  0.00  0.00    +0.002 A 
ATOM     19  C   UNL     1      10.477   5.824  23.594  0.00  0.00    +0.023 A 
ENDBRANCH   6  14
BRANCH   1  21
ATOM     20  N   UNL     1       2.492   2.977  22.931  0.00  0.00    -0.191 NA
ATOM     21  C   UNL     1       3.392   3.673  23.159  0.00  0.00    +0.104 C 
ENDBRANCH   1  21
BRANCH  10  22
ATOM     22  C   UNL     1       7.657   0.591  25.277  0.00  0.00    +0.108 C 
BRANCH  22  23
ATOM     23  C   UNL     1       8.809   0.007  24.429  0.00  0.00    +0.006 C 
ATOM     24  C   UNL     1      10.169   0.750  24.478  0.00  0.00    +0.005 C 
ATOM     25  C   UNL     1      10.443   1.819  23.413  0.00  0.00    +0.000 C 
ATOM     26  C   UNL     1       9.864   1.493  22.044  0.00  0.00    +0.000 C 
ATOM     27  C   UNL     1       8.403   1.101  22.173  0.00  0.00    +0.000 C 
ATOM     28  C   UNL     1       8.304  -0.183  22.989  0.00  0.00    +0.005 C 
ENDBRANCH  22  23
ENDBRANCH  10  22
TORSDOF 4
ENDMDL
MODEL 6
REMARK VINA RESULT:      -6.1      1.727      5.331
REMARK  Name = 
REMARK  4 active torsions:
REMARK  status: ('A' for Active; 'I' for Inactive)
REMARK    1  A    between atoms: C_2  and  C_3
REMARK    2  A    between atoms: N_7  and  C_8
REMARK    3  A    between atoms: C_8  and  C_9
REMARK    4  A    between atoms: N_17  and  C_18
REMARK                            x       y       z     vdW  Elec       q    Type
REMARK                         _______ _______ _______ _____ _____    ______ ____
ROOT
ATOM      1  C   UNL     1       7.971  -3.652  25.791  0.00  0.00    +0.116 A 
ATOM      2  C   UNL     1       6.811  -3.930  26.533  0.00  0.00    +0.156 A 
ATOM      3  N   UNL     1       6.224  -2.823  27.018  0.00  0.00    -0.169 NA
ATOM      4  N   UNL     1       7.054  -1.839  26.585  0.00  0.00    -0.182 N 
ATOM      5  C   UNL     1       6.892  -0.469  26.844  0.00  0.00    +0.225 A 
ATOM      6  N   UNL     1       5.764  -0.024  27.509  0.00  0.00    -0.283 N 
ATOM      7  H   UNL     1       5.183  -0.712  27.977  0.00  0.00    +0.155 HD
ATOM      8  N   UNL     1       7.839   0.333  26.446  0.00  0.00    -0.181 NA
ATOM      9  C   UNL     1       8.900  -0.154  25.731  0.00  0.00    +0.220 A 
ATOM     10  N   UNL     1       9.817   0.784  25.399  0.00  0.00    -0.313 N 
ATOM     11  H   UNL     1       9.798   1.628  25.952  0.00  0.00    +0.149 HD
ATOM     12  N   UNL     1       9.035  -1.404  25.376  0.00  0.00    -0.194 NA
ATOM     13  C   UNL     1       8.116  -2.289  25.842  0.00  0.00    +0.180 A 
ENDROOT
BRANCH   6  14
ATOM     14  C   UNL     1       5.151   1.218  27.236  0.00  0.00    +0.034 A 
ATOM     15  C   UNL     1       5.146   2.222  28.209  0.00  0.00    +0.023 A 
ATOM     16  C   UNL     1       4.643   3.498  27.922  0.00  0.00    +0.002 A 
ATOM     17  C   UNL     1       4.110   3.779  26.666  0.00  0.00    +0.000 A 
ATOM     18  C   UNL     1       4.078   2.785  25.695  0.00  0.00    +0.002 A 
ATOM     19  C   UNL     1       4.602   1.519  25.976  0.00  0.00    +0.023 A 
ENDBRANCH   6  14
BRANCH   1  21
ATOM     20  N   UNL     1       9.502  -5.356  24.612  0.00  0.00    -0.191 NA
ATOM     21  C   UNL     1       8.830  -4.574  25.142  0.00  0.00    +0.104 C 
ENDBRANCH   1  21
BRANCH  10  22
ATOM     22  C   UNL     1      10.696   0.711  24.266  0.00  0.00    +0.108 C 
BRANCH  22  23
ATOM     23  C   UNL     1      10.487   1.884  23.283  0.00  0.00    +0.006 C 
ATOM     24  C   UNL     1       9.594   3.058  23.765  0.00  0.00    +0.005 C 
ATOM     25  C   UNL     1       8.100   3.010  23.423  0.00  0.00    +0.000 C 
ATOM     26  C   UNL     1       7.793   2.400  22.062  0.00  0.00    +0.000 C 
ATOM     27  C   UNL     1       8.509   1.070  21.912  0.00  0.00    +0.000 C 
ATOM     28  C   UNL     1      10.014   1.311  21.936  0.00  0.00    +0.005 C 
ENDBRANCH  22  23
ENDBRANCH  10  22
TORSDOF 4
ENDMDL
MODEL 7
REMARK VINA RESULT:      -6.0      2.229      4.825
REMARK  Name = 
REMARK  4 active torsions:
REMARK  status: ('A' for Active; 'I' for Inactive)
REMARK    1  A    between atoms: C_2  and  C_3
REMARK    2  A    between atoms: N_7  and  C_8
REMARK    3  A    between atoms: C_8  and  C_9
REMARK    4  A    between atoms: N_17  and  C_18
REMARK                            x       y       z     vdW  Elec       q    Type
REMARK                         _______ _______ _______ _____ _____    ______ ____
ROOT
ATOM      1  C   UNL     1       4.913  -1.541  27.882  0.00  0.00    +0.116 A 
ATOM      2  C   UNL     1       4.864  -0.155  28.103  0.00  0.00    +0.156 A 
ATOM      3  N   UNL     1       5.832   0.512  27.451  0.00  0.00    -0.169 NA
ATOM      4  N   UNL     1       6.510  -0.489  26.832  0.00  0.00    -0.182 N 
ATOM      5  C   UNL     1       7.644  -0.320  26.022  0.00  0.00    +0.225 A 
ATOM      6  N   UNL     1       8.091   0.954  25.723  0.00  0.00    -0.283 N 
ATOM      7  H   UNL     1       7.719   1.729  26.261  0.00  0.00    +0.155 HD
ATOM      8  N   UNL     1       8.239  -1.396  25.591  0.00  0.00    -0.181 NA
ATOM      9  C   UNL     1       7.711  -2.630  25.861  0.00  0.00    +0.220 A 
ATOM     10  N   UNL     1       8.440  -3.660  25.370  0.00  0.00    -0.313 N 
ATOM     11  H   UNL     1       9.403  -3.448  25.153  0.00  0.00    +0.149 HD
ATOM     12  N   UNL     1       6.601  -2.827  26.519  0.00  0.00    -0.194 NA
ATOM     13  C   UNL     1       5.993  -1.739  27.060  0.00  0.00    +0.180 A 
ENDROOT
BRANCH   6  14
ATOM     14  C   UNL     1       8.683   1.289  24.486  0.00  0.00    +0.034 A 
ATOM     15  C   UNL     1      10.002   1.751  24.447  0.00  0.00    +0.023 A 
ATOM     16  C   UNL     1      10.646   1.984  23.225  0.00  0.00    +0.002 A 
ATOM     17  C   UNL     1       9.969   1.786  22.022  0.00  0.00    +0.000 A 
ATOM     18  C   UNL     1       8.647   1.356  22.041  0.00  0.00    +0.002 A 
ATOM     19  C   UNL     1       8.014   1.102  23.262  0.00  0.00    +0.023 A 
ENDBRANCH   6  14
BRANCH   1  21
ATOM     20  N   UNL     1       3.322  -3.321  28.851  0.00  0.00    -0.191 NA
ATOM     21  C   UNL     1       4.052  -2.536  28.408  0.00  0.00    +0.104 C 
ENDBRANCH   1  21
BRANCH  10  22
ATOM     22  C   UNL     1       7.914  -4.951  25.027  0.00  0.00    +0.108 C 
BRANCH  22  23
ATOM     23  C   UNL     1       7.535  -5.054  23.532  0.00  0.00    +0.006 C 
ATOM     24  C   UNL     1       7.853  -3.826  22.639  0.00  0.00    +0.005 C 
ATOM     25  C   UNL     1       6.754  -2.774  22.447  0.00  0.00    +0.000 C 
ATOM     26  C   UNL     1       5.346  -3.351  22.385  0.00  0.00    +0.000 C 
ATOM     27  C   UNL     1       5.113  -4.290  23.554  0.00  0.00    +0.000 C 
ATOM     28  C   UNL     1       6.061  -5.478  23.433  0.00  0.00    +0.005 C 
ENDBRANCH  22  23
ENDBRANCH  10  22
TORSDOF 4
ENDMDL
MODEL 8
REMARK VINA RESULT:      -6.0      3.477      7.909
REMARK  Name = 
REMARK  4 active torsions:
REMARK  status: ('A' for Active; 'I' for Inactive)
REMARK    1  A    between atoms: C_2  and  C_3
REMARK    2  A    between atoms: N_7  and  C_8
REMARK    3  A    between atoms: C_8  and  C_9
REMARK    4  A    between atoms: N_17  and  C_18
REMARK                            x       y       z     vdW  Elec       q    Type
REMARK                         _______ _______ _______ _____ _____    ______ ____
ROOT
ATOM      1  C   UNL     1      11.245   5.224  23.633  0.00  0.00    +0.116 A 
ATOM      2  C   UNL     1      10.535   6.335  24.116  0.00  0.00    +0.156 A 
ATOM      3  N   UNL     1       9.340   6.006  24.635  0.00  0.00    -0.169 NA
ATOM      4  N   UNL     1       9.300   4.661  24.446  0.00  0.00    -0.182 N 
ATOM      5  C   UNL     1       8.233   3.824  24.805  0.00  0.00    +0.225 A 
ATOM      6  N   UNL     1       7.153   4.344  25.495  0.00  0.00    -0.283 N 
ATOM      7  H   UNL     1       7.057   5.352  25.543  0.00  0.00    +0.155 HD
ATOM      8  N   UNL     1       8.309   2.571  24.455  0.00  0.00    -0.181 NA
ATOM      9  C   UNL     1       9.434   2.096  23.834  0.00  0.00    +0.220 A 
ATOM     10  N   UNL     1       9.371   0.784  23.510  0.00  0.00    -0.313 N 
ATOM     11  H   UNL     1       8.443   0.390  23.462  0.00  0.00    +0.149 HD
ATOM     12  N   UNL     1      10.492   2.817  23.578  0.00  0.00    -0.194 NA
ATOM     13  C   UNL     1      10.423   4.147  23.849  0.00  0.00    +0.180 A 
ENDROOT
BRANCH   6  14
ATOM     14  C   UNL     1       6.435   3.610  26.464  0.00  0.00    +0.034 A 
ATOM     15  C   UNL     1       5.169   3.101  26.156  0.00  0.00    +0.023 A 
ATOM     16  C   UNL     1       4.486   2.278  27.061  0.00  0.00    +0.002 A 
ATOM     17  C   UNL     1       5.048   1.974  28.300  0.00  0.00    +0.000 A 
ATOM     18  C   UNL     1       6.292   2.496  28.636  0.00  0.00    +0.002 A 
ATOM     19  C   UNL     1       6.982   3.298  27.722  0.00  0.00    +0.023 A 
ENDBRANCH   6  14
BRANCH   1  21
ATOM     20  N   UNL     1      13.571   5.232  22.526  0.00  0.00    -0.191 NA
ATOM     21  C   UNL     1      12.526   5.206  23.027  0.00  0.00    +0.104 C 
ENDBRANCH   1  21
BRANCH  10  22
ATOM     22  C   UNL     1      10.506  -0.084  23.364  0.00  0.00    +0.108 C 
BRANCH  22  23
ATOM     23  C   UNL     1      10.137  -1.424  22.688  0.00  0.00    +0.006 C 
ATOM     24  C   UNL     1       8.819  -1.464  21.872  0.00  0.00    +0.005 C 
ATOM     25  C   UNL     1       7.543  -1.920  22.592  0.00  0.00    +0.000 C 
ATOM     26  C   UNL     1       7.770  -3.014  23.625  0.00  0.00    +0.000 C 
ATOM     27  C   UNL     1       8.906  -2.629  24.555  0.00  0.00    +0.000 C 
ATOM     28  C   UNL     1      10.196  -2.535  23.749  0.00  0.00    +0.005 C 
ENDBRANCH  22  23
ENDBRANCH  10  22
TORSDOF 4
ENDMDL
MODEL 9
REMARK VINA RESULT:      -6.0      2.629      4.130
REMARK  Name = 
REMARK  4 active torsions:
REMARK  status: ('A' for Active; 'I' for Inactive)
REMARK    1  A    between atoms: C_2  and  C_3
REMARK    2  A    between atoms: N_7  and  C_8
REMARK    3  A    between atoms: C_8  and  C_9
REMARK    4  A    between atoms: N_17  and  C_18
REMARK                            x       y       z     vdW  Elec       q    Type
REMARK                         _______ _______ _______ _____ _____    ______ ____
ROOT
ATOM      1  C   UNL     1       8.923  -1.468  22.981  0.00  0.00    +0.116 A 
ATOM      2  C   UNL     1       9.475  -0.990  21.781  0.00  0.00    +0.156 A 
ATOM      3  N   UNL     1       9.694   0.336  21.799  0.00  0.00    -0.169 NA
ATOM      4  N   UNL     1       9.244   0.689  23.032  0.00  0.00    -0.182 N 
ATOM      5  C   UNL     1       9.235   1.994  23.548  0.00  0.00    +0.225 A 
ATOM      6  N   UNL     1       9.804   3.024  22.821  0.00  0.00    -0.283 N 
ATOM      7  H   UNL     1      10.027   2.855  21.846  0.00  0.00    +0.155 HD
ATOM      8  N   UNL     1       8.670   2.177  24.707  0.00  0.00    -0.181 NA
ATOM      9  C   UNL     1       8.184   1.109  25.413  0.00  0.00    +0.220 A 
ATOM     10  N   UNL     1       7.607   1.444  26.591  0.00  0.00    -0.313 N 
ATOM     11  H   UNL     1       7.316   2.407  26.675  0.00  0.00    +0.149 HD
ATOM     12  N   UNL     1       8.269  -0.133  25.018  0.00  0.00    -0.194 NA
ATOM     13  C   UNL     1       8.774  -0.362  23.778  0.00  0.00    +0.180 A 
ENDROOT
BRANCH   6  14
ATOM     14  C   UNL     1      10.466   4.115  23.425  0.00  0.00    +0.034 A 
ATOM     15  C   UNL     1      11.853   4.247  23.295  0.00  0.00    +0.023 A 
ATOM     16  C   UNL     1      12.517   5.377  23.789  0.00  0.00    +0.002 A 
ATOM     17  C   UNL     1      11.807   6.381  24.446  0.00  0.00    +0.000 A 
ATOM     18  C   UNL     1      10.432   6.253  24.611  0.00  0.00    +0.002 A 
ATOM     19  C   UNL     1       9.769   5.135  24.097  0.00  0.00    +0.023 A 
ENDBRANCH   6  14
BRANCH   1  21
ATOM     20  N   UNL     1       8.290  -3.885  23.609  0.00  0.00    -0.191 NA
ATOM     21  C   UNL     1       8.569  -2.802  23.305  0.00  0.00    +0.104 C 
ENDBRANCH   1  21
BRANCH  10  22
ATOM     22  C   UNL     1       7.505   0.581  27.733  0.00  0.00    +0.108 C 
BRANCH  22  23
ATOM     23  C   UNL     1       6.289   0.925  28.623  0.00  0.00    +0.006 C 
ATOM     24  C   UNL     1       5.216   1.868  28.018  0.00  0.00    +0.005 C 
ATOM     25  C   UNL     1       5.350   3.372  28.286  0.00  0.00    +0.000 C 
ATOM     26  C   UNL     1       5.893   3.711  29.667  0.00  0.00    +0.000 C 
ATOM     27  C   UNL     1       7.155   2.915  29.944  0.00  0.00    +0.000 C 
ATOM     28  C   UNL     1       6.807   1.431  29.979  0.00  0.00    +0.005 C 
ENDBRANCH  22  23
ENDBRANCH  10  22
TORSDOF 4
ENDMDL
