MODEL 1
REMARK VINA RESULT:      -6.7      0.000      0.000
REMARK  Name = 
REMARK  10 active torsions:
REMARK  status: ('A' for Active; 'I' for Inactive)
REMARK    1  A    between atoms: C_1  and  O_2
REMARK    2  A    between atoms: O_2  and  C_3
REMARK    3  A    between atoms: C_6  and  C_9
REMARK    4  A    between atoms: C_9  and  C_11
REMARK    5  A    between atoms: C_11  and  C_12
REMARK    6  A    between atoms: C_12  and  C_14
REMARK    7  A    between atoms: C_17  and  C_20
REMARK    8  A    between atoms: C_20  and  C_21
REMARK    9  A    between atoms: C_20  and  C_22
REMARK   10  A    between atoms: C_20  and  C_23
REMARK                            x       y       z     vdW  Elec       q    Type
REMARK                         _______ _______ _______ _____ _____    ______ ____
ROOT
ATOM      1  C   UNL     1       9.807  -1.401  22.418  0.00  0.00    +0.171 C 
ATOM      2  O   UNL     1      10.929  -1.881  22.281  0.00  0.00    -0.292 OA
ENDROOT
BRANCH   1   3
ATOM      3  C   UNL     1       9.665   0.044  22.761  0.00  0.00    +0.018 A 
ATOM      4  C   UNL     1       9.046   0.911  21.857  0.00  0.00    +0.011 A 
ATOM      5  C   UNL     1       8.820   2.250  22.208  0.00  0.00    +0.005 A 
ATOM      6  C   UNL     1       9.199   2.753  23.468  0.00  0.00    -0.042 A 
ATOM      7  C   UNL     1       9.866   1.876  24.335  0.00  0.00    +0.005 A 
ATOM      8  C   UNL     1      10.096   0.544  23.992  0.00  0.00    +0.011 A 
BRANCH   6   9
ATOM      9  C   UNL     1       8.863   4.199  23.876  0.00  0.00    -0.013 C 
ATOM     10  C   UNL     1       8.301   4.213  25.313  0.00  0.00    +0.015 C 
ATOM     11  C   UNL     1       7.819   4.796  22.914  0.00  0.00    +0.015 C 
ATOM     12  C   UNL     1      10.096   5.136  23.866  0.00  0.00    +0.015 C 
ENDBRANCH   6   9
ENDBRANCH   1   3
BRANCH   1  13
ATOM     13  C   UNL     1       8.541  -2.191  22.185  0.00  0.00    +0.159 C 
BRANCH  13  14
ATOM     14  C   UNL     1       7.492  -2.100  23.262  0.00  0.00    +0.171 C 
ATOM     15  O   UNL     1       6.527  -1.348  23.128  0.00  0.00    -0.292 OA
BRANCH  14  19
ATOM     16  C   UNL     1       7.618  -4.836  26.579  0.00  0.00    +0.120 A 
ATOM     17  C   UNL     1       8.638  -3.900  26.424  0.00  0.00    +0.046 A 
ATOM     18  C   UNL     1       8.616  -3.005  25.350  0.00  0.00    +0.015 A 
ATOM     19  C   UNL     1       7.553  -3.019  24.441  0.00  0.00    +0.018 A 
ATOM     20  C   UNL     1       6.513  -3.939  24.619  0.00  0.00    +0.015 A 
ATOM     21  C   UNL     1       6.545  -4.838  25.685  0.00  0.00    +0.046 A 
BRANCH  16  23
ATOM     22  C   UNL     1       6.327  -5.792  28.294  0.00  0.00    +0.277 C 
ATOM     23  O   UNL     1       7.561  -5.763  27.583  0.00  0.00    -0.495 OA
ENDBRANCH  16  23
ENDBRANCH  14  19
ENDBRANCH  13  14
ENDBRANCH   1  13
TORSDOF 6
ENDMDL
MODEL 2
REMARK VINA RESULT:      -6.7      2.096      3.522
REMARK  Name = 
REMARK  10 active torsions:
REMARK  status: ('A' for Active; 'I' for Inactive)
REMARK    1  A    between atoms: C_1  and  O_2
REMARK    2  A    between atoms: O_2  and  C_3
REMARK    3  A    between atoms: C_6  and  C_9
REMARK    4  A    between atoms: C_9  and  C_11
REMARK    5  A    between atoms: C_11  and  C_12
REMARK    6  A    between atoms: C_12  and  C_14
REMARK    7  A    between atoms: C_17  and  C_20
REMARK    8  A    between atoms: C_20  and  C_21
REMARK    9  A    between atoms: C_20  and  C_22
REMARK   10  A    between atoms: C_20  and  C_23
REMARK                            x       y       z     vdW  Elec       q    Type
REMARK                         _______ _______ _______ _____ _____    ______ ____
ROOT
ATOM      1  C   UNL     1       6.566  -3.615  22.163  0.00  0.00    +0.171 C 
ATOM      2  O   UNL     1       5.644  -3.446  21.371  0.00  0.00    -0.292 OA
ENDROOT
BRANCH   1   3
ATOM      3  C   UNL     1       7.341  -2.435  22.649  0.00  0.00    +0.018 A 
ATOM      4  C   UNL     1       8.734  -2.507  22.724  0.00  0.00    +0.011 A 
ATOM      5  C   UNL     1       9.479  -1.375  23.086  0.00  0.00    +0.005 A 
ATOM      6  C   UNL     1       8.854  -0.147  23.376  0.00  0.00    -0.042 A 
ATOM      7  C   UNL     1       7.452  -0.117  23.345  0.00  0.00    +0.005 A 
ATOM      8  C   UNL     1       6.705  -1.239  22.988  0.00  0.00    +0.011 A 
BRANCH   6   9
ATOM      9  C   UNL     1       9.686   1.111  23.683  0.00  0.00    -0.013 C 
ATOM     10  C   UNL     1      10.061   1.818  22.363  0.00  0.00    +0.015 C 
ATOM     11  C   UNL     1      10.972   0.729  24.439  0.00  0.00    +0.015 C 
ATOM     12  C   UNL     1       8.926   2.147  24.548  0.00  0.00    +0.015 C 
ENDBRANCH   6   9
ENDBRANCH   1   3
BRANCH   1  13
ATOM     13  C   UNL     1       6.920  -4.967  22.736  0.00  0.00    +0.159 C 
BRANCH  13  14
ATOM     14  C   UNL     1       5.890  -5.602  23.630  0.00  0.00    +0.171 C 
ATOM     15  O   UNL     1       4.951  -6.235  23.147  0.00  0.00    -0.292 OA
BRANCH  14  19
ATOM     16  C   UNL     1       6.381  -5.646  27.904  0.00  0.00    +0.120 A 
ATOM     17  C   UNL     1       7.263  -4.905  27.120  0.00  0.00    +0.046 A 
ATOM     18  C   UNL     1       7.122  -4.882  25.730  0.00  0.00    +0.015 A 
ATOM     19  C   UNL     1       6.073  -5.574  25.115  0.00  0.00    +0.018 A 
ATOM     20  C   UNL     1       5.168  -6.291  25.908  0.00  0.00    +0.015 A 
ATOM     21  C   UNL     1       5.322  -6.321  27.295  0.00  0.00    +0.046 A 
BRANCH  16  23
ATOM     22  C   UNL     1       5.263  -5.356  29.949  0.00  0.00    +0.277 C 
ATOM     23  O   UNL     1       6.450  -5.746  29.266  0.00  0.00    -0.495 OA
ENDBRANCH  16  23
ENDBRANCH  14  19
ENDBRANCH  13  14
ENDBRANCH   1  13
TORSDOF 6
ENDMDL
MODEL 3
REMARK VINA RESULT:      -6.6      2.347      3.237
REMARK  Name = 
REMARK  10 active torsions:
REMARK  status: ('A' for Active; 'I' for Inactive)
REMARK    1  A    between atoms: C_1  and  O_2
REMARK    2  A    between atoms: O_2  and  C_3
REMARK    3  A    between atoms: C_6  and  C_9
REMARK    4  A    between atoms: C_9  and  C_11
REMARK    5  A    between atoms: C_11  and  C_12
REMARK    6  A    between atoms: C_12  and  C_14
REMARK    7  A    between atoms: C_17  and  C_20
REMARK    8  A    between atoms: C_20  and  C_21
REMARK    9  A    between atoms: C_20  and  C_22
REMARK   10  A    between atoms: C_20  and  C_23
REMARK                            x       y       z     vdW  Elec       q    Type
REMARK                         _______ _______ _______ _____ _____    ______ ____
ROOT
ATOM      1  C   UNL     1       9.417  -0.292  24.629  0.00  0.00    +0.171 C 
ATOM      2  O   UNL     1       9.227  -0.713  25.767  0.00  0.00    -0.292 OA
ENDROOT
BRANCH   1   3
ATOM      3  C   UNL     1       9.447   1.180  24.386  0.00  0.00    +0.018 A 
ATOM      4  C   UNL     1       8.468   1.995  24.958  0.00  0.00    +0.011 A 
ATOM      5  C   UNL     1       8.541   3.388  24.818  0.00  0.00    +0.005 A 
ATOM      6  C   UNL     1       9.593   4.001  24.110  0.00  0.00    -0.042 A 
ATOM      7  C   UNL     1      10.533   3.157  23.501  0.00  0.00    +0.005 A 
ATOM      8  C   UNL     1      10.466   1.771  23.635  0.00  0.00    +0.011 A 
BRANCH   6   9
ATOM      9  C   UNL     1       9.712   5.533  24.041  0.00  0.00    -0.013 C 
ATOM     10  C   UNL     1       8.666   6.090  23.051  0.00  0.00    +0.015 C 
ATOM     11  C   UNL     1      11.123   5.937  23.571  0.00  0.00    +0.015 C 
ATOM     12  C   UNL     1       9.457   6.227  25.402  0.00  0.00    +0.015 C 
ENDBRANCH   6   9
ENDBRANCH   1   3
BRANCH   1  13
ATOM     13  C   UNL     1       9.695  -1.200  23.453  0.00  0.00    +0.159 C 
BRANCH  13  14
ATOM     14  C   UNL     1       9.354  -2.654  23.640  0.00  0.00    +0.171 C 
ATOM     15  O   UNL     1      10.155  -3.417  24.181  0.00  0.00    -0.292 OA
BRANCH  14  19
ATOM     16  C   UNL     1       5.424  -4.148  22.730  0.00  0.00    +0.120 A 
ATOM     17  C   UNL     1       5.764  -2.847  22.367  0.00  0.00    +0.046 A 
ATOM     18  C   UNL     1       7.034  -2.343  22.658  0.00  0.00    +0.015 A 
ATOM     19  C   UNL     1       7.988  -3.151  23.285  0.00  0.00    +0.018 A 
ATOM     20  C   UNL     1       7.655  -4.470  23.618  0.00  0.00    +0.015 A 
ATOM     21  C   UNL     1       6.381  -4.964  23.337  0.00  0.00    +0.046 A 
BRANCH  16  23
ATOM     22  C   UNL     1       3.889  -5.803  23.380  0.00  0.00    +0.277 C 
ATOM     23  O   UNL     1       4.204  -4.723  22.506  0.00  0.00    -0.495 OA
ENDBRANCH  16  23
ENDBRANCH  14  19
ENDBRANCH  13  14
ENDBRANCH   1  13
TORSDOF 6
ENDMDL
MODEL 4
REMARK VINA RESULT:      -6.6      2.213      3.281
REMARK  Name = 
REMARK  10 active torsions:
REMARK  status: ('A' for Active; 'I' for Inactive)
REMARK    1  A    between atoms: C_1  and  O_2
REMARK    2  A    between atoms: O_2  and  C_3
REMARK    3  A    between atoms: C_6  and  C_9
REMARK    4  A    between atoms: C_9  and  C_11
REMARK    5  A    between atoms: C_11  and  C_12
REMARK    6  A    between atoms: C_12  and  C_14
REMARK    7  A    between atoms: C_17  and  C_20
REMARK    8  A    between atoms: C_20  and  C_21
REMARK    9  A    between atoms: C_20  and  C_22
REMARK   10  A    between atoms: C_20  and  C_23
REMARK                            x       y       z     vdW  Elec       q    Type
REMARK                         _______ _______ _______ _____ _____    ______ ____
ROOT
ATOM      1  C   UNL     1       9.722  -2.189  23.972  0.00  0.00    +0.171 C 
ATOM      2  O   UNL     1      10.422  -2.609  23.055  0.00  0.00    -0.292 OA
ENDROOT
BRANCH   1   3
ATOM      3  C   UNL     1       9.478  -0.722  24.096  0.00  0.00    +0.018 A 
ATOM      4  C   UNL     1      10.563   0.155  24.154  0.00  0.00    +0.011 A 
ATOM      5  C   UNL     1      10.348   1.541  24.174  0.00  0.00    +0.005 A 
ATOM      6  C   UNL     1       9.049   2.083  24.130  0.00  0.00    -0.042 A 
ATOM      7  C   UNL     1       7.977   1.179  24.126  0.00  0.00    +0.005 A 
ATOM      8  C   UNL     1       8.183  -0.200  24.108  0.00  0.00    +0.011 A 
BRANCH   6   9
ATOM      9  C   UNL     1       8.828   3.604  24.060  0.00  0.00    -0.013 C 
ATOM     10  C   UNL     1       7.842   3.932  22.918  0.00  0.00    +0.015 C 
ATOM     11  C   UNL     1      10.165   4.326  23.801  0.00  0.00    +0.015 C 
ATOM     12  C   UNL     1       8.224   4.193  25.359  0.00  0.00    +0.015 C 
ENDBRANCH   6   9
ENDBRANCH   1   3
BRANCH   1  13
ATOM     13  C   UNL     1       9.024  -3.099  24.956  0.00  0.00    +0.159 C 
BRANCH  13  14
ATOM     14  C   UNL     1       8.804  -4.520  24.508  0.00  0.00    +0.171 C 
ATOM     15  O   UNL     1       9.674  -5.371  24.691  0.00  0.00    -0.292 OA
BRANCH  14  19
ATOM     16  C   UNL     1       4.930  -5.603  22.986  0.00  0.00    +0.120 A 
ATOM     17  C   UNL     1       6.047  -5.720  22.162  0.00  0.00    +0.046 A 
ATOM     18  C   UNL     1       7.313  -5.370  22.638  0.00  0.00    +0.015 A 
ATOM     19  C   UNL     1       7.476  -4.930  23.956  0.00  0.00    +0.018 A 
ATOM     20  C   UNL     1       6.356  -4.845  24.792  0.00  0.00    +0.015 A 
ATOM     21  C   UNL     1       5.091  -5.184  24.308  0.00  0.00    +0.046 A 
BRANCH  16  23
ATOM     22  C   UNL     1       2.638  -5.255  23.372  0.00  0.00    +0.277 C 
ATOM     23  O   UNL     1       3.650  -5.902  22.606  0.00  0.00    -0.495 OA
ENDBRANCH  16  23
ENDBRANCH  14  19
ENDBRANCH  13  14
ENDBRANCH   1  13
TORSDOF 6
ENDMDL
MODEL 5
REMARK VINA RESULT:      -6.5      3.808      6.771
REMARK  Name = 
REMARK  10 active torsions:
REMARK  status: ('A' for Active; 'I' for Inactive)
REMARK    1  A    between atoms: C_1  and  O_2
REMARK    2  A    between atoms: O_2  and  C_3
REMARK    3  A    between atoms: C_6  and  C_9
REMARK    4  A    between atoms: C_9  and  C_11
REMARK    5  A    between atoms: C_11  and  C_12
REMARK    6  A    between atoms: C_12  and  C_14
REMARK    7  A    between atoms: C_17  and  C_20
REMARK    8  A    between atoms: C_20  and  C_21
REMARK    9  A    between atoms: C_20  and  C_22
REMARK   10  A    between atoms: C_20  and  C_23
REMARK                            x       y       z     vdW  Elec       q    Type
REMARK                         _______ _______ _______ _____ _____    ______ ____
ROOT
ATOM      1  C   UNL     1       8.996  -1.906  25.339  0.00  0.00    +0.171 C 
ATOM      2  O   UNL     1       9.149  -0.766  25.768  0.00  0.00    -0.292 OA
ENDROOT
BRANCH   1   3
ATOM      3  C   UNL     1       8.114  -2.857  26.077  0.00  0.00    +0.018 A 
ATOM      4  C   UNL     1       6.817  -2.469  26.421  0.00  0.00    +0.011 A 
ATOM      5  C   UNL     1       5.945  -3.385  27.028  0.00  0.00    +0.005 A 
ATOM      6  C   UNL     1       6.344  -4.708  27.300  0.00  0.00    -0.042 A 
ATOM      7  C   UNL     1       7.668  -5.055  26.993  0.00  0.00    +0.005 A 
ATOM      8  C   UNL     1       8.540  -4.149  26.391  0.00  0.00    +0.011 A 
BRANCH   6   9
ATOM      9  C   UNL     1       5.351  -5.730  27.882  0.00  0.00    -0.013 C 
ATOM     10  C   UNL     1       4.892  -6.696  26.770  0.00  0.00    +0.015 C 
ATOM     11  C   UNL     1       4.124  -5.007  28.468  0.00  0.00    +0.015 C 
ATOM     12  C   UNL     1       5.963  -6.599  29.009  0.00  0.00    +0.015 C 
ENDBRANCH   6   9
ENDBRANCH   1   3
BRANCH   1  13
ATOM     13  C   UNL     1       9.610  -2.386  24.044  0.00  0.00    +0.159 C 
BRANCH  13  14
ATOM     14  C   UNL     1       8.698  -2.417  22.846  0.00  0.00    +0.171 C 
ATOM     15  O   UNL     1       8.981  -1.778  21.832  0.00  0.00    -0.292 OA
BRANCH  14  19
ATOM     16  C   UNL     1       5.225  -4.952  22.738  0.00  0.00    +0.120 A 
ATOM     17  C   UNL     1       6.488  -5.525  22.859  0.00  0.00    +0.046 A 
ATOM     18  C   UNL     1       7.629  -4.719  22.892  0.00  0.00    +0.015 A 
ATOM     19  C   UNL     1       7.510  -3.326  22.838  0.00  0.00    +0.018 A 
ATOM     20  C   UNL     1       6.236  -2.751  22.751  0.00  0.00    +0.015 A 
ATOM     21  C   UNL     1       5.101  -3.562  22.706  0.00  0.00    +0.046 A 
BRANCH  16  23
ATOM     22  C   UNL     1       2.998  -5.121  23.469  0.00  0.00    +0.277 C 
ATOM     23  O   UNL     1       4.055  -5.657  22.678  0.00  0.00    -0.495 OA
ENDBRANCH  16  23
ENDBRANCH  14  19
ENDBRANCH  13  14
ENDBRANCH   1  13
TORSDOF 6
ENDMDL
MODEL 6
REMARK VINA RESULT:      -6.5      2.138      4.123
REMARK  Name = 
REMARK  10 active torsions:
REMARK  status: ('A' for Active; 'I' for Inactive)
REMARK    1  A    between atoms: C_1  and  O_2
REMARK    2  A    between atoms: O_2  and  C_3
REMARK    3  A    between atoms: C_6  and  C_9
REMARK    4  A    between atoms: C_9  and  C_11
REMARK    5  A    between atoms: C_11  and  C_12
REMARK    6  A    between atoms: C_12  and  C_14
REMARK    7  A    between atoms: C_17  and  C_20
REMARK    8  A    between atoms: C_20  and  C_21
REMARK    9  A    between atoms: C_20  and  C_22
REMARK   10  A    between atoms: C_20  and  C_23
REMARK                            x       y       z     vdW  Elec       q    Type
REMARK                         _______ _______ _______ _____ _____    ______ ____
ROOT
ATOM      1  C   UNL     1       9.191  -4.024  25.224  0.00  0.00    +0.171 C 
ATOM      2  O   UNL     1       9.722  -4.944  24.608  0.00  0.00    -0.292 OA
ENDROOT
BRANCH   1   3
ATOM      3  C   UNL     1       9.076  -2.682  24.584  0.00  0.00    +0.018 A 
ATOM      4  C   UNL     1       8.064  -1.808  24.987  0.00  0.00    +0.011 A 
ATOM      5  C   UNL     1       8.004  -0.509  24.463  0.00  0.00    +0.005 A 
ATOM      6  C   UNL     1       8.953  -0.049  23.530  0.00  0.00    -0.042 A 
ATOM      7  C   UNL     1       9.927  -0.963  23.102  0.00  0.00    +0.005 A 
ATOM      8  C   UNL     1       9.991  -2.257  23.618  0.00  0.00    +0.011 A 
BRANCH   6   9
ATOM      9  C   UNL     1       8.932   1.406  23.031  0.00  0.00    -0.013 C 
ATOM     10  C   UNL     1       7.573   1.705  22.363  0.00  0.00    +0.015 C 
ATOM     11  C   UNL     1      10.063   1.637  22.011  0.00  0.00    +0.015 C 
ATOM     12  C   UNL     1       9.111   2.443  24.168  0.00  0.00    +0.015 C 
ENDBRANCH   6   9
ENDBRANCH   1   3
BRANCH   1  13
ATOM     13  C   UNL     1       8.576  -4.200  26.593  0.00  0.00    +0.159 C 
BRANCH  13  14
ATOM     14  C   UNL     1       7.408  -5.145  26.682  0.00  0.00    +0.171 C 
ATOM     15  O   UNL     1       7.339  -5.966  27.597  0.00  0.00    -0.292 OA
BRANCH  14  19
ATOM     16  C   UNL     1       4.106  -4.870  23.938  0.00  0.00    +0.120 A 
ATOM     17  C   UNL     1       4.225  -3.935  24.963  0.00  0.00    +0.046 A 
ATOM     18  C   UNL     1       5.288  -4.010  25.866  0.00  0.00    +0.015 A 
ATOM     19  C   UNL     1       6.262  -5.005  25.730  0.00  0.00    +0.018 A 
ATOM     20  C   UNL     1       6.159  -5.923  24.678  0.00  0.00    +0.015 A 
ATOM     21  C   UNL     1       5.087  -5.851  23.785  0.00  0.00    +0.046 A 
BRANCH  16  23
ATOM     22  C   UNL     1       2.302  -6.074  23.036  0.00  0.00    +0.277 C 
ATOM     23  O   UNL     1       3.093  -4.890  23.019  0.00  0.00    -0.495 OA
ENDBRANCH  16  23
ENDBRANCH  14  19
ENDBRANCH  13  14
ENDBRANCH   1  13
TORSDOF 6
ENDMDL
MODEL 7
REMARK VINA RESULT:      -6.5      2.824      5.361
REMARK  Name = 
REMARK  10 active torsions:
REMARK  status: ('A' for Active; 'I' for Inactive)
REMARK    1  A    between atoms: C_1  and  O_2
REMARK    2  A    between atoms: O_2  and  C_3
REMARK    3  A    between atoms: C_6  and  C_9
REMARK    4  A    between atoms: C_9  and  C_11
REMARK    5  A    between atoms: C_11  and  C_12
REMARK    6  A    between atoms: C_12  and  C_14
REMARK    7  A    between atoms: C_17  and  C_20
REMARK    8  A    between atoms: C_20  and  C_21
REMARK    9  A    between atoms: C_20  and  C_22
REMARK   10  A    between atoms: C_20  and  C_23
REMARK                            x       y       z     vdW  Elec       q    Type
REMARK                         _______ _______ _______ _____ _____    ______ ____
ROOT
ATOM      1  C   UNL     1       7.100  -4.581  27.221  0.00  0.00    +0.171 C 
ATOM      2  O   UNL     1       7.615  -5.673  27.446  0.00  0.00    -0.292 OA
ENDROOT
BRANCH   1   3
ATOM      3  C   UNL     1       7.810  -3.602  26.346  0.00  0.00    +0.018 A 
ATOM      4  C   UNL     1       8.512  -4.057  25.228  0.00  0.00    +0.011 A 
ATOM      5  C   UNL     1       9.101  -3.140  24.345  0.00  0.00    +0.005 A 
ATOM      6  C   UNL     1       8.999  -1.751  24.553  0.00  0.00    -0.042 A 
ATOM      7  C   UNL     1       8.335  -1.323  25.712  0.00  0.00    +0.005 A 
ATOM      8  C   UNL     1       7.748  -2.229  26.595  0.00  0.00    +0.011 A 
BRANCH   6   9
ATOM      9  C   UNL     1       9.570  -0.753  23.530  0.00  0.00    -0.013 C 
ATOM     10  C   UNL     1      10.550   0.208  24.236  0.00  0.00    +0.015 C 
ATOM     11  C   UNL     1       8.432   0.061  22.887  0.00  0.00    +0.015 C 
ATOM     12  C   UNL     1      10.358  -1.438  22.386  0.00  0.00    +0.015 C 
ENDBRANCH   6   9
ENDBRANCH   1   3
BRANCH   1  13
ATOM     13  C   UNL     1       5.732  -4.196  27.734  0.00  0.00    +0.159 C 
BRANCH  13  14
ATOM     14  C   UNL     1       4.579  -4.428  26.794  0.00  0.00    +0.171 C 
ATOM     15  O   UNL     1       3.422  -4.406  27.213  0.00  0.00    -0.292 OA
BRANCH  14  19
ATOM     16  C   UNL     1       5.367  -4.693  22.574  0.00  0.00    +0.120 A 
ATOM     17  C   UNL     1       5.341  -5.855  23.341  0.00  0.00    +0.046 A 
ATOM     18  C   UNL     1       5.090  -5.789  24.713  0.00  0.00    +0.015 A 
ATOM     19  C   UNL     1       4.830  -4.558  25.326  0.00  0.00    +0.018 A 
ATOM     20  C   UNL     1       4.824  -3.395  24.546  0.00  0.00    +0.015 A 
ATOM     21  C   UNL     1       5.087  -3.465  23.177  0.00  0.00    +0.046 A 
BRANCH  16  23
ATOM     22  C   UNL     1       6.315  -5.792  20.727  0.00  0.00    +0.277 C 
ATOM     23  O   UNL     1       5.622  -4.654  21.231  0.00  0.00    -0.495 OA
ENDBRANCH  16  23
ENDBRANCH  14  19
ENDBRANCH  13  14
ENDBRANCH   1  13
TORSDOF 6
ENDMDL
MODEL 8
REMARK VINA RESULT:      -6.4      2.291      3.060
REMARK  Name = 
REMARK  10 active torsions:
REMARK  status: ('A' for Active; 'I' for Inactive)
REMARK    1  A    between atoms: C_1  and  O_2
REMARK    2  A    between atoms: O_2  and  C_3
REMARK    3  A    between atoms: C_6  and  C_9
REMARK    4  A    between atoms: C_9  and  C_11
REMARK    5  A    between atoms: C_11  and  C_12
REMARK    6  A    between atoms: C_12  and  C_14
REMARK    7  A    between atoms: C_17  and  C_20
REMARK    8  A    between atoms: C_20  and  C_21
REMARK    9  A    between atoms: C_20  and  C_22
REMARK   10  A    between atoms: C_20  and  C_23
REMARK                            x       y       z     vdW  Elec       q    Type
REMARK                         _______ _______ _______ _____ _____    ______ ____
ROOT
ATOM      1  C   UNL     1       9.134  -1.323  25.139  0.00  0.00    +0.171 C 
ATOM      2  O   UNL     1       8.705  -1.836  26.169  0.00  0.00    -0.292 OA
ENDROOT
BRANCH   1   3
ATOM      3  C   UNL     1       9.134   0.163  25.005  0.00  0.00    +0.018 A 
ATOM      4  C   UNL     1      10.185   0.796  24.337  0.00  0.00    +0.011 A 
ATOM      5  C   UNL     1      10.149   2.181  24.120  0.00  0.00    +0.005 A 
ATOM      6  C   UNL     1       9.064   2.965  24.558  0.00  0.00    -0.042 A 
ATOM      7  C   UNL     1       8.048   2.312  25.272  0.00  0.00    +0.005 A 
ATOM      8  C   UNL     1       8.078   0.936  25.493  0.00  0.00    +0.011 A 
BRANCH   6   9
ATOM      9  C   UNL     1       8.991   4.467  24.234  0.00  0.00    -0.013 C 
ATOM     10  C   UNL     1       8.577   5.250  25.498  0.00  0.00    +0.015 C 
ATOM     11  C   UNL     1       7.963   4.723  23.116  0.00  0.00    +0.015 C 
ATOM     12  C   UNL     1      10.346   5.055  23.765  0.00  0.00    +0.015 C 
ENDBRANCH   6   9
ENDBRANCH   1   3
BRANCH   1  13
ATOM     13  C   UNL     1       9.735  -2.127  24.009  0.00  0.00    +0.159 C 
BRANCH  13  14
ATOM     14  C   UNL     1       8.895  -2.260  22.767  0.00  0.00    +0.171 C 
ATOM     15  O   UNL     1       9.248  -1.725  21.716  0.00  0.00    -0.292 OA
BRANCH  14  19
ATOM     16  C   UNL     1       5.392  -4.755  22.681  0.00  0.00    +0.120 A 
ATOM     17  C   UNL     1       6.618  -5.308  23.043  0.00  0.00    +0.046 A 
ATOM     18  C   UNL     1       7.768  -4.514  23.073  0.00  0.00    +0.015 A 
ATOM     19  C   UNL     1       7.692  -3.150  22.773  0.00  0.00    +0.018 A 
ATOM     20  C   UNL     1       6.452  -2.590  22.442  0.00  0.00    +0.015 A 
ATOM     21  C   UNL     1       5.309  -3.390  22.401  0.00  0.00    +0.046 A 
BRANCH  16  23
ATOM     22  C   UNL     1       3.206  -5.013  23.503  0.00  0.00    +0.277 C 
ATOM     23  O   UNL     1       4.219  -5.454  22.604  0.00  0.00    -0.495 OA
ENDBRANCH  16  23
ENDBRANCH  14  19
ENDBRANCH  13  14
ENDBRANCH   1  13
TORSDOF 6
ENDMDL
MODEL 9
REMARK VINA RESULT:      -6.4      1.824      2.472
REMARK  Name = 
REMARK  10 active torsions:
REMARK  status: ('A' for Active; 'I' for Inactive)
REMARK    1  A    between atoms: C_1  and  O_2
REMARK    2  A    between atoms: O_2  and  C_3
REMARK    3  A    between atoms: C_6  and  C_9
REMARK    4  A    between atoms: C_9  and  C_11
REMARK    5  A    between atoms: C_11  and  C_12
REMARK    6  A    between atoms: C_12  and  C_14
REMARK    7  A    between atoms: C_17  and  C_20
REMARK    8  A    between atoms: C_20  and  C_21
REMARK    9  A    between atoms: C_20  and  C_22
REMARK   10  A    between atoms: C_20  and  C_23
REMARK                            x       y       z     vdW  Elec       q    Type
REMARK                         _______ _______ _______ _____ _____    ______ ____
ROOT
ATOM      1  C   UNL     1       9.790  -1.455  22.624  0.00  0.00    +0.171 C 
ATOM      2  O   UNL     1      10.859  -1.881  22.197  0.00  0.00    -0.292 OA
ENDROOT
BRANCH   1   3
ATOM      3  C   UNL     1       9.656  -0.005  22.953  0.00  0.00    +0.018 A 
ATOM      4  C   UNL     1       9.403   0.914  21.933  0.00  0.00    +0.011 A 
ATOM      5  C   UNL     1       9.179   2.264  22.240  0.00  0.00    +0.005 A 
ATOM      6  C   UNL     1       9.197   2.727  23.570  0.00  0.00    -0.042 A 
ATOM      7  C   UNL     1       9.506   1.793  24.570  0.00  0.00    +0.005 A 
ATOM      8  C   UNL     1       9.732   0.450  24.271  0.00  0.00    +0.011 A 
BRANCH   6   9
ATOM      9  C   UNL     1       8.860   4.191  23.903  0.00  0.00    -0.013 C 
ATOM     10  C   UNL     1      10.142   5.048  23.825  0.00  0.00    +0.015 C 
ATOM     11  C   UNL     1       8.265   4.292  25.321  0.00  0.00    +0.015 C 
ATOM     12  C   UNL     1       7.839   4.819  22.923  0.00  0.00    +0.015 C 
ENDBRANCH   6   9
ENDBRANCH   1   3
BRANCH   1  13
ATOM     13  C   UNL     1       8.560  -2.320  22.771  0.00  0.00    +0.159 C 
BRANCH  13  14
ATOM     14  C   UNL     1       8.687  -3.505  23.691  0.00  0.00    +0.171 C 
ATOM     15  O   UNL     1       9.690  -3.646  24.390  0.00  0.00    -0.292 OA
BRANCH  14  19
ATOM     16  C   UNL     1       5.432  -6.292  24.072  0.00  0.00    +0.120 A 
ATOM     17  C   UNL     1       5.893  -5.618  25.201  0.00  0.00    +0.046 A 
ATOM     18  C   UNL     1       6.951  -4.712  25.098  0.00  0.00    +0.015 A 
ATOM     19  C   UNL     1       7.537  -4.448  23.855  0.00  0.00    +0.018 A 
ATOM     20  C   UNL     1       7.049  -5.102  22.717  0.00  0.00    +0.015 A 
ATOM     21  C   UNL     1       6.000  -6.016  22.827  0.00  0.00    +0.046 A 
BRANCH  16  23
ATOM     22  C   UNL     1       3.115  -6.652  24.219  0.00  0.00    +0.277 C 
ATOM     23  O   UNL     1       4.418  -7.210  24.076  0.00  0.00    -0.495 OA
ENDBRANCH  16  23
ENDBRANCH  14  19
ENDBRANCH  13  14
ENDBRANCH   1  13
TORSDOF 6
ENDMDL
